MODEL 1
REMARK VINA RESULT:      -7.5      0.000      0.000
REMARK  Name = 
REMARK  10 active torsions:
REMARK  status: ('A' for Active; 'I' for Inactive)
REMARK    1  A    between atoms: C_1  and  C_2
REMARK    2  A    between atoms: C_2  and  O_3
REMARK    3  A    between atoms: O_3  and  C_4
REMARK    4  A    between atoms: C_4  and  C_5
REMARK    5  A    between atoms: C_5  and  C_6
REMARK    6  A    between atoms: C_6  and  N_7
REMARK    7  A    between atoms: C_8  and  S_9
REMARK    8  A    between atoms: S_9  and  C_10
REMARK    9  A    between atoms: C_10  and  C_11
REMARK   10  A    between atoms: N_13  and  C_14
REMARK                            x       y       z     vdW  Elec       q    Type
REMARK                         _______ _______ _______ _____ _____    ______ ____
ROOT
ATOM      1  N   UNL     1       5.968   4.958  17.198  0.00  0.00    +0.000 N 
ATOM      2  C   UNL     1       7.032   5.816  16.926  0.00  0.00    +0.000 A 
ATOM      3  N   UNL     1       7.540   5.970  15.741  0.00  0.00    +0.000 NA
ATOM      4  C   UNL     1       7.038   5.192  14.689  0.00  0.00    +0.000 A 
ATOM      5  C   UNL     1       7.689   5.196  13.459  0.00  0.00    +0.000 A 
ATOM      6  C   UNL     1       7.236   4.377  12.404  0.00  0.00    +0.000 A 
ATOM      7  C   UNL     1       6.126   3.554  12.581  0.00  0.00    +0.000 A 
ATOM      8  C   UNL     1       5.462   3.553  13.802  0.00  0.00    +0.000 A 
ATOM      9  C   UNL     1       5.926   4.373  14.837  0.00  0.00    +0.000 A 
ATOM     10  C   UNL     1       5.288   4.336  16.152  0.00  0.00    +0.000 A 
ATOM     11  O   UNL     1       4.226   3.729  16.273  0.00  0.00    +0.000 OA
ENDROOT
BRANCH   1  12
ATOM     12  C   UNL     1       5.455   4.620  18.536  0.00  0.00    +0.000 C 
BRANCH  12  13
ATOM     13  C   UNL     1       4.352   5.592  19.009  0.00  0.00    +0.000 C 
BRANCH  13  14
ATOM     14  C   UNL     1       3.294   4.895  19.849  0.00  0.00    +0.000 C 
BRANCH  14  15
ATOM     15  O   UNL     1       3.278   3.521  19.483  0.00  0.00    +0.000 OA
BRANCH  15  17
ATOM     16  C   UNL     1       2.102   3.474  21.543  0.00  0.00    +0.000 C 
ATOM     17  C   UNL     1       2.984   2.688  20.596  0.00  0.00    +0.000 C 
ENDBRANCH  15  17
ENDBRANCH  14  15
ENDBRANCH  13  14
ENDBRANCH  12  13
ENDBRANCH   1  12
BRANCH   2  18
ATOM     18  S   UNL     1       7.747   6.725  18.252  0.00  0.00    +0.000 S 
BRANCH  18  19
ATOM     19  C   UNL     1       7.688   8.438  17.627  0.00  0.00    +0.000 C 
BRANCH  19  20
ATOM     20  C   UNL     1       8.638   9.391  18.361  0.00  0.00    +0.000 C 
ATOM     21  O   UNL     1       9.185   9.011  19.396  0.00  0.00    +0.000 OA
ATOM     22  N   UNL     1       8.845  10.617  17.747  0.00  0.00    +0.000 N 
ATOM     23  H   UNL     1       8.178  10.856  17.022  0.00  0.00    +0.000 HD
BRANCH  22  24
ATOM     24  C   UNL     1       9.674  11.657  18.220  0.00  0.00    +0.000 A 
ATOM     25  C   UNL     1      10.839  12.056  17.565  0.00  0.00    +0.000 A 
ATOM     26  C   UNL     1      11.702  12.989  18.145  0.00  0.00    +0.000 A 
ATOM     27  C   UNL     1      11.392  13.554  19.378  0.00  0.00    +0.000 A 
ATOM     28  C   UNL     1      10.190  13.227  20.003  0.00  0.00    +0.000 A 
ATOM     29  C   UNL     1       9.325  12.293  19.420  0.00  0.00    +0.000 A 
ENDBRANCH  22  24
ENDBRANCH  19  20
ENDBRANCH  18  19
ENDBRANCH   2  18
TORSDOF 9
ENDMDL
MODEL 2
REMARK VINA RESULT:      -7.5      0.700      1.169
REMARK  Name = 
REMARK  10 active torsions:
REMARK  status: ('A' for Active; 'I' for Inactive)
REMARK    1  A    between atoms: C_1  and  C_2
REMARK    2  A    between atoms: C_2  and  O_3
REMARK    3  A    between atoms: O_3  and  C_4
REMARK    4  A    between atoms: C_4  and  C_5
REMARK    5  A    between atoms: C_5  and  C_6
REMARK    6  A    between atoms: C_6  and  N_7
REMARK    7  A    between atoms: C_8  and  S_9
REMARK    8  A    between atoms: S_9  and  C_10
REMARK    9  A    between atoms: C_10  and  C_11
REMARK   10  A    between atoms: N_13  and  C_14
REMARK                            x       y       z     vdW  Elec       q    Type
REMARK                         _______ _______ _______ _____ _____    ______ ____
ROOT
ATOM      1  N   UNL     1       5.926   4.960  17.191  0.00  0.00    +0.000 N 
ATOM      2  C   UNL     1       6.989   5.811  16.902  0.00  0.00    +0.000 A 
ATOM      3  N   UNL     1       7.490   5.951  15.712  0.00  0.00    +0.000 NA
ATOM      4  C   UNL     1       6.979   5.163  14.672  0.00  0.00    +0.000 A 
ATOM      5  C   UNL     1       7.622   5.151  13.438  0.00  0.00    +0.000 A 
ATOM      6  C   UNL     1       7.161   4.321  12.395  0.00  0.00    +0.000 A 
ATOM      7  C   UNL     1       6.050   3.503  12.589  0.00  0.00    +0.000 A 
ATOM      8  C   UNL     1       5.394   3.518  13.814  0.00  0.00    +0.000 A 
ATOM      9  C   UNL     1       5.867   4.349  14.837  0.00  0.00    +0.000 A 
ATOM     10  C   UNL     1       5.237   4.328  16.156  0.00  0.00    +0.000 A 
ATOM     11  O   UNL     1       4.174   3.725  16.291  0.00  0.00    +0.000 OA
ENDROOT
BRANCH   1  12
ATOM     12  C   UNL     1       5.420   4.639  18.536  0.00  0.00    +0.000 C 
BRANCH  12  13
ATOM     13  C   UNL     1       4.399   5.678  19.048  0.00  0.00    +0.000 C 
BRANCH  13  14
ATOM     14  C   UNL     1       3.244   5.030  19.794  0.00  0.00    +0.000 C 
BRANCH  14  15
ATOM     15  O   UNL     1       2.298   4.581  18.831  0.00  0.00    +0.000 OA
BRANCH  15  17
ATOM     16  C   UNL     1       2.433   2.219  18.993  0.00  0.00    +0.000 C 
ATOM     17  C   UNL     1       1.588   3.439  19.291  0.00  0.00    +0.000 C 
ENDBRANCH  15  17
ENDBRANCH  14  15
ENDBRANCH  13  14
ENDBRANCH  12  13
ENDBRANCH   1  12
BRANCH   2  18
ATOM     18  S   UNL     1       7.715   6.734  18.213  0.00  0.00    +0.000 S 
BRANCH  18  19
ATOM     19  C   UNL     1       7.581   8.449  17.605  0.00  0.00    +0.000 C 
BRANCH  19  20
ATOM     20  C   UNL     1       8.536   9.423  18.304  0.00  0.00    +0.000 C 
ATOM     21  O   UNL     1       9.139   9.052  19.311  0.00  0.00    +0.000 OA
ATOM     22  N   UNL     1       8.679  10.659  17.693  0.00  0.00    +0.000 N 
ATOM     23  H   UNL     1       7.974  10.884  17.000  0.00  0.00    +0.000 HD
BRANCH  22  24
ATOM     24  C   UNL     1       9.499  11.719  18.138  0.00  0.00    +0.000 A 
ATOM     25  C   UNL     1       9.017  12.781  18.904  0.00  0.00    +0.000 A 
ATOM     26  C   UNL     1       9.831  13.878  19.198  0.00  0.00    +0.000 A 
ATOM     27  C   UNL     1      11.148  13.908  18.752  0.00  0.00    +0.000 A 
ATOM     28  C   UNL     1      11.667  12.816  18.059  0.00  0.00    +0.000 A 
ATOM     29  C   UNL     1      10.851  11.717  17.766  0.00  0.00    +0.000 A 
ENDBRANCH  22  24
ENDBRANCH  19  20
ENDBRANCH  18  19
ENDBRANCH   2  18
TORSDOF 9
ENDMDL
MODEL 3
REMARK VINA RESULT:      -7.4      4.702      7.405
REMARK  Name = 
REMARK  10 active torsions:
REMARK  status: ('A' for Active; 'I' for Inactive)
REMARK    1  A    between atoms: C_1  and  C_2
REMARK    2  A    between atoms: C_2  and  O_3
REMARK    3  A    between atoms: O_3  and  C_4
REMARK    4  A    between atoms: C_4  and  C_5
REMARK    5  A    between atoms: C_5  and  C_6
REMARK    6  A    between atoms: C_6  and  N_7
REMARK    7  A    between atoms: C_8  and  S_9
REMARK    8  A    between atoms: S_9  and  C_10
REMARK    9  A    between atoms: C_10  and  C_11
REMARK   10  A    between atoms: N_13  and  C_14
REMARK                            x       y       z     vdW  Elec       q    Type
REMARK                         _______ _______ _______ _____ _____    ______ ____
ROOT
ATOM      1  N   UNL     1       4.502   5.772  18.374  0.00  0.00    +0.000 N 
ATOM      2  C   UNL     1       3.353   6.545  18.519  0.00  0.00    +0.000 A 
ATOM      3  N   UNL     1       2.339   6.187  19.247  0.00  0.00    +0.000 NA
ATOM      4  C   UNL     1       2.371   4.934  19.873  0.00  0.00    +0.000 A 
ATOM      5  C   UNL     1       1.226   4.447  20.496  0.00  0.00    +0.000 A 
ATOM      6  C   UNL     1       1.217   3.163  21.081  0.00  0.00    +0.000 A 
ATOM      7  C   UNL     1       2.360   2.367  21.044  0.00  0.00    +0.000 A 
ATOM      8  C   UNL     1       3.511   2.851  20.435  0.00  0.00    +0.000 A 
ATOM      9  C   UNL     1       3.501   4.128  19.860  0.00  0.00    +0.000 A 
ATOM     10  C   UNL     1       4.677   4.629  19.152  0.00  0.00    +0.000 A 
ATOM     11  O   UNL     1       5.730   4.000  19.242  0.00  0.00    +0.000 OA
ENDROOT
BRANCH   1  12
ATOM     12  C   UNL     1       5.611   6.044  17.443  0.00  0.00    +0.000 C 
BRANCH  12  13
ATOM     13  C   UNL     1       5.394   5.394  16.060  0.00  0.00    +0.000 C 
BRANCH  13  14
ATOM     14  C   UNL     1       6.458   4.356  15.739  0.00  0.00    +0.000 C 
BRANCH  14  15
ATOM     15  O   UNL     1       6.004   3.592  14.628  0.00  0.00    +0.000 OA
BRANCH  15  17
ATOM     16  C   UNL     1       5.956   3.250  12.282  0.00  0.00    +0.000 C 
ATOM     17  C   UNL     1       6.501   4.110  13.401  0.00  0.00    +0.000 C 
ENDBRANCH  15  17
ENDBRANCH  14  15
ENDBRANCH  13  14
ENDBRANCH  12  13
ENDBRANCH   1  12
BRANCH   2  18
ATOM     18  S   UNL     1       3.248   8.077  17.659  0.00  0.00    +0.000 S 
BRANCH  18  19
ATOM     19  C   UNL     1       1.489   8.517  17.859  0.00  0.00    +0.000 C 
BRANCH  19  20
ATOM     20  C   UNL     1       1.266   9.784  18.692  0.00  0.00    +0.000 C 
ATOM     21  O   UNL     1       1.075   9.678  19.903  0.00  0.00    +0.000 OA
ATOM     22  N   UNL     1       1.350  10.980  17.995  0.00  0.00    +0.000 N 
ATOM     23  H   UNL     1       1.309  10.896  16.985  0.00  0.00    +0.000 HD
BRANCH  22  24
ATOM     24  C   UNL     1       1.188  12.273  18.535  0.00  0.00    +0.000 A 
ATOM     25  C   UNL     1      -0.031  12.953  18.525  0.00  0.00    +0.000 A 
ATOM     26  C   UNL     1      -0.111  14.285  18.940  0.00  0.00    +0.000 A 
ATOM     27  C   UNL     1       1.027  14.942  19.397  0.00  0.00    +0.000 A 
ATOM     28  C   UNL     1       2.232  14.249  19.492  0.00  0.00    +0.000 A 
ATOM     29  C   UNL     1       2.311  12.914  19.078  0.00  0.00    +0.000 A 
ENDBRANCH  22  24
ENDBRANCH  19  20
ENDBRANCH  18  19
ENDBRANCH   2  18
TORSDOF 9
ENDMDL
MODEL 4
REMARK VINA RESULT:      -7.4      4.574      7.652
REMARK  Name = 
REMARK  10 active torsions:
REMARK  status: ('A' for Active; 'I' for Inactive)
REMARK    1  A    between atoms: C_1  and  C_2
REMARK    2  A    between atoms: C_2  and  O_3
REMARK    3  A    between atoms: O_3  and  C_4
REMARK    4  A    between atoms: C_4  and  C_5
REMARK    5  A    between atoms: C_5  and  C_6
REMARK    6  A    between atoms: C_6  and  N_7
REMARK    7  A    between atoms: C_8  and  S_9
REMARK    8  A    between atoms: S_9  and  C_10
REMARK    9  A    between atoms: C_10  and  C_11
REMARK   10  A    between atoms: N_13  and  C_14
REMARK                            x       y       z     vdW  Elec       q    Type
REMARK                         _______ _______ _______ _____ _____    ______ ____
ROOT
ATOM      1  N   UNL     1       2.230   6.508  20.140  0.00  0.00    +0.000 N 
ATOM      2  C   UNL     1       2.928   6.683  18.948  0.00  0.00    +0.000 A 
ATOM      3  N   UNL     1       2.836   7.751  18.216  0.00  0.00    +0.000 NA
ATOM      4  C   UNL     1       1.944   8.758  18.608  0.00  0.00    +0.000 A 
ATOM      5  C   UNL     1       1.684   9.820  17.746  0.00  0.00    +0.000 A 
ATOM      6  C   UNL     1       0.745  10.814  18.094  0.00  0.00    +0.000 A 
ATOM      7  C   UNL     1       0.069  10.746  19.310  0.00  0.00    +0.000 A 
ATOM      8  C   UNL     1       0.332   9.696  20.182  0.00  0.00    +0.000 A 
ATOM      9  C   UNL     1       1.267   8.719  19.819  0.00  0.00    +0.000 A 
ATOM     10  C   UNL     1       1.508   7.568  20.687  0.00  0.00    +0.000 A 
ATOM     11  O   UNL     1       1.030   7.576  21.820  0.00  0.00    +0.000 OA
ENDROOT
BRANCH   1  12
ATOM     12  C   UNL     1       2.168   5.265  20.928  0.00  0.00    +0.000 C 
BRANCH  12  13
ATOM     13  C   UNL     1       1.095   4.286  20.403  0.00  0.00    +0.000 C 
BRANCH  13  14
ATOM     14  C   UNL     1       1.409   2.843  20.763  0.00  0.00    +0.000 C 
BRANCH  14  15
ATOM     15  O   UNL     1       1.082   2.031  19.642  0.00  0.00    +0.000 OA
BRANCH  15  17
ATOM     16  C   UNL     1       2.591   2.030  17.812  0.00  0.00    +0.000 C 
ATOM     17  C   UNL     1       1.372   2.692  18.417  0.00  0.00    +0.000 C 
ENDBRANCH  15  17
ENDBRANCH  14  15
ENDBRANCH  13  14
ENDBRANCH  12  13
ENDBRANCH   1  12
BRANCH   2  18
ATOM     18  S   UNL     1       3.976   5.387  18.383  0.00  0.00    +0.000 S 
BRANCH  18  19
ATOM     19  C   UNL     1       5.398   6.303  17.700  0.00  0.00    +0.000 C 
BRANCH  19  20
ATOM     20  C   UNL     1       5.564   6.137  16.186  0.00  0.00    +0.000 C 
ATOM     21  O   UNL     1       5.071   6.978  15.434  0.00  0.00    +0.000 OA
ATOM     22  N   UNL     1       6.320   5.046  15.784  0.00  0.00    +0.000 N 
ATOM     23  H   UNL     1       6.481   4.345  16.498  0.00  0.00    +0.000 HD
BRANCH  22  24
ATOM     24  C   UNL     1       6.618   4.684  14.453  0.00  0.00    +0.000 A 
ATOM     25  C   UNL     1       7.630   5.292  13.708  0.00  0.00    +0.000 A 
ATOM     26  C   UNL     1       7.793   5.001  12.352  0.00  0.00    +0.000 A 
ATOM     27  C   UNL     1       6.961   4.074  11.732  0.00  0.00    +0.000 A 
ATOM     28  C   UNL     1       6.002   3.398  12.483  0.00  0.00    +0.000 A 
ATOM     29  C   UNL     1       5.840   3.688  13.843  0.00  0.00    +0.000 A 
ENDBRANCH  22  24
ENDBRANCH  19  20
ENDBRANCH  18  19
ENDBRANCH   2  18
TORSDOF 9
ENDMDL
MODEL 5
REMARK VINA RESULT:      -7.2      4.691      7.182
REMARK  Name = 
REMARK  10 active torsions:
REMARK  status: ('A' for Active; 'I' for Inactive)
REMARK    1  A    between atoms: C_1  and  C_2
REMARK    2  A    between atoms: C_2  and  O_3
REMARK    3  A    between atoms: O_3  and  C_4
REMARK    4  A    between atoms: C_4  and  C_5
REMARK    5  A    between atoms: C_5  and  C_6
REMARK    6  A    between atoms: C_6  and  N_7
REMARK    7  A    between atoms: C_8  and  S_9
REMARK    8  A    between atoms: S_9  and  C_10
REMARK    9  A    between atoms: C_10  and  C_11
REMARK   10  A    between atoms: N_13  and  C_14
REMARK                            x       y       z     vdW  Elec       q    Type
REMARK                         _______ _______ _______ _____ _____    ______ ____
ROOT
ATOM      1  N   UNL     1       2.738   5.461  20.132  0.00  0.00    +0.000 N 
ATOM      2  C   UNL     1       3.707   5.557  19.137  0.00  0.00    +0.000 A 
ATOM      3  N   UNL     1       3.828   6.586  18.354  0.00  0.00    +0.000 NA
ATOM      4  C   UNL     1       2.901   7.630  18.471  0.00  0.00    +0.000 A 
ATOM      5  C   UNL     1       2.890   8.649  17.523  0.00  0.00    +0.000 A 
ATOM      6  C   UNL     1       1.928   9.679  17.587  0.00  0.00    +0.000 A 
ATOM      7  C   UNL     1       0.978   9.690  18.606  0.00  0.00    +0.000 A 
ATOM      8  C   UNL     1       0.990   8.683  19.564  0.00  0.00    +0.000 A 
ATOM      9  C   UNL     1       1.953   7.669  19.484  0.00  0.00    +0.000 A 
ATOM     10  C   UNL     1       1.941   6.562  20.438  0.00  0.00    +0.000 A 
ATOM     11  O   UNL     1       1.206   6.641  21.421  0.00  0.00    +0.000 OA
ENDROOT
BRANCH   1  12
ATOM     12  C   UNL     1       2.449   4.263  20.939  0.00  0.00    +0.000 C 
BRANCH  12  13
ATOM     13  C   UNL     1       1.149   3.554  20.500  0.00  0.00    +0.000 C 
BRANCH  13  14
ATOM     14  C   UNL     1       1.426   2.262  19.748  0.00  0.00    +0.000 C 
BRANCH  14  15
ATOM     15  O   UNL     1       1.137   2.486  18.373  0.00  0.00    +0.000 OA
BRANCH  15  17
ATOM     16  C   UNL     1       3.273   1.457  18.283  0.00  0.00    +0.000 C 
ATOM     17  C   UNL     1       2.306   2.378  17.570  0.00  0.00    +0.000 C 
ENDBRANCH  15  17
ENDBRANCH  14  15
ENDBRANCH  13  14
ENDBRANCH  12  13
ENDBRANCH   1  12
BRANCH   2  18
ATOM     18  S   UNL     1       4.817   4.211  18.902  0.00  0.00    +0.000 S 
BRANCH  18  19
ATOM     19  C   UNL     1       6.380   5.060  18.498  0.00  0.00    +0.000 C 
BRANCH  19  20
ATOM     20  C   UNL     1       6.918   4.723  17.103  0.00  0.00    +0.000 C 
ATOM     21  O   UNL     1       8.056   4.267  16.994  0.00  0.00    +0.000 OA
ATOM     22  N   UNL     1       6.029   4.920  16.057  0.00  0.00    +0.000 N 
ATOM     23  H   UNL     1       5.216   5.484  16.280  0.00  0.00    +0.000 HD
BRANCH  22  24
ATOM     24  C   UNL     1       6.284   4.680  14.690  0.00  0.00    +0.000 A 
ATOM     25  C   UNL     1       5.517   3.808  13.916  0.00  0.00    +0.000 A 
ATOM     26  C   UNL     1       5.893   3.492  12.609  0.00  0.00    +0.000 A 
ATOM     27  C   UNL     1       7.029   4.070  12.052  0.00  0.00    +0.000 A 
ATOM     28  C   UNL     1       7.757   5.006  12.784  0.00  0.00    +0.000 A 
ATOM     29  C   UNL     1       7.378   5.324  14.093  0.00  0.00    +0.000 A 
ENDBRANCH  22  24
ENDBRANCH  19  20
ENDBRANCH  18  19
ENDBRANCH   2  18
TORSDOF 9
ENDMDL
MODEL 6
REMARK VINA RESULT:      -7.2      5.312      8.779
REMARK  Name = 
REMARK  10 active torsions:
REMARK  status: ('A' for Active; 'I' for Inactive)
REMARK    1  A    between atoms: C_1  and  C_2
REMARK    2  A    between atoms: C_2  and  O_3
REMARK    3  A    between atoms: O_3  and  C_4
REMARK    4  A    between atoms: C_4  and  C_5
REMARK    5  A    between atoms: C_5  and  C_6
REMARK    6  A    between atoms: C_6  and  N_7
REMARK    7  A    between atoms: C_8  and  S_9
REMARK    8  A    between atoms: S_9  and  C_10
REMARK    9  A    between atoms: C_10  and  C_11
REMARK   10  A    between atoms: N_13  and  C_14
REMARK                            x       y       z     vdW  Elec       q    Type
REMARK                         _______ _______ _______ _____ _____    ______ ____
ROOT
ATOM      1  N   UNL     1       3.900   6.113  18.025  0.00  0.00    +0.000 N 
ATOM      2  C   UNL     1       2.765   6.820  18.417  0.00  0.00    +0.000 A 
ATOM      3  N   UNL     1       1.915   6.378  19.293  0.00  0.00    +0.000 NA
ATOM      4  C   UNL     1       2.111   5.100  19.833  0.00  0.00    +0.000 A 
ATOM      5  C   UNL     1       1.119   4.528  20.624  0.00  0.00    +0.000 A 
ATOM      6  C   UNL     1       1.268   3.219  21.129  0.00  0.00    +0.000 A 
ATOM      7  C   UNL     1       2.416   2.484  20.844  0.00  0.00    +0.000 A 
ATOM      8  C   UNL     1       3.418   3.052  20.066  0.00  0.00    +0.000 A 
ATOM      9  C   UNL     1       3.252   4.352  19.574  0.00  0.00    +0.000 A 
ATOM     10  C   UNL     1       4.259   4.944  18.695  0.00  0.00    +0.000 A 
ATOM     11  O   UNL     1       5.335   4.365  18.561  0.00  0.00    +0.000 OA
ENDROOT
BRANCH   1  12
ATOM     12  C   UNL     1       4.809   6.483  16.928  0.00  0.00    +0.000 C 
BRANCH  12  13
ATOM     13  C   UNL     1       6.090   7.182  17.432  0.00  0.00    +0.000 C 
BRANCH  13  14
ATOM     14  C   UNL     1       7.352   6.451  17.002  0.00  0.00    +0.000 C 
BRANCH  14  15
ATOM     15  O   UNL     1       7.136   5.938  15.693  0.00  0.00    +0.000 OA
BRANCH  15  17
ATOM     16  C   UNL     1       6.414   4.059  14.439  0.00  0.00    +0.000 C 
ATOM     17  C   UNL     1       7.147   4.517  15.682  0.00  0.00    +0.000 C 
ENDBRANCH  15  17
ENDBRANCH  14  15
ENDBRANCH  13  14
ENDBRANCH  12  13
ENDBRANCH   1  12
BRANCH   2  18
ATOM     18  S   UNL     1       2.444   8.383  17.675  0.00  0.00    +0.000 S 
BRANCH  18  19
ATOM     19  C   UNL     1       1.590   9.282  19.013  0.00  0.00    +0.000 C 
BRANCH  19  20
ATOM     20  C   UNL     1       0.413  10.133  18.525  0.00  0.00    +0.000 C 
ATOM     21  O   UNL     1       0.478  11.358  18.624  0.00  0.00    +0.000 OA
ATOM     22  N   UNL     1      -0.635   9.430  17.951  0.00  0.00    +0.000 N 
ATOM     23  H   UNL     1      -0.632   8.430  18.125  0.00  0.00    +0.000 HD
BRANCH  22  24
ATOM     24  C   UNL     1      -1.822   9.983  17.425  0.00  0.00    +0.000 A 
ATOM     25  C   UNL     1      -2.217   9.812  16.098  0.00  0.00    +0.000 A 
ATOM     26  C   UNL     1      -3.322  10.496  15.586  0.00  0.00    +0.000 A 
ATOM     27  C   UNL     1      -4.062  11.339  16.409  0.00  0.00    +0.000 A 
ATOM     28  C   UNL     1      -3.729  11.454  17.757  0.00  0.00    +0.000 A 
ATOM     29  C   UNL     1      -2.623  10.766  18.270  0.00  0.00    +0.000 A 
ENDBRANCH  22  24
ENDBRANCH  19  20
ENDBRANCH  18  19
ENDBRANCH   2  18
TORSDOF 9
ENDMDL
MODEL 7
REMARK VINA RESULT:      -7.2      1.238      1.796
REMARK  Name = 
REMARK  10 active torsions:
REMARK  status: ('A' for Active; 'I' for Inactive)
REMARK    1  A    between atoms: C_1  and  C_2
REMARK    2  A    between atoms: C_2  and  O_3
REMARK    3  A    between atoms: O_3  and  C_4
REMARK    4  A    between atoms: C_4  and  C_5
REMARK    5  A    between atoms: C_5  and  C_6
REMARK    6  A    between atoms: C_6  and  N_7
REMARK    7  A    between atoms: C_8  and  S_9
REMARK    8  A    between atoms: S_9  and  C_10
REMARK    9  A    between atoms: C_10  and  C_11
REMARK   10  A    between atoms: N_13  and  C_14
REMARK                            x       y       z     vdW  Elec       q    Type
REMARK                         _______ _______ _______ _____ _____    ______ ____
ROOT
ATOM      1  N   UNL     1       5.945   4.956  17.161  0.00  0.00    +0.000 N 
ATOM      2  C   UNL     1       7.010   5.810  16.885  0.00  0.00    +0.000 A 
ATOM      3  N   UNL     1       7.520   5.957  15.700  0.00  0.00    +0.000 NA
ATOM      4  C   UNL     1       7.017   5.175  14.652  0.00  0.00    +0.000 A 
ATOM      5  C   UNL     1       7.669   5.172  13.422  0.00  0.00    +0.000 A 
ATOM      6  C   UNL     1       7.215   4.348  12.371  0.00  0.00    +0.000 A 
ATOM      7  C   UNL     1       6.103   3.528  12.551  0.00  0.00    +0.000 A 
ATOM      8  C   UNL     1       5.439   3.535  13.771  0.00  0.00    +0.000 A 
ATOM      9  C   UNL     1       5.903   4.360  14.803  0.00  0.00    +0.000 A 
ATOM     10  C   UNL     1       5.264   4.330  16.117  0.00  0.00    +0.000 A 
ATOM     11  O   UNL     1       4.200   3.727  16.240  0.00  0.00    +0.000 OA
ENDROOT
BRANCH   1  12
ATOM     12  C   UNL     1       5.430   4.626  18.500  0.00  0.00    +0.000 C 
BRANCH  12  13
ATOM     13  C   UNL     1       4.472   5.707  19.048  0.00  0.00    +0.000 C 
BRANCH  13  14
ATOM     14  C   UNL     1       3.015   5.277  18.970  0.00  0.00    +0.000 C 
BRANCH  14  15
ATOM     15  O   UNL     1       2.304   6.269  18.239  0.00  0.00    +0.000 OA
BRANCH  15  17
ATOM     16  C   UNL     1       1.961   8.577  17.814  0.00  0.00    +0.000 C 
ATOM     17  C   UNL     1       2.474   7.559  18.810  0.00  0.00    +0.000 C 
ENDBRANCH  15  17
ENDBRANCH  14  15
ENDBRANCH  13  14
ENDBRANCH  12  13
ENDBRANCH   1  12
BRANCH   2  18
ATOM     18  S   UNL     1       7.726   6.725  18.207  0.00  0.00    +0.000 S 
BRANCH  18  19
ATOM     19  C   UNL     1       7.658   8.436  17.581  0.00  0.00    +0.000 C 
BRANCH  19  20
ATOM     20  C   UNL     1       8.584   9.400  18.330  0.00  0.00    +0.000 C 
ATOM     21  O   UNL     1       9.080   9.045  19.399  0.00  0.00    +0.000 OA
ATOM     22  N   UNL     1       8.830  10.607  17.694  0.00  0.00    +0.000 N 
ATOM     23  H   UNL     1       8.198  10.832  16.933  0.00  0.00    +0.000 HD
BRANCH  22  24
ATOM     24  C   UNL     1       9.647  11.653  18.175  0.00  0.00    +0.000 A 
ATOM     25  C   UNL     1      10.703  11.443  19.062  0.00  0.00    +0.000 A 
ATOM     26  C   UNL     1      11.392  12.522  19.623  0.00  0.00    +0.000 A 
ATOM     27  C   UNL     1      11.046  13.824  19.278  0.00  0.00    +0.000 A 
ATOM     28  C   UNL     1      10.049  14.045  18.330  0.00  0.00    +0.000 A 
ATOM     29  C   UNL     1       9.361  12.963  17.767  0.00  0.00    +0.000 A 
ENDBRANCH  22  24
ENDBRANCH  19  20
ENDBRANCH  18  19
ENDBRANCH   2  18
TORSDOF 9
ENDMDL
MODEL 8
REMARK VINA RESULT:      -7.2      4.915      8.136
REMARK  Name = 
REMARK  10 active torsions:
REMARK  status: ('A' for Active; 'I' for Inactive)
REMARK    1  A    between atoms: C_1  and  C_2
REMARK    2  A    between atoms: C_2  and  O_3
REMARK    3  A    between atoms: O_3  and  C_4
REMARK    4  A    between atoms: C_4  and  C_5
REMARK    5  A    between atoms: C_5  and  C_6
REMARK    6  A    between atoms: C_6  and  N_7
REMARK    7  A    between atoms: C_8  and  S_9
REMARK    8  A    between atoms: S_9  and  C_10
REMARK    9  A    between atoms: C_10  and  C_11
REMARK   10  A    between atoms: N_13  and  C_14
REMARK                            x       y       z     vdW  Elec       q    Type
REMARK                         _______ _______ _______ _____ _____    ______ ____
ROOT
ATOM      1  N   UNL     1       4.435   5.866  18.429  0.00  0.00    +0.000 N 
ATOM      2  C   UNL     1       3.269   6.617  18.550  0.00  0.00    +0.000 A 
ATOM      3  N   UNL     1       2.238   6.230  19.239  0.00  0.00    +0.000 NA
ATOM      4  C   UNL     1       2.272   4.966  19.844  0.00  0.00    +0.000 A 
ATOM      5  C   UNL     1       1.116   4.450  20.422  0.00  0.00    +0.000 A 
ATOM      6  C   UNL     1       1.110   3.156  20.984  0.00  0.00    +0.000 A 
ATOM      7  C   UNL     1       2.266   2.380  20.970  0.00  0.00    +0.000 A 
ATOM      8  C   UNL     1       3.428   2.892  20.406  0.00  0.00    +0.000 A 
ATOM      9  C   UNL     1       3.415   4.179  19.853  0.00  0.00    +0.000 A 
ATOM     10  C   UNL     1       4.605   4.711  19.192  0.00  0.00    +0.000 A 
ATOM     11  O   UNL     1       5.664   4.098  19.305  0.00  0.00    +0.000 OA
ENDROOT
BRANCH   1  12
ATOM     12  C   UNL     1       5.568   6.172  17.539  0.00  0.00    +0.000 C 
BRANCH  12  13
ATOM     13  C   UNL     1       5.551   5.325  16.248  0.00  0.00    +0.000 C 
BRANCH  13  14
ATOM     14  C   UNL     1       6.950   5.056  15.717  0.00  0.00    +0.000 C 
BRANCH  14  15
ATOM     15  O   UNL     1       6.845   4.112  14.659  0.00  0.00    +0.000 OA
BRANCH  15  17
ATOM     16  C   UNL     1       5.713   3.517  12.661  0.00  0.00    +0.000 C 
ATOM     17  C   UNL     1       5.585   4.199  14.007  0.00  0.00    +0.000 C 
ENDBRANCH  15  17
ENDBRANCH  14  15
ENDBRANCH  13  14
ENDBRANCH  12  13
ENDBRANCH   1  12
BRANCH   2  18
ATOM     18  S   UNL     1       3.166   8.162  17.714  0.00  0.00    +0.000 S 
BRANCH  18  19
ATOM     19  C   UNL     1       1.385   8.541  17.812  0.00  0.00    +0.000 C 
BRANCH  19  20
ATOM     20  C   UNL     1       1.076   9.843  18.560  0.00  0.00    +0.000 C 
ATOM     21  O   UNL     1       1.774  10.834  18.349  0.00  0.00    +0.000 OA
ATOM     22  N   UNL     1      -0.028   9.803  19.398  0.00  0.00    +0.000 N 
ATOM     23  H   UNL     1      -0.370   8.874  19.619  0.00  0.00    +0.000 HD
BRANCH  22  24
ATOM     24  C   UNL     1      -0.516  10.867  20.187  0.00  0.00    +0.000 A 
ATOM     25  C   UNL     1      -0.033  11.148  21.465  0.00  0.00    +0.000 A 
ATOM     26  C   UNL     1      -0.644  12.119  22.263  0.00  0.00    +0.000 A 
ATOM     27  C   UNL     1      -1.729  12.839  21.776  0.00  0.00    +0.000 A 
ATOM     28  C   UNL     1      -2.168  12.628  20.470  0.00  0.00    +0.000 A 
ATOM     29  C   UNL     1      -1.553  11.657  19.671  0.00  0.00    +0.000 A 
ENDBRANCH  22  24
ENDBRANCH  19  20
ENDBRANCH  18  19
ENDBRANCH   2  18
TORSDOF 9
ENDMDL
MODEL 9
REMARK VINA RESULT:      -7.2      4.971      7.569
REMARK  Name = 
REMARK  10 active torsions:
REMARK  status: ('A' for Active; 'I' for Inactive)
REMARK    1  A    between atoms: C_1  and  C_2
REMARK    2  A    between atoms: C_2  and  O_3
REMARK    3  A    between atoms: O_3  and  C_4
REMARK    4  A    between atoms: C_4  and  C_5
REMARK    5  A    between atoms: C_5  and  C_6
REMARK    6  A    between atoms: C_6  and  N_7
REMARK    7  A    between atoms: C_8  and  S_9
REMARK    8  A    between atoms: S_9  and  C_10
REMARK    9  A    between atoms: C_10  and  C_11
REMARK   10  A    between atoms: N_13  and  C_14
REMARK                            x       y       z     vdW  Elec       q    Type
REMARK                         _______ _______ _______ _____ _____    ______ ____
ROOT
ATOM      1  N   UNL     1       4.457   5.627  18.368  0.00  0.00    +0.000 N 
ATOM      2  C   UNL     1       3.292   6.386  18.450  0.00  0.00    +0.000 A 
ATOM      3  N   UNL     1       2.260   6.037  19.157  0.00  0.00    +0.000 NA
ATOM      4  C   UNL     1       2.290   4.805  19.825  0.00  0.00    +0.000 A 
ATOM      5  C   UNL     1       1.132   4.321  20.427  0.00  0.00    +0.000 A 
ATOM      6  C   UNL     1       1.123   3.057  21.054  0.00  0.00    +0.000 A 
ATOM      7  C   UNL     1       2.277   2.279  21.080  0.00  0.00    +0.000 A 
ATOM      8  C   UNL     1       3.441   2.760  20.492  0.00  0.00    +0.000 A 
ATOM      9  C   UNL     1       3.432   4.017  19.875  0.00  0.00    +0.000 A 
ATOM     10  C   UNL     1       4.623   4.512  19.189  0.00  0.00    +0.000 A 
ATOM     11  O   UNL     1       5.681   3.903  19.333  0.00  0.00    +0.000 OA
ENDROOT
BRANCH   1  12
ATOM     12  C   UNL     1       5.591   5.885  17.465  0.00  0.00    +0.000 C 
BRANCH  12  13
ATOM     13  C   UNL     1       5.560   4.990  16.207  0.00  0.00    +0.000 C 
BRANCH  13  14
ATOM     14  C   UNL     1       6.951   4.548  15.781  0.00  0.00    +0.000 C 
BRANCH  14  15
ATOM     15  O   UNL     1       7.012   4.599  14.361  0.00  0.00    +0.000 OA
BRANCH  15  17
ATOM     16  C   UNL     1       6.292   3.482  12.397  0.00  0.00    +0.000 C 
ATOM     17  C   UNL     1       5.881   3.976  13.767  0.00  0.00    +0.000 C 
ENDBRANCH  15  17
ENDBRANCH  14  15
ENDBRANCH  13  14
ENDBRANCH  12  13
ENDBRANCH   1  12
BRANCH   2  18
ATOM     18  S   UNL     1       3.193   7.887  17.537  0.00  0.00    +0.000 S 
BRANCH  18  19
ATOM     19  C   UNL     1       1.679   8.652  18.205  0.00  0.00    +0.000 C 
BRANCH  19  20
ATOM     20  C   UNL     1       1.754  10.180  18.298  0.00  0.00    +0.000 C 
ATOM     21  O   UNL     1       2.544  10.785  17.574  0.00  0.00    +0.000 OA
ATOM     22  N   UNL     1       0.862  10.769  19.181  0.00  0.00    +0.000 N 
ATOM     23  H   UNL     1       0.426  10.136  19.843  0.00  0.00    +0.000 HD
BRANCH  22  24
ATOM     24  C   UNL     1       0.734  12.150  19.440  0.00  0.00    +0.000 A 
ATOM     25  C   UNL     1       1.351  12.781  20.521  0.00  0.00    +0.000 A 
ATOM     26  C   UNL     1       1.081  14.118  20.819  0.00  0.00    +0.000 A 
ATOM     27  C   UNL     1       0.208  14.848  20.018  0.00  0.00    +0.000 A 
ATOM     28  C   UNL     1      -0.350  14.255  18.887  0.00  0.00    +0.000 A 
ATOM     29  C   UNL     1      -0.076  12.915  18.588  0.00  0.00    +0.000 A 
ENDBRANCH  22  24
ENDBRANCH  19  20
ENDBRANCH  18  19
ENDBRANCH   2  18
TORSDOF 9
ENDMDL
