MODEL 1
REMARK VINA RESULT:      -5.8      0.000      0.000
REMARK  Name = 
REMARK  12 active torsions:
REMARK  status: ('A' for Active; 'I' for Inactive)
REMARK    1  A    between atoms: C_1  and  C_2
REMARK    2  A    between atoms: C_2  and  C_3
REMARK    3  A    between atoms: C_8  and  O_9
REMARK    4  A    between atoms: C_15  and  C_16
REMARK    5  A    between atoms: C_17  and  O_18
REMARK    6  A    between atoms: O_18  and  C_19
REMARK    7  A    between atoms: C_23  and  C_24
REMARK    8  A    between atoms: C_24  and  C_28
REMARK    9  A    between atoms: C_25  and  O_26
REMARK   10  A    between atoms: O_26  and  C_27
REMARK   11  A    between atoms: C_28  and  O_30
REMARK   12  A    between atoms: O_30  and  C_31
REMARK                            x       y       z     vdW  Elec       q    Type
REMARK                         _______ _______ _______ _____ _____    ______ ____
ROOT
ATOM      1  C   UNL     1      -5.930  13.339  21.225  0.00  0.00    +0.000 C 
ATOM      2  C   UNL     1      -5.076  13.712  22.483  0.00  0.00    +0.000 C 
ATOM      3  N   UNL     1      -3.632  13.913  22.279  0.00  0.00    +0.000 NA
ATOM      4  C   UNL     1      -2.817  13.812  23.541  0.00  0.00    +0.000 C 
ATOM      5  C   UNL     1      -1.226  13.645  23.409  0.00  0.00    +0.000 C 
ATOM      6  C   UNL     1      -0.775  12.762  22.140  0.00  0.00    +0.000 C 
ATOM      7  C   UNL     1      -1.656  13.528  21.176  0.00  0.00    +0.000 C 
ATOM      8  N   UNL     1      -1.063  14.651  20.797  0.00  0.00    +0.000 NA
ATOM      9  C   UNL     1       0.330  14.410  21.132  0.00  0.00    +0.000 A 
ATOM     10  C   UNL     1       1.459  15.141  20.841  0.00  0.00    +0.000 A 
ATOM     11  C   UNL     1       2.478  14.458  20.186  0.00  0.00    +0.000 A 
ATOM     12  C   UNL     1       2.126  13.218  19.632  0.00  0.00    +0.000 A 
ATOM     13  C   UNL     1       2.571  12.978  18.205  0.00  0.00    +0.000 C 
ATOM     14  C   UNL     1       1.029  12.517  20.204  0.00  0.00    +0.000 A 
ATOM     15  C   UNL     1       0.478  13.063  21.359  0.00  0.00    +0.000 A 
ATOM     16  C   UNL     1      -3.068  13.041  21.265  0.00  0.00    +0.000 C 
ATOM     17  C   UNL     1      -3.839  12.723  19.997  0.00  0.00    +0.000 C 
ATOM     18  C   UNL     1      -5.236  12.198  20.423  0.00  0.00    +0.000 C 
ENDROOT
BRANCH   1  20
ATOM     19  C   UNL     1      -6.481  15.846  21.000  0.00  0.00    +0.000 C 
ATOM     20  C   UNL     1      -6.259  14.524  20.291  0.00  0.00    +0.000 C 
ENDBRANCH   1  20
BRANCH   6  21
ATOM     21  O   UNL     1      -0.839  11.414  22.502  0.00  0.00    +0.000 OA
ATOM     22  H   UNL     1      -1.548  10.984  21.997  0.00  0.00    +0.000 HD
ENDBRANCH   6  21
BRANCH  14  23
ATOM     23  O   UNL     1       0.249  11.946  19.204  0.00  0.00    +0.000 OA
ATOM     24  C   UNL     1      -0.020  10.563  19.183  0.00  0.00    +0.000 C 
ENDBRANCH  14  23
BRANCH  18  25
ATOM     25  C   UNL     1      -6.119  11.563  19.342  0.00  0.00    +0.000 C 
ATOM     26  C   UNL     1      -7.114  10.694  19.608  0.00  0.00    +0.000 C 
BRANCH  26  27
ATOM     27  O   UNL     1      -7.472  10.295  20.874  0.00  0.00    +0.000 OA
ATOM     28  C   UNL     1      -7.915   8.935  20.906  0.00  0.00    +0.000 C 
ENDBRANCH  26  27
BRANCH  25  29
ATOM     29  C   UNL     1      -5.877  11.874  17.907  0.00  0.00    +0.000 C 
ATOM     30  O   UNL     1      -6.262  12.890  17.347  0.00  0.00    +0.000 OA
BRANCH  29  31
ATOM     31  O   UNL     1      -5.213  10.855  17.284  0.00  0.00    +0.000 OA
ATOM     32  C   UNL     1      -4.146  11.285  16.441  0.00  0.00    +0.000 C 
ENDBRANCH  29  31
ENDBRANCH  25  29
ENDBRANCH  18  25
TORSDOF 7
ENDMDL
MODEL 2
REMARK VINA RESULT:      -5.7      2.523      5.465
REMARK  Name = 
REMARK  12 active torsions:
REMARK  status: ('A' for Active; 'I' for Inactive)
REMARK    1  A    between atoms: C_1  and  C_2
REMARK    2  A    between atoms: C_2  and  C_3
REMARK    3  A    between atoms: C_8  and  O_9
REMARK    4  A    between atoms: C_15  and  C_16
REMARK    5  A    between atoms: C_17  and  O_18
REMARK    6  A    between atoms: O_18  and  C_19
REMARK    7  A    between atoms: C_23  and  C_24
REMARK    8  A    between atoms: C_24  and  C_28
REMARK    9  A    between atoms: C_25  and  O_26
REMARK   10  A    between atoms: O_26  and  C_27
REMARK   11  A    between atoms: C_28  and  O_30
REMARK   12  A    between atoms: O_30  and  C_31
REMARK                            x       y       z     vdW  Elec       q    Type
REMARK                         _______ _______ _______ _____ _____    ______ ____
ROOT
ATOM      1  C   UNL     1      -5.405  11.528  18.513  0.00  0.00    +0.000 C 
ATOM      2  C   UNL     1      -6.474  11.456  19.656  0.00  0.00    +0.000 C 
ATOM      3  N   UNL     1      -6.347  12.427  20.755  0.00  0.00    +0.000 NA
ATOM      4  C   UNL     1      -7.085  12.031  22.007  0.00  0.00    +0.000 C 
ATOM      5  C   UNL     1      -6.734  12.798  23.373  0.00  0.00    +0.000 C 
ATOM      6  C   UNL     1      -5.182  13.204  23.502  0.00  0.00    +0.000 C 
ATOM      7  C   UNL     1      -5.131  13.817  22.119  0.00  0.00    +0.000 C 
ATOM      8  N   UNL     1      -5.613  15.051  22.138  0.00  0.00    +0.000 NA
ATOM      9  C   UNL     1      -5.553  15.398  23.548  0.00  0.00    +0.000 A 
ATOM     10  C   UNL     1      -5.771  16.600  24.182  0.00  0.00    +0.000 A 
ATOM     11  C   UNL     1      -4.739  17.059  24.994  0.00  0.00    +0.000 A 
ATOM     12  C   UNL     1      -3.502  16.418  24.832  0.00  0.00    +0.000 A 
ATOM     13  C   UNL     1      -2.296  17.324  24.700  0.00  0.00    +0.000 C 
ATOM     14  C   UNL     1      -3.498  15.087  24.332  0.00  0.00    +0.000 A 
ATOM     15  C   UNL     1      -4.741  14.482  24.170  0.00  0.00    +0.000 A 
ATOM     16  C   UNL     1      -4.970  12.748  21.083  0.00  0.00    +0.000 C 
ATOM     17  C   UNL     1      -3.927  12.902  19.992  0.00  0.00    +0.000 C 
ATOM     18  C   UNL     1      -3.973  11.619  19.121  0.00  0.00    +0.000 C 
ENDROOT
BRANCH   1  20
ATOM     19  C   UNL     1      -7.075  13.048  17.274  0.00  0.00    +0.000 C 
ATOM     20  C   UNL     1      -5.625  12.666  17.493  0.00  0.00    +0.000 C 
ENDBRANCH   1  20
BRANCH   6  21
ATOM     21  O   UNL     1      -4.482  12.102  23.997  0.00  0.00    +0.000 OA
ATOM     22  H   UNL     1      -5.098  11.358  24.105  0.00  0.00    +0.000 HD
ENDBRANCH   6  21
BRANCH  14  23
ATOM     23  O   UNL     1      -2.463  14.918  23.419  0.00  0.00    +0.000 OA
ATOM     24  C   UNL     1      -1.492  13.912  23.588  0.00  0.00    +0.000 C 
ENDBRANCH  14  23
BRANCH  18  25
ATOM     25  C   UNL     1      -2.845  11.406  18.105  0.00  0.00    +0.000 C 
ATOM     26  C   UNL     1      -1.672  12.069  18.146  0.00  0.00    +0.000 C 
BRANCH  26  27
ATOM     27  O   UNL     1      -1.338  12.989  19.110  0.00  0.00    +0.000 OA
ATOM     28  C   UNL     1      -0.290  13.863  18.682  0.00  0.00    +0.000 C 
ENDBRANCH  26  27
BRANCH  25  29
ATOM     29  C   UNL     1      -3.026  10.447  16.983  0.00  0.00    +0.000 C 
ATOM     30  O   UNL     1      -3.204   9.246  17.122  0.00  0.00    +0.000 OA
BRANCH  29  31
ATOM     31  O   UNL     1      -2.919  11.074  15.773  0.00  0.00    +0.000 OA
ATOM     32  C   UNL     1      -3.047  10.202  14.651  0.00  0.00    +0.000 C 
ENDBRANCH  29  31
ENDBRANCH  25  29
ENDBRANCH  18  25
TORSDOF 7
ENDMDL
MODEL 3
REMARK VINA RESULT:      -5.5      3.324      7.163
REMARK  Name = 
REMARK  12 active torsions:
REMARK  status: ('A' for Active; 'I' for Inactive)
REMARK    1  A    between atoms: C_1  and  C_2
REMARK    2  A    between atoms: C_2  and  C_3
REMARK    3  A    between atoms: C_8  and  O_9
REMARK    4  A    between atoms: C_15  and  C_16
REMARK    5  A    between atoms: C_17  and  O_18
REMARK    6  A    between atoms: O_18  and  C_19
REMARK    7  A    between atoms: C_23  and  C_24
REMARK    8  A    between atoms: C_24  and  C_28
REMARK    9  A    between atoms: C_25  and  O_26
REMARK   10  A    between atoms: O_26  and  C_27
REMARK   11  A    between atoms: C_28  and  O_30
REMARK   12  A    between atoms: O_30  and  C_31
REMARK                            x       y       z     vdW  Elec       q    Type
REMARK                         _______ _______ _______ _____ _____    ______ ____
ROOT
ATOM      1  C   UNL     1       0.708  17.194  19.977  0.00  0.00    +0.000 C 
ATOM      2  C   UNL     1      -0.704  16.816  20.542  0.00  0.00    +0.000 C 
ATOM      3  N   UNL     1      -0.889  15.435  21.014  0.00  0.00    +0.000 NA
ATOM      4  C   UNL     1      -2.331  15.010  21.106  0.00  0.00    +0.000 C 
ATOM      5  C   UNL     1      -2.656  13.444  21.248  0.00  0.00    +0.000 C 
ATOM      6  C   UNL     1      -1.637  12.500  20.436  0.00  0.00    +0.000 C 
ATOM      7  C   UNL     1      -0.409  13.190  20.991  0.00  0.00    +0.000 C 
ATOM      8  N   UNL     1      -0.119  12.724  22.197  0.00  0.00    +0.000 NA
ATOM      9  C   UNL     1      -0.843  11.466  22.240  0.00  0.00    +0.000 A 
ATOM     10  C   UNL     1      -0.817  10.450  23.169  0.00  0.00    +0.000 A 
ATOM     11  C   UNL     1      -0.525   9.182  22.680  0.00  0.00    +0.000 A 
ATOM     12  C   UNL     1       0.002   9.133  21.381  0.00  0.00    +0.000 A 
ATOM     13  C   UNL     1       1.227   8.262  21.194  0.00  0.00    +0.000 C 
ATOM     14  C   UNL     1      -0.299  10.203  20.495  0.00  0.00    +0.000 A 
ATOM     15  C   UNL     1      -1.210  11.150  20.955  0.00  0.00    +0.000 A 
ATOM     16  C   UNL     1      -0.143  14.458  20.242  0.00  0.00    +0.000 C 
ATOM     17  C   UNL     1       1.258  14.764  19.746  0.00  0.00    +0.000 C 
ATOM     18  C   UNL     1       1.193  16.107  18.971  0.00  0.00    +0.000 C 
ENDROOT
BRANCH   1  20
ATOM     19  C   UNL     1       1.259  17.989  22.364  0.00  0.00    +0.000 C 
ATOM     20  C   UNL     1       1.788  17.449  21.050  0.00  0.00    +0.000 C 
ENDBRANCH   1  20
BRANCH   6  21
ATOM     21  O   UNL     1      -2.074  12.422  19.112  0.00  0.00    +0.000 OA
ATOM     22  H   UNL     1      -1.963  13.290  18.690  0.00  0.00    +0.000 HD
ENDBRANCH   6  21
BRANCH  14  23
ATOM     23  O   UNL     1       0.827  10.550  19.757  0.00  0.00    +0.000 OA
ATOM     24  C   UNL     1       0.846  10.442  18.353  0.00  0.00    +0.000 C 
ENDBRANCH  14  23
BRANCH  18  25
ATOM     25  C   UNL     1       2.420  16.515  18.148  0.00  0.00    +0.000 C 
ATOM     26  C   UNL     1       2.461  17.612  17.366  0.00  0.00    +0.000 C 
BRANCH  26  27
ATOM     27  O   UNL     1       1.425  18.505  17.233  0.00  0.00    +0.000 OA
ATOM     28  C   UNL     1       0.791  18.408  15.954  0.00  0.00    +0.000 C 
ENDBRANCH  26  27
BRANCH  25  29
ATOM     29  C   UNL     1       3.642  15.666  18.164  0.00  0.00    +0.000 C 
ATOM     30  O   UNL     1       3.738  14.584  17.604  0.00  0.00    +0.000 OA
BRANCH  29  31
ATOM     31  O   UNL     1       4.627  16.228  18.927  0.00  0.00    +0.000 OA
ATOM     32  C   UNL     1       4.842  15.573  20.175  0.00  0.00    +0.000 C 
ENDBRANCH  29  31
ENDBRANCH  25  29
ENDBRANCH  18  25
TORSDOF 7
ENDMDL
MODEL 4
REMARK VINA RESULT:      -5.4      2.692      7.064
REMARK  Name = 
REMARK  12 active torsions:
REMARK  status: ('A' for Active; 'I' for Inactive)
REMARK    1  A    between atoms: C_1  and  C_2
REMARK    2  A    between atoms: C_2  and  C_3
REMARK    3  A    between atoms: C_8  and  O_9
REMARK    4  A    between atoms: C_15  and  C_16
REMARK    5  A    between atoms: C_17  and  O_18
REMARK    6  A    between atoms: O_18  and  C_19
REMARK    7  A    between atoms: C_23  and  C_24
REMARK    8  A    between atoms: C_24  and  C_28
REMARK    9  A    between atoms: C_25  and  O_26
REMARK   10  A    between atoms: O_26  and  C_27
REMARK   11  A    between atoms: C_28  and  O_30
REMARK   12  A    between atoms: O_30  and  C_31
REMARK                            x       y       z     vdW  Elec       q    Type
REMARK                         _______ _______ _______ _____ _____    ______ ____
ROOT
ATOM      1  C   UNL     1      -2.659  10.182  17.577  0.00  0.00    +0.000 C 
ATOM      2  C   UNL     1      -4.162   9.826  17.840  0.00  0.00    +0.000 C 
ATOM      3  N   UNL     1      -5.039  10.915  18.296  0.00  0.00    +0.000 NA
ATOM      4  C   UNL     1      -6.307  10.442  18.956  0.00  0.00    +0.000 C 
ATOM      5  C   UNL     1      -7.160  11.498  19.813  0.00  0.00    +0.000 C 
ATOM      6  C   UNL     1      -6.253  12.574  20.595  0.00  0.00    +0.000 C 
ATOM      7  C   UNL     1      -5.428  12.907  19.370  0.00  0.00    +0.000 C 
ATOM      8  N   UNL     1      -6.067  13.777  18.601  0.00  0.00    +0.000 NA
ATOM      9  C   UNL     1      -7.055  14.341  19.505  0.00  0.00    +0.000 A 
ATOM     10  C   UNL     1      -7.916  15.402  19.339  0.00  0.00    +0.000 A 
ATOM     11  C   UNL     1      -7.845  16.403  20.303  0.00  0.00    +0.000 A 
ATOM     12  C   UNL     1      -6.719  16.369  21.138  0.00  0.00    +0.000 A 
ATOM     13  C   UNL     1      -5.995  17.685  21.330  0.00  0.00    +0.000 C 
ATOM     14  C   UNL     1      -6.069  15.121  21.336  0.00  0.00    +0.000 A 
ATOM     15  C   UNL     1      -6.692  14.004  20.786  0.00  0.00    +0.000 A 
ATOM     16  C   UNL     1      -4.369  11.871  19.159  0.00  0.00    +0.000 C 
ATOM     17  C   UNL     1      -2.939  12.296  18.885  0.00  0.00    +0.000 C 
ATOM     18  C   UNL     1      -2.085  11.005  18.768  0.00  0.00    +0.000 C 
ENDROOT
BRANCH   1  20
ATOM     19  C   UNL     1      -2.794  10.139  15.005  0.00  0.00    +0.000 C 
ATOM     20  C   UNL     1      -2.391  10.913  16.244  0.00  0.00    +0.000 C 
ENDBRANCH   1  20
BRANCH   6  21
ATOM     21  O   UNL     1      -5.838  12.002  21.800  0.00  0.00    +0.000 OA
ATOM     22  H   UNL     1      -5.026  11.492  21.646  0.00  0.00    +0.000 HD
ENDBRANCH   6  21
BRANCH  14  23
ATOM     23  O   UNL     1      -4.689  15.288  21.321  0.00  0.00    +0.000 OA
ATOM     24  C   UNL     1      -3.881  14.818  22.375  0.00  0.00    +0.000 C 
ENDBRANCH  14  23
BRANCH  18  25
ATOM     25  C   UNL     1      -0.560  11.158  18.749  0.00  0.00    +0.000 C 
ATOM     26  C   UNL     1       0.068  12.319  18.476  0.00  0.00    +0.000 C 
BRANCH  26  27
ATOM     27  O   UNL     1      -0.578  13.503  18.210  0.00  0.00    +0.000 OA
ATOM     28  C   UNL     1       0.006  14.606  18.909  0.00  0.00    +0.000 C 
ENDBRANCH  26  27
BRANCH  25  29
ATOM     29  C   UNL     1       0.310   9.980  19.011  0.00  0.00    +0.000 C 
ATOM     30  O   UNL     1       0.394   9.411  20.090  0.00  0.00    +0.000 OA
BRANCH  29  31
ATOM     31  O   UNL     1       1.040   9.647  17.905  0.00  0.00    +0.000 OA
ATOM     32  C   UNL     1       1.996   8.613  18.128  0.00  0.00    +0.000 C 
ENDBRANCH  29  31
ENDBRANCH  25  29
ENDBRANCH  18  25
TORSDOF 7
ENDMDL
MODEL 5
REMARK VINA RESULT:      -5.3      2.640      7.033
REMARK  Name = 
REMARK  12 active torsions:
REMARK  status: ('A' for Active; 'I' for Inactive)
REMARK    1  A    between atoms: C_1  and  C_2
REMARK    2  A    between atoms: C_2  and  C_3
REMARK    3  A    between atoms: C_8  and  O_9
REMARK    4  A    between atoms: C_15  and  C_16
REMARK    5  A    between atoms: C_17  and  O_18
REMARK    6  A    between atoms: O_18  and  C_19
REMARK    7  A    between atoms: C_23  and  C_24
REMARK    8  A    between atoms: C_24  and  C_28
REMARK    9  A    between atoms: C_25  and  O_26
REMARK   10  A    between atoms: O_26  and  C_27
REMARK   11  A    between atoms: C_28  and  O_30
REMARK   12  A    between atoms: O_30  and  C_31
REMARK                            x       y       z     vdW  Elec       q    Type
REMARK                         _______ _______ _______ _____ _____    ______ ____
ROOT
ATOM      1  C   UNL     1      -2.834  10.308  17.646  0.00  0.00    +0.000 C 
ATOM      2  C   UNL     1      -4.356  10.002  17.849  0.00  0.00    +0.000 C 
ATOM      3  N   UNL     1      -5.200  11.100  18.347  0.00  0.00    +0.000 NA
ATOM      4  C   UNL     1      -6.505  10.644  18.945  0.00  0.00    +0.000 C 
ATOM      5  C   UNL     1      -7.337  11.685  19.842  0.00  0.00    +0.000 C 
ATOM      6  C   UNL     1      -6.408  12.673  20.708  0.00  0.00    +0.000 C 
ATOM      7  C   UNL     1      -5.536  13.041  19.526  0.00  0.00    +0.000 C 
ATOM      8  N   UNL     1      -6.117  13.981  18.795  0.00  0.00    +0.000 NA
ATOM      9  C   UNL     1      -7.106  14.533  19.705  0.00  0.00    +0.000 A 
ATOM     10  C   UNL     1      -7.917  15.638  19.580  0.00  0.00    +0.000 A 
ATOM     11  C   UNL     1      -7.832  16.577  20.603  0.00  0.00    +0.000 A 
ATOM     12  C   UNL     1      -6.732  16.447  21.463  0.00  0.00    +0.000 A 
ATOM     13  C   UNL     1      -5.960  17.718  21.751  0.00  0.00    +0.000 C 
ATOM     14  C   UNL     1      -6.140  15.162  21.604  0.00  0.00    +0.000 A 
ATOM     15  C   UNL     1      -6.792  14.107  20.972  0.00  0.00    +0.000 A 
ATOM     16  C   UNL     1      -4.516  11.974  19.282  0.00  0.00    +0.000 C 
ATOM     17  C   UNL     1      -3.061  12.353  19.069  0.00  0.00    +0.000 C 
ATOM     18  C   UNL     1      -2.259  11.035  18.899  0.00  0.00    +0.000 C 
ENDROOT
BRANCH   1  20
ATOM     19  C   UNL     1      -2.946  10.445  15.076  0.00  0.00    +0.000 C 
ATOM     20  C   UNL     1      -2.499  11.104  16.366  0.00  0.00    +0.000 C 
ENDBRANCH   1  20
BRANCH   6  21
ATOM     21  O   UNL     1      -6.051  12.015  21.887  0.00  0.00    +0.000 OA
ATOM     22  H   UNL     1      -5.990  11.062  21.712  0.00  0.00    +0.000 HD
ENDBRANCH   6  21
BRANCH  14  23
ATOM     23  O   UNL     1      -4.754  15.270  21.633  0.00  0.00    +0.000 OA
ATOM     24  C   UNL     1      -3.988  14.622  22.621  0.00  0.00    +0.000 C 
ENDBRANCH  14  23
BRANCH  18  25
ATOM     25  C   UNL     1      -0.729  11.124  18.927  0.00  0.00    +0.000 C 
ATOM     26  C   UNL     1      -0.041  12.231  18.585  0.00  0.00    +0.000 C 
BRANCH  26  27
ATOM     27  O   UNL     1      -0.624  13.414  18.197  0.00  0.00    +0.000 OA
ATOM     28  C   UNL     1       0.017  14.550  18.784  0.00  0.00    +0.000 C 
ENDBRANCH  26  27
BRANCH  25  29
ATOM     29  C   UNL     1       0.078   9.937  19.319  0.00  0.00    +0.000 C 
ATOM     30  O   UNL     1       1.016   9.496  18.672  0.00  0.00    +0.000 OA
BRANCH  29  31
ATOM     31  O   UNL     1      -0.396   9.374  20.471  0.00  0.00    +0.000 OA
ATOM     32  C   UNL     1      -0.037  10.083  21.656  0.00  0.00    +0.000 C 
ENDBRANCH  29  31
ENDBRANCH  25  29
ENDBRANCH  18  25
TORSDOF 7
ENDMDL
MODEL 6
REMARK VINA RESULT:      -5.2      2.404      5.795
REMARK  Name = 
REMARK  12 active torsions:
REMARK  status: ('A' for Active; 'I' for Inactive)
REMARK    1  A    between atoms: C_1  and  C_2
REMARK    2  A    between atoms: C_2  and  C_3
REMARK    3  A    between atoms: C_8  and  O_9
REMARK    4  A    between atoms: C_15  and  C_16
REMARK    5  A    between atoms: C_17  and  O_18
REMARK    6  A    between atoms: O_18  and  C_19
REMARK    7  A    between atoms: C_23  and  C_24
REMARK    8  A    between atoms: C_24  and  C_28
REMARK    9  A    between atoms: C_25  and  O_26
REMARK   10  A    between atoms: O_26  and  C_27
REMARK   11  A    between atoms: C_28  and  O_30
REMARK   12  A    between atoms: O_30  and  C_31
REMARK                            x       y       z     vdW  Elec       q    Type
REMARK                         _______ _______ _______ _____ _____    ______ ____
ROOT
ATOM      1  C   UNL     1      -4.968  11.301  18.252  0.00  0.00    +0.000 C 
ATOM      2  C   UNL     1      -6.182  11.175  19.233  0.00  0.00    +0.000 C 
ATOM      3  N   UNL     1      -6.293  12.186  20.297  0.00  0.00    +0.000 NA
ATOM      4  C   UNL     1      -7.170  11.769  21.447  0.00  0.00    +0.000 C 
ATOM      5  C   UNL     1      -7.083  12.604  22.815  0.00  0.00    +0.000 C 
ATOM      6  C   UNL     1      -5.602  13.142  23.146  0.00  0.00    +0.000 C 
ATOM      7  C   UNL     1      -5.399  13.714  21.759  0.00  0.00    +0.000 C 
ATOM      8  N   UNL     1      -5.973  14.904  21.658  0.00  0.00    +0.000 NA
ATOM      9  C   UNL     1      -6.146  15.298  23.045  0.00  0.00    +0.000 A 
ATOM     10  C   UNL     1      -6.546  16.496  23.591  0.00  0.00    +0.000 A 
ATOM     11  C   UNL     1      -5.682  17.064  24.521  0.00  0.00    +0.000 A 
ATOM     12  C   UNL     1      -4.389  16.523  24.564  0.00  0.00    +0.000 A 
ATOM     13  C   UNL     1      -3.251  17.522  24.566  0.00  0.00    +0.000 C 
ATOM     14  C   UNL     1      -4.208  15.183  24.126  0.00  0.00    +0.000 A 
ATOM     15  C   UNL     1      -5.364  14.472  23.815  0.00  0.00    +0.000 A 
ATOM     16  C   UNL     1      -5.007  12.631  20.803  0.00  0.00    +0.000 C 
ATOM     17  C   UNL     1      -3.832  12.838  19.866  0.00  0.00    +0.000 C 
ATOM     18  C   UNL     1      -3.650  11.529  19.052  0.00  0.00    +0.000 C 
ENDROOT
BRANCH   1  20
ATOM     19  C   UNL     1      -6.520  12.967  17.046  0.00  0.00    +0.000 C 
ATOM     20  C   UNL     1      -5.125  12.385  17.163  0.00  0.00    +0.000 C 
ENDBRANCH   1  20
BRANCH   6  21
ATOM     21  O   UNL     1      -4.898  12.117  23.782  0.00  0.00    +0.000 OA
ATOM     22  H   UNL     1      -4.439  11.585  23.112  0.00  0.00    +0.000 HD
ENDBRANCH   6  21
BRANCH  14  23
ATOM     23  O   UNL     1      -3.042  15.073  23.377  0.00  0.00    +0.000 OA
ATOM     24  C   UNL     1      -2.034  14.150  23.719  0.00  0.00    +0.000 C 
ENDBRANCH  14  23
BRANCH  18  25
ATOM     25  C   UNL     1      -2.374  11.380  18.217  0.00  0.00    +0.000 C 
ATOM     26  C   UNL     1      -2.251  10.512  17.193  0.00  0.00    +0.000 C 
BRANCH  26  27
ATOM     27  O   UNL     1      -3.257   9.681  16.760  0.00  0.00    +0.000 OA
ATOM     28  C   UNL     1      -3.384   9.685  15.335  0.00  0.00    +0.000 C 
ENDBRANCH  26  27
BRANCH  25  29
ATOM     29  C   UNL     1      -1.174  12.197  18.540  0.00  0.00    +0.000 C 
ATOM     30  O   UNL     1      -0.791  13.152  17.880  0.00  0.00    +0.000 OA
BRANCH  29  31
ATOM     31  O   UNL     1      -0.527  11.713  19.643  0.00  0.00    +0.000 OA
ATOM     32  C   UNL     1       0.895  11.710  19.529  0.00  0.00    +0.000 C 
ENDBRANCH  29  31
ENDBRANCH  25  29
ENDBRANCH  18  25
TORSDOF 7
ENDMDL
MODEL 7
REMARK VINA RESULT:      -5.2      2.288      6.568
REMARK  Name = 
REMARK  12 active torsions:
REMARK  status: ('A' for Active; 'I' for Inactive)
REMARK    1  A    between atoms: C_1  and  C_2
REMARK    2  A    between atoms: C_2  and  C_3
REMARK    3  A    between atoms: C_8  and  O_9
REMARK    4  A    between atoms: C_15  and  C_16
REMARK    5  A    between atoms: C_17  and  O_18
REMARK    6  A    between atoms: O_18  and  C_19
REMARK    7  A    between atoms: C_23  and  C_24
REMARK    8  A    between atoms: C_24  and  C_28
REMARK    9  A    between atoms: C_25  and  O_26
REMARK   10  A    between atoms: O_26  and  C_27
REMARK   11  A    between atoms: C_28  and  O_30
REMARK   12  A    between atoms: O_30  and  C_31
REMARK                            x       y       z     vdW  Elec       q    Type
REMARK                         _______ _______ _______ _____ _____    ______ ____
ROOT
ATOM      1  C   UNL     1       0.948  10.851  20.465  0.00  0.00    +0.000 C 
ATOM      2  C   UNL     1       0.889  12.036  21.488  0.00  0.00    +0.000 C 
ATOM      3  N   UNL     1      -0.433  12.394  22.024  0.00  0.00    +0.000 NA
ATOM      4  C   UNL     1      -0.498  13.778  22.615  0.00  0.00    +0.000 C 
ATOM      5  C   UNL     1      -1.942  14.421  22.893  0.00  0.00    +0.000 C 
ATOM      6  C   UNL     1      -3.051  14.010  21.800  0.00  0.00    +0.000 C 
ATOM      7  C   UNL     1      -2.721  12.535  21.885  0.00  0.00    +0.000 C 
ATOM      8  N   UNL     1      -3.324  11.982  22.928  0.00  0.00    +0.000 NA
ATOM      9  C   UNL     1      -4.367  12.943  23.243  0.00  0.00    +0.000 A 
ATOM     10  C   UNL     1      -5.418  12.863  24.128  0.00  0.00    +0.000 A 
ATOM     11  C   UNL     1      -6.684  13.084  23.595  0.00  0.00    +0.000 A 
ATOM     12  C   UNL     1      -6.772  13.056  22.195  0.00  0.00    +0.000 A 
ATOM     13  C   UNL     1      -7.901  12.228  21.618  0.00  0.00    +0.000 C 
ATOM     14  C   UNL     1      -5.603  13.357  21.445  0.00  0.00    +0.000 A 
ATOM     15  C   UNL     1      -4.496  13.789  22.169  0.00  0.00    +0.000 A 
ATOM     16  C   UNL     1      -1.508  12.226  21.064  0.00  0.00    +0.000 C 
ATOM     17  C   UNL     1      -1.521  11.044  20.111  0.00  0.00    +0.000 C 
ATOM     18  C   UNL     1      -0.154  11.025  19.377  0.00  0.00    +0.000 C 
ENDROOT
BRANCH   1  20
ATOM     19  C   UNL     1       1.394   9.351  22.511  0.00  0.00    +0.000 C 
ATOM     20  C   UNL     1       0.857   9.445  21.097  0.00  0.00    +0.000 C 
ENDBRANCH   1  20
BRANCH   6  21
ATOM     21  O   UNL     1      -2.928  14.872  20.708  0.00  0.00    +0.000 OA
ATOM     22  H   UNL     1      -2.628  14.366  19.936  0.00  0.00    +0.000 HD
ENDBRANCH   6  21
BRANCH  14  23
ATOM     23  O   UNL     1      -5.493  12.497  20.358  0.00  0.00    +0.000 OA
ATOM     24  C   UNL     1      -5.417  12.987  19.039  0.00  0.00    +0.000 C 
ENDBRANCH  14  23
BRANCH  18  25
ATOM     25  C   UNL     1      -0.003  10.086  18.175  0.00  0.00    +0.000 C 
ATOM     26  C   UNL     1      -1.041   9.664  17.425  0.00  0.00    +0.000 C 
BRANCH  26  27
ATOM     27  O   UNL     1      -2.346  10.042  17.631  0.00  0.00    +0.000 OA
ATOM     28  C   UNL     1      -3.068  10.181  16.403  0.00  0.00    +0.000 C 
ENDBRANCH  26  27
BRANCH  25  29
ATOM     29  C   UNL     1       1.339   9.567  17.800  0.00  0.00    +0.000 C 
ATOM     30  O   UNL     1       2.285  10.270  17.474  0.00  0.00    +0.000 OA
BRANCH  29  31
ATOM     31  O   UNL     1       1.366   8.201  17.819  0.00  0.00    +0.000 OA
ATOM     32  C   UNL     1       2.647   7.647  18.113  0.00  0.00    +0.000 C 
ENDBRANCH  29  31
ENDBRANCH  25  29
ENDBRANCH  18  25
TORSDOF 7
ENDMDL
MODEL 8
REMARK VINA RESULT:      -5.1      1.562      7.014
REMARK  Name = 
REMARK  12 active torsions:
REMARK  status: ('A' for Active; 'I' for Inactive)
REMARK    1  A    between atoms: C_1  and  C_2
REMARK    2  A    between atoms: C_2  and  C_3
REMARK    3  A    between atoms: C_8  and  O_9
REMARK    4  A    between atoms: C_15  and  C_16
REMARK    5  A    between atoms: C_17  and  O_18
REMARK    6  A    between atoms: O_18  and  C_19
REMARK    7  A    between atoms: C_23  and  C_24
REMARK    8  A    between atoms: C_24  and  C_28
REMARK    9  A    between atoms: C_25  and  O_26
REMARK   10  A    between atoms: O_26  and  C_27
REMARK   11  A    between atoms: C_28  and  O_30
REMARK   12  A    between atoms: O_30  and  C_31
REMARK                            x       y       z     vdW  Elec       q    Type
REMARK                         _______ _______ _______ _____ _____    ______ ____
ROOT
ATOM      1  C   UNL     1      -0.762  14.929  21.268  0.00  0.00    +0.000 C 
ATOM      2  C   UNL     1      -2.132  15.674  21.413  0.00  0.00    +0.000 C 
ATOM      3  N   UNL     1      -3.350  14.849  21.386  0.00  0.00    +0.000 NA
ATOM      4  C   UNL     1      -4.603  15.622  21.070  0.00  0.00    +0.000 C 
ATOM      5  C   UNL     1      -5.919  14.802  20.652  0.00  0.00    +0.000 C 
ATOM      6  C   UNL     1      -5.605  13.479  19.790  0.00  0.00    +0.000 C 
ATOM      7  C   UNL     1      -4.542  12.992  20.752  0.00  0.00    +0.000 C 
ATOM      8  N   UNL     1      -5.097  12.373  21.784  0.00  0.00    +0.000 NA
ATOM      9  C   UNL     1      -6.429  12.061  21.296  0.00  0.00    +0.000 A 
ATOM     10  C   UNL     1      -7.426  11.290  21.848  0.00  0.00    +0.000 A 
ATOM     11  C   UNL     1      -7.917  10.262  21.050  0.00  0.00    +0.000 A 
ATOM     12  C   UNL     1      -7.145   9.939  19.924  0.00  0.00    +0.000 A 
ATOM     13  C   UNL     1      -6.871   8.466  19.707  0.00  0.00    +0.000 C 
ATOM     14  C   UNL     1      -6.305  10.947  19.377  0.00  0.00    +0.000 A 
ATOM     15  C   UNL     1      -6.421  12.219  19.931  0.00  0.00    +0.000 A 
ATOM     16  C   UNL     1      -3.249  13.704  20.500  0.00  0.00    +0.000 C 
ATOM     17  C   UNL     1      -1.958  12.912  20.397  0.00  0.00    +0.000 C 
ATOM     18  C   UNL     1      -0.821  13.920  20.082  0.00  0.00    +0.000 C 
ENDROOT
BRANCH   1  20
ATOM     19  C   UNL     1      -1.185  14.379  23.749  0.00  0.00    +0.000 C 
ATOM     20  C   UNL     1      -0.272  14.220  22.549  0.00  0.00    +0.000 C 
ENDBRANCH   1  20
BRANCH   6  21
ATOM     21  O   UNL     1      -5.469  13.852  18.451  0.00  0.00    +0.000 OA
ATOM     22  H   UNL     1      -5.965  13.228  17.897  0.00  0.00    +0.000 HD
ENDBRANCH   6  21
BRANCH  14  23
ATOM     23  O   UNL     1      -5.079  10.405  19.009  0.00  0.00    +0.000 OA
ATOM     24  C   UNL     1      -4.510  10.667  17.747  0.00  0.00    +0.000 C 
ENDBRANCH  14  23
BRANCH  18  25
ATOM     25  C   UNL     1       0.543  13.351  19.673  0.00  0.00    +0.000 C 
ATOM     26  C   UNL     1       1.453  14.040  18.958  0.00  0.00    +0.000 C 
BRANCH  26  27
ATOM     27  O   UNL     1       1.282  15.337  18.535  0.00  0.00    +0.000 OA
ATOM     28  C   UNL     1       2.271  16.217  19.078  0.00  0.00    +0.000 C 
ENDBRANCH  26  27
BRANCH  25  29
ATOM     29  C   UNL     1       0.906  11.956  20.041  0.00  0.00    +0.000 C 
ATOM     30  O   UNL     1       1.064  11.563  21.188  0.00  0.00    +0.000 OA
BRANCH  29  31
ATOM     31  O   UNL     1       1.089  11.182  18.929  0.00  0.00    +0.000 OA
ATOM     32  C   UNL     1      -0.087  10.505  18.490  0.00  0.00    +0.000 C 
ENDBRANCH  29  31
ENDBRANCH  25  29
ENDBRANCH  18  25
TORSDOF 7
ENDMDL
MODEL 9
REMARK VINA RESULT:      -5.1      0.972      1.016
REMARK  Name = 
REMARK  12 active torsions:
REMARK  status: ('A' for Active; 'I' for Inactive)
REMARK    1  A    between atoms: C_1  and  C_2
REMARK    2  A    between atoms: C_2  and  C_3
REMARK    3  A    between atoms: C_8  and  O_9
REMARK    4  A    between atoms: C_15  and  C_16
REMARK    5  A    between atoms: C_17  and  O_18
REMARK    6  A    between atoms: O_18  and  C_19
REMARK    7  A    between atoms: C_23  and  C_24
REMARK    8  A    between atoms: C_24  and  C_28
REMARK    9  A    between atoms: C_25  and  O_26
REMARK   10  A    between atoms: O_26  and  C_27
REMARK   11  A    between atoms: C_28  and  O_30
REMARK   12  A    between atoms: O_30  and  C_31
REMARK                            x       y       z     vdW  Elec       q    Type
REMARK                         _______ _______ _______ _____ _____    ______ ____
ROOT
ATOM      1  C   UNL     1      -5.460  14.025  21.260  0.00  0.00    +0.000 C 
ATOM      2  C   UNL     1      -4.602  14.596  22.440  0.00  0.00    +0.000 C 
ATOM      3  N   UNL     1      -3.163  14.781  22.195  0.00  0.00    +0.000 NA
ATOM      4  C   UNL     1      -2.339  14.883  23.451  0.00  0.00    +0.000 C 
ATOM      5  C   UNL     1      -0.746  14.716  23.332  0.00  0.00    +0.000 C 
ATOM      6  C   UNL     1      -0.292  13.655  22.209  0.00  0.00    +0.000 C 
ATOM      7  C   UNL     1      -1.189  14.255  21.147  0.00  0.00    +0.000 C 
ATOM      8  N   UNL     1      -0.614  15.315  20.597  0.00  0.00    +0.000 NA
ATOM      9  C   UNL     1       0.785  15.144  20.953  0.00  0.00    +0.000 A 
ATOM     10  C   UNL     1       1.902  15.836  20.544  0.00  0.00    +0.000 A 
ATOM     11  C   UNL     1       2.926  15.073  19.992  0.00  0.00    +0.000 A 
ATOM     12  C   UNL     1       2.587  13.760  19.637  0.00  0.00    +0.000 A 
ATOM     13  C   UNL     1       3.026  13.310  18.259  0.00  0.00    +0.000 C 
ATOM     14  C   UNL     1       1.503  13.140  20.317  0.00  0.00    +0.000 A 
ATOM     15  C   UNL     1       0.952  13.850  21.381  0.00  0.00    +0.000 A 
ATOM     16  C   UNL     1      -2.594  13.771  21.320  0.00  0.00    +0.000 C 
ATOM     17  C   UNL     1      -3.369  13.255  20.122  0.00  0.00    +0.000 C 
ATOM     18  C   UNL     1      -4.757  12.783  20.635  0.00  0.00    +0.000 C 
ENDROOT
BRANCH   1  20
ATOM     19  C   UNL     1      -7.296  15.253  19.933  0.00  0.00    +0.000 C 
ATOM     20  C   UNL     1      -5.811  15.051  20.159  0.00  0.00    +0.000 C 
ENDBRANCH   1  20
BRANCH   6  21
ATOM     21  O   UNL     1      -0.336  12.378  22.772  0.00  0.00    +0.000 OA
ATOM     22  H   UNL     1       0.397  11.850  22.418  0.00  0.00    +0.000 HD
ENDBRANCH   6  21
BRANCH  14  23
ATOM     23  O   UNL     1       0.724  12.414  19.423  0.00  0.00    +0.000 OA
ATOM     24  C   UNL     1       0.460  11.045  19.623  0.00  0.00    +0.000 C 
ENDBRANCH  14  23
BRANCH  18  25
ATOM     25  C   UNL     1      -5.638  11.981  19.671  0.00  0.00    +0.000 C 
ATOM     26  C   UNL     1      -6.601  11.130  20.076  0.00  0.00    +0.000 C 
BRANCH  26  27
ATOM     27  O   UNL     1      -6.926  10.900  21.391  0.00  0.00    +0.000 OA
ATOM     28  C   UNL     1      -7.909  11.821  21.873  0.00  0.00    +0.000 C 
ENDBRANCH  26  27
BRANCH  25  29
ATOM     29  C   UNL     1      -5.430  12.097  18.202  0.00  0.00    +0.000 C 
ATOM     30  O   UNL     1      -6.040  12.870  17.478  0.00  0.00    +0.000 OA
BRANCH  29  31
ATOM     31  O   UNL     1      -4.505  11.194  17.759  0.00  0.00    +0.000 OA
ATOM     32  C   UNL     1      -4.343  11.174  16.342  0.00  0.00    +0.000 C 
ENDBRANCH  29  31
ENDBRANCH  25  29
ENDBRANCH  18  25
TORSDOF 7
ENDMDL
