MODEL 1
REMARK VINA RESULT:      -8.1      0.000      0.000
REMARK  Name = 
REMARK  12 active torsions:
REMARK  status: ('A' for Active; 'I' for Inactive)
REMARK    1  A    between atoms: C_1  and  C_2
REMARK    2  A    between atoms: C_2  and  C_3
REMARK    3  A    between atoms: C_3  and  N_4
REMARK    4  A    between atoms: N_4  and  C_5
REMARK    5  A    between atoms: C_5  and  C_6
REMARK    6  A    between atoms: C_6  and  C_7
REMARK    7  A    between atoms: C_8  and  O_10
REMARK    8  A    between atoms: O_10  and  C_11
REMARK    9  A    between atoms: C_16  and  C_17
REMARK   10  A    between atoms: N_19  and  C_20
REMARK   11  A    between atoms: C_20  and  C_21
REMARK   12  A    between atoms: C_21  and  C_22
REMARK                            x       y       z     vdW  Elec       q    Type
REMARK                         _______ _______ _______ _____ _____    ______ ____
ROOT
ATOM      1  C   UNL     1       2.784   4.188  18.872  0.00  0.00    +0.000 A 
ATOM      2  C   UNL     1       2.681   2.760  19.115  0.00  0.00    +0.000 A 
ATOM      3  C   UNL     1       1.827   2.255  20.084  0.00  0.00    +0.000 A 
ATOM      4  C   UNL     1       1.101   3.142  20.863  0.00  0.00    +0.000 A 
ATOM      5  C   UNL     1       1.218   4.540  20.641  0.00  0.00    +0.000 A 
ATOM      6  C   UNL     1       2.066   5.104  19.634  0.00  0.00    +0.000 A 
ENDROOT
BRANCH   6   7
ATOM      7  C   UNL     1       2.135   6.627  19.525  0.00  0.00    +0.000 C 
ATOM      8  O   UNL     1       1.921   7.353  20.547  0.00  0.00    +0.000 OA
ATOM      9  N   UNL     1       2.471   7.256  18.271  0.00  0.00    +0.000 N 
ATOM     10  H   UNL     1       2.340   6.612  17.493  0.00  0.00    +0.000 HD
BRANCH   9  11
ATOM     11  C   UNL     1       2.326   8.718  17.919  0.00  0.00    +0.000 C 
BRANCH  11  12
ATOM     12  C   UNL     1       0.902   9.520  17.861  0.00  0.00    +0.000 C 
BRANCH  12  13
ATOM     13  C   UNL     1       0.116  10.105  19.147  0.00  0.00    +0.000 A 
ATOM     14  C   UNL     1      -1.094  10.673  18.774  0.00  0.00    +0.000 A 
ATOM     15  N   UNL     1      -1.012  11.864  19.477  0.00  0.00    +0.000 N 
ATOM     16  C   UNL     1      -0.962  11.430  20.775  0.00  0.00    +0.000 A 
ATOM     17  C   UNL     1      -1.597  12.036  21.864  0.00  0.00    +0.000 A 
ATOM     18  C   UNL     1      -1.596  11.382  23.077  0.00  0.00    +0.000 A 
ATOM     19  C   UNL     1      -0.856  10.204  23.195  0.00  0.00    +0.000 A 
ATOM     20  C   UNL     1      -0.089   9.661  22.053  0.00  0.00    +0.000 A 
ATOM     21  C   UNL     1      -0.183  10.240  20.720  0.00  0.00    +0.000 A 
ATOM     22  H   UNL     1      -0.492  12.679  19.194  0.00  0.00    +0.000 HD
ENDBRANCH  12  13
ENDBRANCH  11  12
ENDBRANCH   9  11
ENDBRANCH   6   7
BRANCH   1  23
ATOM     23  O   UNL     1       3.671   4.587  17.853  0.00  0.00    +0.000 OA
BRANCH  23  25
ATOM     24  N   UNL     1       5.904   4.628  17.134  0.00  0.00    +0.000 N 
ATOM     25  C   UNL     1       5.011   4.865  18.184  0.00  0.00    +0.000 C 
ATOM     26  O   UNL     1       5.355   5.306  19.273  0.00  0.00    +0.000 OA
BRANCH  24  27
ATOM     27  C   UNL     1       7.313   5.023  17.339  0.00  0.00    +0.000 C 
BRANCH  27  29
ATOM     28  C   UNL     1       7.609   7.554  17.901  0.00  0.00    +0.000 C 
ATOM     29  C   UNL     1       7.772   6.420  16.891  0.00  0.00    +0.000 C 
ENDBRANCH  27  29
ENDBRANCH  24  27
BRANCH  24  30
ATOM     30  C   UNL     1       5.484   3.851  15.962  0.00  0.00    +0.000 C 
BRANCH  30  31
ATOM     31  C   UNL     1       5.533   4.569  14.607  0.00  0.00    +0.000 C 
ATOM     32  C   UNL     1       6.304   3.901  13.480  0.00  0.00    +0.000 C 
ENDBRANCH  30  31
ENDBRANCH  24  30
ENDBRANCH  23  25
ENDBRANCH   1  23
TORSDOF 10
ENDMDL
MODEL 2
REMARK VINA RESULT:      -8.1      1.071      1.200
REMARK  Name = 
REMARK  12 active torsions:
REMARK  status: ('A' for Active; 'I' for Inactive)
REMARK    1  A    between atoms: C_1  and  C_2
REMARK    2  A    between atoms: C_2  and  C_3
REMARK    3  A    between atoms: C_3  and  N_4
REMARK    4  A    between atoms: N_4  and  C_5
REMARK    5  A    between atoms: C_5  and  C_6
REMARK    6  A    between atoms: C_6  and  C_7
REMARK    7  A    between atoms: C_8  and  O_10
REMARK    8  A    between atoms: O_10  and  C_11
REMARK    9  A    between atoms: C_16  and  C_17
REMARK   10  A    between atoms: N_19  and  C_20
REMARK   11  A    between atoms: C_20  and  C_21
REMARK   12  A    between atoms: C_21  and  C_22
REMARK                            x       y       z     vdW  Elec       q    Type
REMARK                         _______ _______ _______ _____ _____    ______ ____
ROOT
ATOM      1  C   UNL     1       3.806   4.343  19.466  0.00  0.00    +0.000 A 
ATOM      2  C   UNL     1       4.017   2.980  19.922  0.00  0.00    +0.000 A 
ATOM      3  C   UNL     1       3.210   2.417  20.899  0.00  0.00    +0.000 A 
ATOM      4  C   UNL     1       2.220   3.193  21.479  0.00  0.00    +0.000 A 
ATOM      5  C   UNL     1       2.027   4.533  21.048  0.00  0.00    +0.000 A 
ATOM      6  C   UNL     1       2.818   5.147  20.024  0.00  0.00    +0.000 A 
ENDROOT
BRANCH   6   7
ATOM      7  C   UNL     1       2.537   6.610  19.682  0.00  0.00    +0.000 C 
ATOM      8  O   UNL     1       1.959   7.366  20.526  0.00  0.00    +0.000 OA
ATOM      9  N   UNL     1       2.951   7.156  18.412  0.00  0.00    +0.000 N 
ATOM     10  H   UNL     1       3.134   6.415  17.739  0.00  0.00    +0.000 HD
BRANCH   9  11
ATOM     11  C   UNL     1       2.529   8.476  17.810  0.00  0.00    +0.000 C 
BRANCH  11  12
ATOM     12  C   UNL     1       1.012   9.082  17.875  0.00  0.00    +0.000 C 
BRANCH  12  13
ATOM     13  C   UNL     1       0.414   9.949  19.102  0.00  0.00    +0.000 A 
ATOM     14  C   UNL     1      -0.355  11.006  18.635  0.00  0.00    +0.000 A 
ATOM     15  N   UNL     1       0.161  12.025  19.418  0.00  0.00    +0.000 N 
ATOM     16  C   UNL     1      -0.155  11.606  20.683  0.00  0.00    +0.000 A 
ATOM     17  C   UNL     1      -0.584  12.425  21.733  0.00  0.00    +0.000 A 
ATOM     18  C   UNL     1      -1.031  11.832  22.894  0.00  0.00    +0.000 A 
ATOM     19  C   UNL     1      -0.919  10.446  23.016  0.00  0.00    +0.000 A 
ATOM     20  C   UNL     1      -0.337   9.623  21.933  0.00  0.00    +0.000 A 
ATOM     21  C   UNL     1       0.009  10.193  20.638  0.00  0.00    +0.000 A 
ATOM     22  H   UNL     1       1.022  12.520  19.247  0.00  0.00    +0.000 HD
ENDBRANCH  12  13
ENDBRANCH  11  12
ENDBRANCH   9  11
ENDBRANCH   6   7
BRANCH   1  23
ATOM     23  O   UNL     1       4.674   4.807  18.458  0.00  0.00    +0.000 OA
BRANCH  23  25
ATOM     24  N   UNL     1       6.536   6.070  17.793  0.00  0.00    +0.000 N 
ATOM     25  C   UNL     1       5.911   5.367  18.828  0.00  0.00    +0.000 C 
ATOM     26  O   UNL     1       6.376   5.280  19.957  0.00  0.00    +0.000 OA
BRANCH  24  27
ATOM     27  C   UNL     1       7.770   6.813  18.124  0.00  0.00    +0.000 C 
BRANCH  27  29
ATOM     28  C   UNL     1       8.740   9.191  18.580  0.00  0.00    +0.000 C 
ATOM     29  C   UNL     1       7.902   8.280  17.685  0.00  0.00    +0.000 C 
ENDBRANCH  27  29
ENDBRANCH  24  27
BRANCH  24  30
ATOM     30  C   UNL     1       6.077   5.915  16.407  0.00  0.00    +0.000 C 
BRANCH  30  31
ATOM     31  C   UNL     1       6.663   4.738  15.615  0.00  0.00    +0.000 C 
ATOM     32  C   UNL     1       6.193   4.547  14.182  0.00  0.00    +0.000 C 
ENDBRANCH  30  31
ENDBRANCH  24  30
ENDBRANCH  23  25
ENDBRANCH   1  23
TORSDOF 10
ENDMDL
MODEL 3
REMARK VINA RESULT:      -8.1      1.837      3.350
REMARK  Name = 
REMARK  12 active torsions:
REMARK  status: ('A' for Active; 'I' for Inactive)
REMARK    1  A    between atoms: C_1  and  C_2
REMARK    2  A    between atoms: C_2  and  C_3
REMARK    3  A    between atoms: C_3  and  N_4
REMARK    4  A    between atoms: N_4  and  C_5
REMARK    5  A    between atoms: C_5  and  C_6
REMARK    6  A    between atoms: C_6  and  C_7
REMARK    7  A    between atoms: C_8  and  O_10
REMARK    8  A    between atoms: O_10  and  C_11
REMARK    9  A    between atoms: C_16  and  C_17
REMARK   10  A    between atoms: N_19  and  C_20
REMARK   11  A    between atoms: C_20  and  C_21
REMARK   12  A    between atoms: C_21  and  C_22
REMARK                            x       y       z     vdW  Elec       q    Type
REMARK                         _______ _______ _______ _____ _____    ______ ____
ROOT
ATOM      1  C   UNL     1       3.622   4.568  19.408  0.00  0.00    +0.000 A 
ATOM      2  C   UNL     1       3.909   3.216  19.854  0.00  0.00    +0.000 A 
ATOM      3  C   UNL     1       3.155   2.612  20.849  0.00  0.00    +0.000 A 
ATOM      4  C   UNL     1       2.144   3.339  21.456  0.00  0.00    +0.000 A 
ATOM      5  C   UNL     1       1.876   4.670  21.035  0.00  0.00    +0.000 A 
ATOM      6  C   UNL     1       2.611   5.323  19.994  0.00  0.00    +0.000 A 
ENDROOT
BRANCH   6   7
ATOM      7  C   UNL     1       2.253   6.772  19.665  0.00  0.00    +0.000 C 
ATOM      8  O   UNL     1       1.714   7.515  20.545  0.00  0.00    +0.000 OA
ATOM      9  N   UNL     1       2.550   7.320  18.363  0.00  0.00    +0.000 N 
ATOM     10  H   UNL     1       2.707   6.580  17.683  0.00  0.00    +0.000 HD
BRANCH   9  11
ATOM     11  C   UNL     1       2.037   8.619  17.786  0.00  0.00    +0.000 C 
BRANCH  11  12
ATOM     12  C   UNL     1       1.265   9.775  18.647  0.00  0.00    +0.000 C 
BRANCH  12  13
ATOM     13  C   UNL     1      -0.222  10.325  18.333  0.00  0.00    +0.000 A 
ATOM     14  C   UNL     1      -0.396  11.606  18.839  0.00  0.00    +0.000 A 
ATOM     15  N   UNL     1      -1.622  11.438  19.462  0.00  0.00    +0.000 N 
ATOM     16  C   UNL     1      -2.440  11.126  18.410  0.00  0.00    +0.000 A 
ATOM     17  C   UNL     1      -3.758  11.566  18.240  0.00  0.00    +0.000 A 
ATOM     18  C   UNL     1      -4.391  11.309  17.044  0.00  0.00    +0.000 A 
ATOM     19  C   UNL     1      -3.734  10.515  16.102  0.00  0.00    +0.000 A 
ATOM     20  C   UNL     1      -2.390   9.957  16.371  0.00  0.00    +0.000 A 
ATOM     21  C   UNL     1      -1.630  10.325  17.557  0.00  0.00    +0.000 A 
ATOM     22  H   UNL     1      -1.771  11.014  20.364  0.00  0.00    +0.000 HD
ENDBRANCH  12  13
ENDBRANCH  11  12
ENDBRANCH   9  11
ENDBRANCH   6   7
BRANCH   1  23
ATOM     23  O   UNL     1       4.441   5.075  18.381  0.00  0.00    +0.000 OA
BRANCH  23  25
ATOM     24  N   UNL     1       5.765   4.442  16.550  0.00  0.00    +0.000 N 
ATOM     25  C   UNL     1       4.505   4.385  17.156  0.00  0.00    +0.000 C 
ATOM     26  O   UNL     1       3.561   3.766  16.685  0.00  0.00    +0.000 OA
BRANCH  24  27
ATOM     27  C   UNL     1       5.970   3.630  15.332  0.00  0.00    +0.000 C 
BRANCH  27  29
ATOM     28  C   UNL     1       6.064   3.539  12.727  0.00  0.00    +0.000 C 
ATOM     29  C   UNL     1       6.299   4.337  14.007  0.00  0.00    +0.000 C 
ENDBRANCH  27  29
ENDBRANCH  24  27
BRANCH  24  30
ATOM     30  C   UNL     1       6.768   5.410  17.010  0.00  0.00    +0.000 C 
BRANCH  30  31
ATOM     31  C   UNL     1       7.756   4.924  18.079  0.00  0.00    +0.000 C 
ATOM     32  C   UNL     1       7.890   5.753  19.346  0.00  0.00    +0.000 C 
ENDBRANCH  30  31
ENDBRANCH  24  30
ENDBRANCH  23  25
ENDBRANCH   1  23
TORSDOF 10
ENDMDL
MODEL 4
REMARK VINA RESULT:      -8.1      0.624      2.048
REMARK  Name = 
REMARK  12 active torsions:
REMARK  status: ('A' for Active; 'I' for Inactive)
REMARK    1  A    between atoms: C_1  and  C_2
REMARK    2  A    between atoms: C_2  and  C_3
REMARK    3  A    between atoms: C_3  and  N_4
REMARK    4  A    between atoms: N_4  and  C_5
REMARK    5  A    between atoms: C_5  and  C_6
REMARK    6  A    between atoms: C_6  and  C_7
REMARK    7  A    between atoms: C_8  and  O_10
REMARK    8  A    between atoms: O_10  and  C_11
REMARK    9  A    between atoms: C_16  and  C_17
REMARK   10  A    between atoms: N_19  and  C_20
REMARK   11  A    between atoms: C_20  and  C_21
REMARK   12  A    between atoms: C_21  and  C_22
REMARK                            x       y       z     vdW  Elec       q    Type
REMARK                         _______ _______ _______ _____ _____    ______ ____
ROOT
ATOM      1  C   UNL     1       3.373   4.365  19.414  0.00  0.00    +0.000 A 
ATOM      2  C   UNL     1       3.374   2.960  19.782  0.00  0.00    +0.000 A 
ATOM      3  C   UNL     1       2.379   2.428  20.587  0.00  0.00    +0.000 A 
ATOM      4  C   UNL     1       1.398   3.271  21.085  0.00  0.00    +0.000 A 
ATOM      5  C   UNL     1       1.409   4.650  20.743  0.00  0.00    +0.000 A 
ATOM      6  C   UNL     1       2.401   5.238  19.894  0.00  0.00    +0.000 A 
ENDROOT
BRANCH   6   7
ATOM      7  C   UNL     1       2.325   6.742  19.638  0.00  0.00    +0.000 C 
ATOM      8  O   UNL     1       2.051   7.541  20.588  0.00  0.00    +0.000 OA
ATOM      9  N   UNL     1       2.593   7.274  18.323  0.00  0.00    +0.000 N 
ATOM     10  H   UNL     1       2.517   6.548  17.614  0.00  0.00    +0.000 HD
BRANCH   9  11
ATOM     11  C   UNL     1       2.308   8.675  17.835  0.00  0.00    +0.000 C 
BRANCH  11  12
ATOM     12  C   UNL     1       0.826   9.365  17.811  0.00  0.00    +0.000 C 
BRANCH  12  13
ATOM     13  C   UNL     1       0.101  10.045  19.085  0.00  0.00    +0.000 A 
ATOM     14  C   UNL     1      -1.049  10.722  18.701  0.00  0.00    +0.000 A 
ATOM     15  N   UNL     1      -0.850  11.911  19.384  0.00  0.00    +0.000 N 
ATOM     16  C   UNL     1      -0.843  11.496  20.689  0.00  0.00    +0.000 A 
ATOM     17  C   UNL     1      -1.416  12.179  21.768  0.00  0.00    +0.000 A 
ATOM     18  C   UNL     1      -1.479  11.549  22.991  0.00  0.00    +0.000 A 
ATOM     19  C   UNL     1      -0.858  10.306  23.129  0.00  0.00    +0.000 A 
ATOM     20  C   UNL     1      -0.147   9.672  21.998  0.00  0.00    +0.000 A 
ATOM     21  C   UNL     1      -0.184  10.235  20.655  0.00  0.00    +0.000 A 
ATOM     22  H   UNL     1      -0.253  12.667  19.088  0.00  0.00    +0.000 HD
ENDBRANCH  12  13
ENDBRANCH  11  12
ENDBRANCH   9  11
ENDBRANCH   6   7
BRANCH   1  23
ATOM     23  O   UNL     1       4.423   4.794  18.579  0.00  0.00    +0.000 OA
BRANCH  23  25
ATOM     24  N   UNL     1       5.818   4.155  16.804  0.00  0.00    +0.000 N 
ATOM     25  C   UNL     1       4.505   4.286  17.269  0.00  0.00    +0.000 C 
ATOM     26  O   UNL     1       3.525   3.955  16.616  0.00  0.00    +0.000 OA
BRANCH  24  27
ATOM     27  C   UNL     1       6.012   3.498  15.495  0.00  0.00    +0.000 C 
BRANCH  27  29
ATOM     28  C   UNL     1       6.202   3.653  12.898  0.00  0.00    +0.000 C 
ATOM     29  C   UNL     1       6.244   4.365  14.247  0.00  0.00    +0.000 C 
ENDBRANCH  27  29
ENDBRANCH  24  27
BRANCH  24  30
ATOM     30  C   UNL     1       6.925   4.812  17.509  0.00  0.00    +0.000 C 
BRANCH  30  31
ATOM     31  C   UNL     1       7.338   6.200  17.001  0.00  0.00    +0.000 C 
ATOM     32  C   UNL     1       6.463   7.383  17.387  0.00  0.00    +0.000 C 
ENDBRANCH  30  31
ENDBRANCH  24  30
ENDBRANCH  23  25
ENDBRANCH   1  23
TORSDOF 10
ENDMDL
MODEL 5
REMARK VINA RESULT:      -8.1      1.927      2.471
REMARK  Name = 
REMARK  12 active torsions:
REMARK  status: ('A' for Active; 'I' for Inactive)
REMARK    1  A    between atoms: C_1  and  C_2
REMARK    2  A    between atoms: C_2  and  C_3
REMARK    3  A    between atoms: C_3  and  N_4
REMARK    4  A    between atoms: N_4  and  C_5
REMARK    5  A    between atoms: C_5  and  C_6
REMARK    6  A    between atoms: C_6  and  C_7
REMARK    7  A    between atoms: C_8  and  O_10
REMARK    8  A    between atoms: O_10  and  C_11
REMARK    9  A    between atoms: C_16  and  C_17
REMARK   10  A    between atoms: N_19  and  C_20
REMARK   11  A    between atoms: C_20  and  C_21
REMARK   12  A    between atoms: C_21  and  C_22
REMARK                            x       y       z     vdW  Elec       q    Type
REMARK                         _______ _______ _______ _____ _____    ______ ____
ROOT
ATOM      1  C   UNL     1       3.517   3.480  19.481  0.00  0.00    +0.000 A 
ATOM      2  C   UNL     1       3.753   2.485  20.512  0.00  0.00    +0.000 A 
ATOM      3  C   UNL     1       2.868   2.319  21.567  0.00  0.00    +0.000 A 
ATOM      4  C   UNL     1       1.769   3.157  21.655  0.00  0.00    +0.000 A 
ATOM      5  C   UNL     1       1.548   4.146  20.658  0.00  0.00    +0.000 A 
ATOM      6  C   UNL     1       2.421   4.335  19.538  0.00  0.00    +0.000 A 
ENDROOT
BRANCH   6   7
ATOM      7  C   UNL     1       2.095   5.462  18.560  0.00  0.00    +0.000 C 
ATOM      8  O   UNL     1       1.617   5.196  17.412  0.00  0.00    +0.000 OA
ATOM      9  N   UNL     1       2.298   6.840  18.938  0.00  0.00    +0.000 N 
ATOM     10  H   UNL     1       2.930   6.910  19.734  0.00  0.00    +0.000 HD
BRANCH   9  11
ATOM     11  C   UNL     1       2.286   8.044  18.026  0.00  0.00    +0.000 C 
BRANCH  11  12
ATOM     12  C   UNL     1       1.855   9.552  18.488  0.00  0.00    +0.000 C 
BRANCH  12  13
ATOM     13  C   UNL     1       0.366  10.168  18.365  0.00  0.00    +0.000 A 
ATOM     14  C   UNL     1       0.336  11.488  18.795  0.00  0.00    +0.000 A 
ATOM     15  N   UNL     1      -0.784  11.436  19.608  0.00  0.00    +0.000 N 
ATOM     16  C   UNL     1      -1.771  11.104  18.719  0.00  0.00    +0.000 A 
ATOM     17  C   UNL     1      -3.076  11.609  18.721  0.00  0.00    +0.000 A 
ATOM     18  C   UNL     1      -3.901  11.312  17.657  0.00  0.00    +0.000 A 
ATOM     19  C   UNL     1      -3.438  10.419  16.688  0.00  0.00    +0.000 A 
ATOM     20  C   UNL     1      -2.098   9.801  16.790  0.00  0.00    +0.000 A 
ATOM     21  C   UNL     1      -1.144  10.201  17.816  0.00  0.00    +0.000 A 
ATOM     22  H   UNL     1      -0.810  11.082  20.552  0.00  0.00    +0.000 HD
ENDBRANCH  12  13
ENDBRANCH  11  12
ENDBRANCH   9  11
ENDBRANCH   6   7
BRANCH   1  23
ATOM     23  O   UNL     1       4.473   3.551  18.448  0.00  0.00    +0.000 OA
BRANCH  23  25
ATOM     24  N   UNL     1       6.174   4.762  17.379  0.00  0.00    +0.000 N 
ATOM     25  C   UNL     1       5.571   4.419  18.593  0.00  0.00    +0.000 C 
ATOM     26  O   UNL     1       5.939   4.860  19.674  0.00  0.00    +0.000 OA
BRANCH  24  27
ATOM     27  C   UNL     1       7.245   5.779  17.415  0.00  0.00    +0.000 C 
BRANCH  27  29
ATOM     28  C   UNL     1       7.945   8.274  17.718  0.00  0.00    +0.000 C 
ATOM     29  C   UNL     1       6.871   7.266  17.315  0.00  0.00    +0.000 C 
ENDBRANCH  27  29
ENDBRANCH  24  27
BRANCH  24  30
ATOM     30  C   UNL     1       5.873   4.002  16.159  0.00  0.00    +0.000 C 
BRANCH  30  31
ATOM     31  C   UNL     1       6.660   4.384  14.899  0.00  0.00    +0.000 C 
ATOM     32  C   UNL     1       6.132   3.892  13.560  0.00  0.00    +0.000 C 
ENDBRANCH  30  31
ENDBRANCH  24  30
ENDBRANCH  23  25
ENDBRANCH   1  23
TORSDOF 10
ENDMDL
MODEL 6
REMARK VINA RESULT:      -8.0      2.063      2.589
REMARK  Name = 
REMARK  12 active torsions:
REMARK  status: ('A' for Active; 'I' for Inactive)
REMARK    1  A    between atoms: C_1  and  C_2
REMARK    2  A    between atoms: C_2  and  C_3
REMARK    3  A    between atoms: C_3  and  N_4
REMARK    4  A    between atoms: N_4  and  C_5
REMARK    5  A    between atoms: C_5  and  C_6
REMARK    6  A    between atoms: C_6  and  C_7
REMARK    7  A    between atoms: C_8  and  O_10
REMARK    8  A    between atoms: O_10  and  C_11
REMARK    9  A    between atoms: C_16  and  C_17
REMARK   10  A    between atoms: N_19  and  C_20
REMARK   11  A    between atoms: C_20  and  C_21
REMARK   12  A    between atoms: C_21  and  C_22
REMARK                            x       y       z     vdW  Elec       q    Type
REMARK                         _______ _______ _______ _____ _____    ______ ____
ROOT
ATOM      1  C   UNL     1       2.938   3.969  18.600  0.00  0.00    +0.000 A 
ATOM      2  C   UNL     1       2.769   2.533  18.738  0.00  0.00    +0.000 A 
ATOM      3  C   UNL     1       1.785   2.001  19.558  0.00  0.00    +0.000 A 
ATOM      4  C   UNL     1       0.988   2.864  20.292  0.00  0.00    +0.000 A 
ATOM      5  C   UNL     1       1.167   4.269  20.174  0.00  0.00    +0.000 A 
ATOM      6  C   UNL     1       2.152   4.863  19.319  0.00  0.00    +0.000 A 
ENDROOT
BRANCH   6   7
ATOM      7  C   UNL     1       2.272   6.386  19.315  0.00  0.00    +0.000 C 
ATOM      8  O   UNL     1       2.100   7.045  20.388  0.00  0.00    +0.000 OA
ATOM      9  N   UNL     1       2.610   7.089  18.101  0.00  0.00    +0.000 N 
ATOM     10  H   UNL     1       2.444   6.505  17.283  0.00  0.00    +0.000 HD
BRANCH   9  11
ATOM     11  C   UNL     1       2.511   8.575  17.853  0.00  0.00    +0.000 C 
BRANCH  11  12
ATOM     12  C   UNL     1       1.164   9.468  18.101  0.00  0.00    +0.000 C 
BRANCH  12  13
ATOM     13  C   UNL     1       1.149  11.055  18.408  0.00  0.00    +0.000 A 
ATOM     14  C   UNL     1       0.180  11.370  19.352  0.00  0.00    +0.000 A 
ATOM     15  N   UNL     1      -0.407  12.454  18.720  0.00  0.00    +0.000 N 
ATOM     16  C   UNL     1       0.631  13.345  18.650  0.00  0.00    +0.000 A 
ATOM     17  C   UNL     1       0.536  14.728  18.840  0.00  0.00    +0.000 A 
ATOM     18  C   UNL     1       1.697  15.467  18.910  0.00  0.00    +0.000 A 
ATOM     19  C   UNL     1       2.910  14.820  18.667  0.00  0.00    +0.000 A 
ATOM     20  C   UNL     1       2.961  13.378  18.339  0.00  0.00    +0.000 A 
ATOM     21  C   UNL     1       1.774  12.535  18.400  0.00  0.00    +0.000 A 
ATOM     22  H   UNL     1      -1.085  12.406  17.976  0.00  0.00    +0.000 HD
ENDBRANCH  12  13
ENDBRANCH  11  12
ENDBRANCH   9  11
ENDBRANCH   6   7
BRANCH   1  23
ATOM     23  O   UNL     1       3.958   4.398  17.727  0.00  0.00    +0.000 OA
BRANCH  23  25
ATOM     24  N   UNL     1       6.167   5.061  17.299  0.00  0.00    +0.000 N 
ATOM     25  C   UNL     1       5.278   4.482  18.209  0.00  0.00    +0.000 C 
ATOM     26  O   UNL     1       5.606   4.117  19.331  0.00  0.00    +0.000 OA
BRANCH  24  27
ATOM     27  C   UNL     1       7.544   5.322  17.767  0.00  0.00    +0.000 C 
BRANCH  27  29
ATOM     28  C   UNL     1       7.732   7.918  17.587  0.00  0.00    +0.000 C 
ATOM     29  C   UNL     1       7.864   6.663  18.446  0.00  0.00    +0.000 C 
ENDBRANCH  27  29
ENDBRANCH  24  27
BRANCH  24  30
ATOM     30  C   UNL     1       5.787   5.225  15.890  0.00  0.00    +0.000 C 
BRANCH  30  31
ATOM     31  C   UNL     1       6.742   4.634  14.846  0.00  0.00    +0.000 C 
ATOM     32  C   UNL     1       6.130   3.890  13.669  0.00  0.00    +0.000 C 
ENDBRANCH  30  31
ENDBRANCH  24  30
ENDBRANCH  23  25
ENDBRANCH   1  23
TORSDOF 10
ENDMDL
MODEL 7
REMARK VINA RESULT:      -7.8      3.382      8.281
REMARK  Name = 
REMARK  12 active torsions:
REMARK  status: ('A' for Active; 'I' for Inactive)
REMARK    1  A    between atoms: C_1  and  C_2
REMARK    2  A    between atoms: C_2  and  C_3
REMARK    3  A    between atoms: C_3  and  N_4
REMARK    4  A    between atoms: N_4  and  C_5
REMARK    5  A    between atoms: C_5  and  C_6
REMARK    6  A    between atoms: C_6  and  C_7
REMARK    7  A    between atoms: C_8  and  O_10
REMARK    8  A    between atoms: O_10  and  C_11
REMARK    9  A    between atoms: C_16  and  C_17
REMARK   10  A    between atoms: N_19  and  C_20
REMARK   11  A    between atoms: C_20  and  C_21
REMARK   12  A    between atoms: C_21  and  C_22
REMARK                            x       y       z     vdW  Elec       q    Type
REMARK                         _______ _______ _______ _____ _____    ______ ____
ROOT
ATOM      1  C   UNL     1       3.241   5.782  18.355  0.00  0.00    +0.000 A 
ATOM      2  C   UNL     1       1.904   5.244  18.179  0.00  0.00    +0.000 A 
ATOM      3  C   UNL     1       1.702   3.981  17.643  0.00  0.00    +0.000 A 
ATOM      4  C   UNL     1       2.802   3.248  17.226  0.00  0.00    +0.000 A 
ATOM      5  C   UNL     1       4.109   3.783  17.378  0.00  0.00    +0.000 A 
ATOM      6  C   UNL     1       4.366   5.071  17.950  0.00  0.00    +0.000 A 
ENDROOT
BRANCH   6   7
ATOM      7  C   UNL     1       5.816   5.548  18.018  0.00  0.00    +0.000 C 
ATOM      8  O   UNL     1       6.720   4.787  18.488  0.00  0.00    +0.000 OA
ATOM      9  N   UNL     1       6.179   6.854  17.523  0.00  0.00    +0.000 N 
ATOM     10  H   UNL     1       5.360   7.454  17.444  0.00  0.00    +0.000 HD
BRANCH   9  11
ATOM     11  C   UNL     1       7.484   7.581  17.749  0.00  0.00    +0.000 C 
BRANCH  11  12
ATOM     12  C   UNL     1       7.701   9.187  17.526  0.00  0.00    +0.000 C 
BRANCH  12  13
ATOM     13  C   UNL     1       8.847  10.073  18.242  0.00  0.00    +0.000 A 
ATOM     14  C   UNL     1       9.203   9.530  19.469  0.00  0.00    +0.000 A 
ATOM     15  N   UNL     1       9.171  10.678  20.244  0.00  0.00    +0.000 N 
ATOM     16  C   UNL     1      10.141  11.448  19.659  0.00  0.00    +0.000 A 
ATOM     17  C   UNL     1      11.051  12.268  20.334  0.00  0.00    +0.000 A 
ATOM     18  C   UNL     1      12.078  12.844  19.619  0.00  0.00    +0.000 A 
ATOM     19  C   UNL     1      12.093  12.683  18.232  0.00  0.00    +0.000 A 
ATOM     20  C   UNL     1      11.037  11.915  17.537  0.00  0.00    +0.000 A 
ATOM     21  C   UNL     1      10.021  11.171  18.268  0.00  0.00    +0.000 A 
ATOM     22  H   UNL     1       8.342  11.107  20.625  0.00  0.00    +0.000 HD
ENDBRANCH  12  13
ENDBRANCH  11  12
ENDBRANCH   9  11
ENDBRANCH   6   7
BRANCH   1  23
ATOM     23  O   UNL     1       3.328   7.068  18.923  0.00  0.00    +0.000 OA
BRANCH  23  25
ATOM     24  N   UNL     1       1.726   8.738  19.309  0.00  0.00    +0.000 N 
ATOM     25  C   UNL     1       2.557   8.110  18.375  0.00  0.00    +0.000 C 
ATOM     26  O   UNL     1       2.635   8.457  17.204  0.00  0.00    +0.000 OA
BRANCH  24  27
ATOM     27  C   UNL     1       0.984   9.935  18.860  0.00  0.00    +0.000 C 
BRANCH  27  29
ATOM     28  C   UNL     1      -1.290  11.019  18.183  0.00  0.00    +0.000 C 
ATOM     29  C   UNL     1      -0.424   9.765  18.267  0.00  0.00    +0.000 C 
ENDBRANCH  27  29
ENDBRANCH  24  27
BRANCH  24  30
ATOM     30  C   UNL     1       1.471   8.116  20.613  0.00  0.00    +0.000 C 
BRANCH  30  31
ATOM     31  C   UNL     1       1.063   9.055  21.756  0.00  0.00    +0.000 C 
ATOM     32  C   UNL     1      -0.388   9.023  22.213  0.00  0.00    +0.000 C 
ENDBRANCH  30  31
ENDBRANCH  24  30
ENDBRANCH  23  25
ENDBRANCH   1  23
TORSDOF 10
ENDMDL
MODEL 8
REMARK VINA RESULT:      -7.7      1.448      1.824
REMARK  Name = 
REMARK  12 active torsions:
REMARK  status: ('A' for Active; 'I' for Inactive)
REMARK    1  A    between atoms: C_1  and  C_2
REMARK    2  A    between atoms: C_2  and  C_3
REMARK    3  A    between atoms: C_3  and  N_4
REMARK    4  A    between atoms: N_4  and  C_5
REMARK    5  A    between atoms: C_5  and  C_6
REMARK    6  A    between atoms: C_6  and  C_7
REMARK    7  A    between atoms: C_8  and  O_10
REMARK    8  A    between atoms: O_10  and  C_11
REMARK    9  A    between atoms: C_16  and  C_17
REMARK   10  A    between atoms: N_19  and  C_20
REMARK   11  A    between atoms: C_20  and  C_21
REMARK   12  A    between atoms: C_21  and  C_22
REMARK                            x       y       z     vdW  Elec       q    Type
REMARK                         _______ _______ _______ _____ _____    ______ ____
ROOT
ATOM      1  C   UNL     1       3.534   3.391  19.677  0.00  0.00    +0.000 A 
ATOM      2  C   UNL     1       3.716   2.414  20.735  0.00  0.00    +0.000 A 
ATOM      3  C   UNL     1       2.704   2.142  21.644  0.00  0.00    +0.000 A 
ATOM      4  C   UNL     1       1.520   2.857  21.560  0.00  0.00    +0.000 A 
ATOM      5  C   UNL     1       1.350   3.829  20.537  0.00  0.00    +0.000 A 
ATOM      6  C   UNL     1       2.357   4.124  19.563  0.00  0.00    +0.000 A 
ENDROOT
BRANCH   6   7
ATOM      7  C   UNL     1       2.066   5.222  18.541  0.00  0.00    +0.000 C 
ATOM      8  O   UNL     1       1.613   4.924  17.391  0.00  0.00    +0.000 OA
ATOM      9  N   UNL     1       2.273   6.609  18.881  0.00  0.00    +0.000 N 
ATOM     10  H   UNL     1       2.885   6.699  19.689  0.00  0.00    +0.000 HD
BRANCH   9  11
ATOM     11  C   UNL     1       2.293   7.784  17.931  0.00  0.00    +0.000 C 
BRANCH  11  12
ATOM     12  C   UNL     1       1.563   9.219  18.216  0.00  0.00    +0.000 C 
BRANCH  12  13
ATOM     13  C   UNL     1       0.877   9.647  19.616  0.00  0.00    +0.000 A 
ATOM     14  C   UNL     1       1.670   9.275  20.693  0.00  0.00    +0.000 A 
ATOM     15  N   UNL     1       0.704   8.690  21.495  0.00  0.00    +0.000 N 
ATOM     16  C   UNL     1      -0.140   9.740  21.744  0.00  0.00    +0.000 A 
ATOM     17  C   UNL     1      -0.777  10.005  22.961  0.00  0.00    +0.000 A 
ATOM     18  C   UNL     1      -1.455  11.196  23.105  0.00  0.00    +0.000 A 
ATOM     19  C   UNL     1      -1.580  12.028  21.990  0.00  0.00    +0.000 A 
ATOM     20  C   UNL     1      -1.003  11.651  20.682  0.00  0.00    +0.000 A 
ATOM     21  C   UNL     1      -0.157  10.475  20.526  0.00  0.00    +0.000 A 
ATOM     22  H   UNL     1       0.336   7.757  21.388  0.00  0.00    +0.000 HD
ENDBRANCH  12  13
ENDBRANCH  11  12
ENDBRANCH   9  11
ENDBRANCH   6   7
BRANCH   1  23
ATOM     23  O   UNL     1       4.623   3.576  18.801  0.00  0.00    +0.000 OA
BRANCH  23  25
ATOM     24  N   UNL     1       5.410   5.348  17.481  0.00  0.00    +0.000 N 
ATOM     25  C   UNL     1       5.270   4.825  18.771  0.00  0.00    +0.000 C 
ATOM     26  O   UNL     1       5.639   5.414  19.778  0.00  0.00    +0.000 OA
BRANCH  24  27
ATOM     27  C   UNL     1       5.948   6.719  17.358  0.00  0.00    +0.000 C 
BRANCH  27  29
ATOM     28  C   UNL     1       7.947   8.363  17.689  0.00  0.00    +0.000 C 
ATOM     29  C   UNL     1       7.468   6.936  17.431  0.00  0.00    +0.000 C 
ENDBRANCH  27  29
ENDBRANCH  24  27
BRANCH  24  30
ATOM     30  C   UNL     1       5.201   4.494  16.306  0.00  0.00    +0.000 C 
BRANCH  30  31
ATOM     31  C   UNL     1       5.514   5.115  14.938  0.00  0.00    +0.000 C 
ATOM     32  C   UNL     1       6.845   4.766  14.291  0.00  0.00    +0.000 C 
ENDBRANCH  30  31
ENDBRANCH  24  30
ENDBRANCH  23  25
ENDBRANCH   1  23
TORSDOF 10
ENDMDL
MODEL 9
REMARK VINA RESULT:      -7.7      1.660      8.565
REMARK  Name = 
REMARK  12 active torsions:
REMARK  status: ('A' for Active; 'I' for Inactive)
REMARK    1  A    between atoms: C_1  and  C_2
REMARK    2  A    between atoms: C_2  and  C_3
REMARK    3  A    between atoms: C_3  and  N_4
REMARK    4  A    between atoms: N_4  and  C_5
REMARK    5  A    between atoms: C_5  and  C_6
REMARK    6  A    between atoms: C_6  and  C_7
REMARK    7  A    between atoms: C_8  and  O_10
REMARK    8  A    between atoms: O_10  and  C_11
REMARK    9  A    between atoms: C_16  and  C_17
REMARK   10  A    between atoms: N_19  and  C_20
REMARK   11  A    between atoms: C_20  and  C_21
REMARK   12  A    between atoms: C_21  and  C_22
REMARK                            x       y       z     vdW  Elec       q    Type
REMARK                         _______ _______ _______ _____ _____    ______ ____
ROOT
ATOM      1  C   UNL     1       2.269   4.822  19.985  0.00  0.00    +0.000 A 
ATOM      2  C   UNL     1       0.911   4.343  20.168  0.00  0.00    +0.000 A 
ATOM      3  C   UNL     1       0.560   3.038  19.853  0.00  0.00    +0.000 A 
ATOM      4  C   UNL     1       1.520   2.201  19.307  0.00  0.00    +0.000 A 
ATOM      5  C   UNL     1       2.844   2.676  19.107  0.00  0.00    +0.000 A 
ATOM      6  C   UNL     1       3.257   4.006  19.443  0.00  0.00    +0.000 A 
ENDROOT
BRANCH   6   7
ATOM      7  C   UNL     1       4.700   4.406  19.139  0.00  0.00    +0.000 C 
ATOM      8  O   UNL     1       5.657   3.614  19.415  0.00  0.00    +0.000 OA
ATOM      9  N   UNL     1       4.990   5.671  18.508  0.00  0.00    +0.000 N 
ATOM     10  H   UNL     1       4.204   6.312  18.598  0.00  0.00    +0.000 HD
BRANCH   9  11
ATOM     11  C   UNL     1       6.342   6.333  18.379  0.00  0.00    +0.000 C 
BRANCH  11  12
ATOM     12  C   UNL     1       7.268   6.295  17.032  0.00  0.00    +0.000 C 
BRANCH  12  13
ATOM     13  C   UNL     1       6.877   5.535  15.661  0.00  0.00    +0.000 A 
ATOM     14  C   UNL     1       5.505   5.334  15.577  0.00  0.00    +0.000 A 
ATOM     15  N   UNL     1       5.494   4.002  15.200  0.00  0.00    +0.000 N 
ATOM     16  C   UNL     1       6.139   4.038  13.992  0.00  0.00    +0.000 A 
ATOM     17  C   UNL     1       5.803   3.283  12.863  0.00  0.00    +0.000 A 
ATOM     18  C   UNL     1       6.437   3.559  11.671  0.00  0.00    +0.000 A 
ATOM     19  C   UNL     1       7.473   4.495  11.673  0.00  0.00    +0.000 A 
ATOM     20  C   UNL     1       7.890   5.179  12.916  0.00  0.00    +0.000 A 
ATOM     21  C   UNL     1       7.150   5.024  14.162  0.00  0.00    +0.000 A 
ATOM     22  H   UNL     1       5.615   3.214  15.817  0.00  0.00    +0.000 HD
ENDBRANCH  12  13
ENDBRANCH  11  12
ENDBRANCH   9  11
ENDBRANCH   6   7
BRANCH   1  23
ATOM     23  O   UNL     1       2.517   6.159  20.353  0.00  0.00    +0.000 OA
BRANCH  23  25
ATOM     24  N   UNL     1       1.655   8.308  19.977  0.00  0.00    +0.000 N 
ATOM     25  C   UNL     1       2.268   7.181  19.419  0.00  0.00    +0.000 C 
ATOM     26  O   UNL     1       2.591   7.106  18.241  0.00  0.00    +0.000 OA
BRANCH  24  27
ATOM     27  C   UNL     1       1.482   9.489  19.105  0.00  0.00    +0.000 C 
BRANCH  27  29
ATOM     28  C   UNL     1      -0.972  10.341  18.870  0.00  0.00    +0.000 C 
ATOM     29  C   UNL     1       0.213   9.608  18.246  0.00  0.00    +0.000 C 
ENDBRANCH  27  29
ENDBRANCH  24  27
BRANCH  24  30
ATOM     30  C   UNL     1       1.050   8.240  21.312  0.00  0.00    +0.000 C 
BRANCH  30  31
ATOM     31  C   UNL     1       0.833   9.574  22.039  0.00  0.00    +0.000 C 
ATOM     32  C   UNL     1      -0.172   9.602  23.180  0.00  0.00    +0.000 C 
ENDBRANCH  30  31
ENDBRANCH  24  30
ENDBRANCH  23  25
ENDBRANCH   1  23
TORSDOF 10
ENDMDL
