MODEL 1
REMARK VINA RESULT:      -6.4      0.000      0.000
REMARK  Name = 
REMARK  3 active torsions:
REMARK  status: ('A' for Active; 'I' for Inactive)
REMARK    1  A    between atoms: C_1  and  N_2
REMARK    2  A    between atoms: N_2  and  C_3
REMARK    3  A    between atoms: C_13  and  N_14
REMARK                            x       y       z     vdW  Elec       q    Type
REMARK                         _______ _______ _______ _____ _____    ______ ____
ROOT
ATOM      1  C   UNL     1       2.615   2.953  20.764  0.00  0.00    +0.000 C 
ATOM      2  N   UNL     1       2.579   2.929  19.322  0.00  0.00    +0.000 N 
ATOM      3  C   UNL     1       1.638   2.105  18.604  0.00  0.00    +0.000 C 
ATOM      4  C   UNL     1       3.571   3.576  18.618  0.00  0.00    +0.000 A 
ATOM      5  N   UNL     1       3.515   3.579  17.277  0.00  0.00    +0.000 NA
ATOM      6  C   UNL     1       4.474   4.255  16.614  0.00  0.00    +0.000 A 
ATOM      7  C   UNL     1       5.501   4.939  17.229  0.00  0.00    +0.000 A 
ATOM      8  C   UNL     1       5.512   4.843  18.607  0.00  0.00    +0.000 A 
ATOM      9  N   UNL     1       4.552   4.192  19.300  0.00  0.00    +0.000 NA
ATOM     10  C   UNL     1       6.580   5.509  19.435  0.00  0.00    +0.000 C 
ATOM     11  C   UNL     1       7.804   5.923  18.620  0.00  0.00    +0.000 C 
ATOM     12  C   UNL     1       7.366   6.629  17.340  0.00  0.00    +0.000 C 
ATOM     13  C   UNL     1       6.527   5.702  16.441  0.00  0.00    +0.000 C 
ENDROOT
BRANCH  13  14
ATOM     14  N   UNL     1       7.385   4.782  15.691  0.00  0.00    +0.000 NA
ATOM     15  H   UNL     1       8.365   4.975  15.898  0.00  0.00    +0.000 HD
ATOM     16  H   UNL     1       7.269   4.942  14.692  0.00  0.00    +0.000 HD
ENDBRANCH  13  14
TORSDOF 1
ENDMDL
MODEL 2
REMARK VINA RESULT:      -6.4      1.582      5.359
REMARK  Name = 
REMARK  3 active torsions:
REMARK  status: ('A' for Active; 'I' for Inactive)
REMARK    1  A    between atoms: C_1  and  N_2
REMARK    2  A    between atoms: N_2  and  C_3
REMARK    3  A    between atoms: C_13  and  N_14
REMARK                            x       y       z     vdW  Elec       q    Type
REMARK                         _______ _______ _______ _____ _____    ______ ____
ROOT
ATOM      1  C   UNL     1       5.385   4.270  15.207  0.00  0.00    +0.000 C 
ATOM      2  N   UNL     1       5.921   4.381  16.542  0.00  0.00    +0.000 N 
ATOM      3  C   UNL     1       7.337   4.521  16.778  0.00  0.00    +0.000 C 
ATOM      4  C   UNL     1       5.083   4.182  17.618  0.00  0.00    +0.000 A 
ATOM      5  N   UNL     1       5.579   4.318  18.857  0.00  0.00    +0.000 NA
ATOM      6  C   UNL     1       4.728   4.159  19.890  0.00  0.00    +0.000 A 
ATOM      7  C   UNL     1       3.388   3.867  19.748  0.00  0.00    +0.000 A 
ATOM      8  C   UNL     1       2.972   3.694  18.443  0.00  0.00    +0.000 A 
ATOM      9  N   UNL     1       3.797   3.869  17.385  0.00  0.00    +0.000 NA
ATOM     10  C   UNL     1       1.545   3.345  18.109  0.00  0.00    +0.000 C 
ATOM     11  C   UNL     1       0.755   2.825  19.309  0.00  0.00    +0.000 C 
ATOM     12  C   UNL     1       0.995   3.721  20.521  0.00  0.00    +0.000 C 
ATOM     13  C   UNL     1       2.478   3.730  20.934  0.00  0.00    +0.000 C 
ENDROOT
BRANCH  13  14
ATOM     14  N   UNL     1       2.814   2.529  21.702  0.00  0.00    +0.000 NA
ATOM     15  H   UNL     1       3.725   2.645  22.147  0.00  0.00    +0.000 HD
ATOM     16  H   UNL     1       2.906   1.733  21.073  0.00  0.00    +0.000 HD
ENDBRANCH  13  14
TORSDOF 1
ENDMDL
MODEL 3
REMARK VINA RESULT:      -6.3      2.146      5.065
REMARK  Name = 
REMARK  3 active torsions:
REMARK  status: ('A' for Active; 'I' for Inactive)
REMARK    1  A    between atoms: C_1  and  N_2
REMARK    2  A    between atoms: N_2  and  C_3
REMARK    3  A    between atoms: C_13  and  N_14
REMARK                            x       y       z     vdW  Elec       q    Type
REMARK                         _______ _______ _______ _____ _____    ______ ____
ROOT
ATOM      1  C   UNL     1       6.025   3.530  12.805  0.00  0.00    +0.000 C 
ATOM      2  N   UNL     1       6.820   4.518  13.494  0.00  0.00    +0.000 N 
ATOM      3  C   UNL     1       7.958   5.142  12.866  0.00  0.00    +0.000 C 
ATOM      4  C   UNL     1       6.588   4.747  14.833  0.00  0.00    +0.000 A 
ATOM      5  N   UNL     1       7.307   5.690  15.460  0.00  0.00    +0.000 NA
ATOM      6  C   UNL     1       7.032   5.923  16.759  0.00  0.00    +0.000 A 
ATOM      7  C   UNL     1       6.061   5.254  17.474  0.00  0.00    +0.000 A 
ATOM      8  C   UNL     1       5.403   4.267  16.766  0.00  0.00    +0.000 A 
ATOM      9  N   UNL     1       5.642   4.025  15.457  0.00  0.00    +0.000 NA
ATOM     10  C   UNL     1       4.331   3.421  17.403  0.00  0.00    +0.000 C 
ATOM     11  C   UNL     1       4.340   3.485  18.930  0.00  0.00    +0.000 C 
ATOM     12  C   UNL     1       4.459   4.934  19.392  0.00  0.00    +0.000 C 
ATOM     13  C   UNL     1       5.775   5.575  18.912  0.00  0.00    +0.000 C 
ENDROOT
BRANCH  13  14
ATOM     14  N   UNL     1       6.896   5.167  19.761  0.00  0.00    +0.000 NA
ATOM     15  H   UNL     1       7.769   5.535  19.384  0.00  0.00    +0.000 HD
ATOM     16  H   UNL     1       6.986   4.152  19.746  0.00  0.00    +0.000 HD
ENDBRANCH  13  14
TORSDOF 1
ENDMDL
MODEL 4
REMARK VINA RESULT:      -6.3      1.640      5.090
REMARK  Name = 
REMARK  3 active torsions:
REMARK  status: ('A' for Active; 'I' for Inactive)
REMARK    1  A    between atoms: C_1  and  N_2
REMARK    2  A    between atoms: N_2  and  C_3
REMARK    3  A    between atoms: C_13  and  N_14
REMARK                            x       y       z     vdW  Elec       q    Type
REMARK                         _______ _______ _______ _____ _____    ______ ____
ROOT
ATOM      1  C   UNL     1       5.865   6.900  17.186  0.00  0.00    +0.000 C 
ATOM      2  N   UNL     1       5.645   5.557  16.707  0.00  0.00    +0.000 N 
ATOM      3  C   UNL     1       6.262   5.076  15.495  0.00  0.00    +0.000 C 
ATOM      4  C   UNL     1       4.698   4.772  17.328  0.00  0.00    +0.000 A 
ATOM      5  N   UNL     1       4.520   3.513  16.901  0.00  0.00    +0.000 NA
ATOM      6  C   UNL     1       3.617   2.754  17.553  0.00  0.00    +0.000 A 
ATOM      7  C   UNL     1       2.871   3.194  18.626  0.00  0.00    +0.000 A 
ATOM      8  C   UNL     1       3.080   4.515  18.969  0.00  0.00    +0.000 A 
ATOM      9  N   UNL     1       3.994   5.294  18.348  0.00  0.00    +0.000 NA
ATOM     10  C   UNL     1       2.328   5.165  20.101  0.00  0.00    +0.000 C 
ATOM     11  C   UNL     1       1.090   4.379  20.532  0.00  0.00    +0.000 C 
ATOM     12  C   UNL     1       1.433   2.899  20.674  0.00  0.00    +0.000 C 
ATOM     13  C   UNL     1       1.900   2.295  19.336  0.00  0.00    +0.000 C 
ENDROOT
BRANCH  13  14
ATOM     14  N   UNL     1       0.757   1.992  18.472  0.00  0.00    +0.000 NA
ATOM     15  H   UNL     1       1.066   1.912  17.503  0.00  0.00    +0.000 HD
ATOM     16  H   UNL     1       0.095   2.766  18.494  0.00  0.00    +0.000 HD
ENDBRANCH  13  14
TORSDOF 1
ENDMDL
MODEL 5
REMARK VINA RESULT:      -6.3      1.629      4.810
REMARK  Name = 
REMARK  3 active torsions:
REMARK  status: ('A' for Active; 'I' for Inactive)
REMARK    1  A    between atoms: C_1  and  N_2
REMARK    2  A    between atoms: N_2  and  C_3
REMARK    3  A    between atoms: C_13  and  N_14
REMARK                            x       y       z     vdW  Elec       q    Type
REMARK                         _______ _______ _______ _____ _____    ______ ____
ROOT
ATOM      1  C   UNL     1       8.113   5.757  19.546  0.00  0.00    +0.000 C 
ATOM      2  N   UNL     1       7.306   6.164  18.422  0.00  0.00    +0.000 N 
ATOM      3  C   UNL     1       7.610   7.353  17.664  0.00  0.00    +0.000 C 
ATOM      4  C   UNL     1       6.125   5.499  18.170  0.00  0.00    +0.000 A 
ATOM      5  N   UNL     1       5.395   5.859  17.104  0.00  0.00    +0.000 NA
ATOM      6  C   UNL     1       4.267   5.164  16.857  0.00  0.00    +0.000 A 
ATOM      7  C   UNL     1       3.824   4.112  17.630  0.00  0.00    +0.000 A 
ATOM      8  C   UNL     1       4.608   3.839  18.734  0.00  0.00    +0.000 A 
ATOM      9  N   UNL     1       5.756   4.504  18.996  0.00  0.00    +0.000 NA
ATOM     10  C   UNL     1       4.255   2.738  19.700  0.00  0.00    +0.000 C 
ATOM     11  C   UNL     1       2.809   2.261  19.568  0.00  0.00    +0.000 C 
ATOM     12  C   UNL     1       2.462   2.044  18.098  0.00  0.00    +0.000 C 
ATOM     13  C   UNL     1       2.575   3.351  17.291  0.00  0.00    +0.000 C 
ENDROOT
BRANCH  13  14
ATOM     14  N   UNL     1       1.393   4.193  17.491  0.00  0.00    +0.000 NA
ATOM     15  H   UNL     1       0.549   3.621  17.456  0.00  0.00    +0.000 HD
ATOM     16  H   UNL     1       1.314   4.860  16.725  0.00  0.00    +0.000 HD
ENDBRANCH  13  14
TORSDOF 1
ENDMDL
MODEL 6
REMARK VINA RESULT:      -6.2      1.437      5.380
REMARK  Name = 
REMARK  3 active torsions:
REMARK  status: ('A' for Active; 'I' for Inactive)
REMARK    1  A    between atoms: C_1  and  N_2
REMARK    2  A    between atoms: N_2  and  C_3
REMARK    3  A    between atoms: C_13  and  N_14
REMARK                            x       y       z     vdW  Elec       q    Type
REMARK                         _______ _______ _______ _____ _____    ______ ____
ROOT
ATOM      1  C   UNL     1       6.297   4.059  15.667  0.00  0.00    +0.000 C 
ATOM      2  N   UNL     1       6.179   4.918  16.820  0.00  0.00    +0.000 N 
ATOM      3  C   UNL     1       7.219   5.852  17.176  0.00  0.00    +0.000 C 
ATOM      4  C   UNL     1       5.130   4.725  17.693  0.00  0.00    +0.000 A 
ATOM      5  N   UNL     1       5.006   5.548  18.746  0.00  0.00    +0.000 NA
ATOM      6  C   UNL     1       3.947   5.363  19.559  0.00  0.00    +0.000 A 
ATOM      7  C   UNL     1       2.992   4.387  19.374  0.00  0.00    +0.000 A 
ATOM      8  C   UNL     1       3.222   3.554  18.296  0.00  0.00    +0.000 A 
ATOM      9  N   UNL     1       4.262   3.728  17.449  0.00  0.00    +0.000 NA
ATOM     10  C   UNL     1       2.291   2.418  17.964  0.00  0.00    +0.000 C 
ATOM     11  C   UNL     1       1.354   2.050  19.114  0.00  0.00    +0.000 C 
ATOM     12  C   UNL     1       0.738   3.313  19.711  0.00  0.00    +0.000 C 
ATOM     13  C   UNL     1       1.815   4.246  20.295  0.00  0.00    +0.000 C 
ENDROOT
BRANCH  13  14
ATOM     14  N   UNL     1       2.250   3.783  21.614  0.00  0.00    +0.000 NA
ATOM     15  H   UNL     1       3.003   3.102  21.512  0.00  0.00    +0.000 HD
ATOM     16  H   UNL     1       1.485   3.292  22.075  0.00  0.00    +0.000 HD
ENDBRANCH  13  14
TORSDOF 1
ENDMDL
MODEL 7
REMARK VINA RESULT:      -6.0      1.060      1.130
REMARK  Name = 
REMARK  3 active torsions:
REMARK  status: ('A' for Active; 'I' for Inactive)
REMARK    1  A    between atoms: C_1  and  N_2
REMARK    2  A    between atoms: N_2  and  C_3
REMARK    3  A    between atoms: C_13  and  N_14
REMARK                            x       y       z     vdW  Elec       q    Type
REMARK                         _______ _______ _______ _____ _____    ______ ____
ROOT
ATOM      1  C   UNL     1       2.231   3.911  21.432  0.00  0.00    +0.000 C 
ATOM      2  N   UNL     1       1.950   3.567  20.060  0.00  0.00    +0.000 N 
ATOM      3  C   UNL     1       0.762   2.836  19.692  0.00  0.00    +0.000 C 
ATOM      4  C   UNL     1       2.915   3.794  19.102  0.00  0.00    +0.000 A 
ATOM      5  N   UNL     1       2.637   3.503  17.822  0.00  0.00    +0.000 NA
ATOM      6  C   UNL     1       3.583   3.773  16.902  0.00  0.00    +0.000 A 
ATOM      7  C   UNL     1       4.810   4.328  17.196  0.00  0.00    +0.000 A 
ATOM      8  C   UNL     1       5.034   4.550  18.541  0.00  0.00    +0.000 A 
ATOM      9  N   UNL     1       4.096   4.309  19.485  0.00  0.00    +0.000 NA
ATOM     10  C   UNL     1       6.332   5.127  19.040  0.00  0.00    +0.000 C 
ATOM     11  C   UNL     1       7.460   5.055  18.011  0.00  0.00    +0.000 C 
ATOM     12  C   UNL     1       6.956   5.530  16.651  0.00  0.00    +0.000 C 
ATOM     13  C   UNL     1       5.817   4.637  16.125  0.00  0.00    +0.000 C 
ENDROOT
BRANCH  13  14
ATOM     14  N   UNL     1       6.345   3.400  15.546  0.00  0.00    +0.000 NA
ATOM     15  H   UNL     1       7.176   3.604  14.991  0.00  0.00    +0.000 HD
ATOM     16  H   UNL     1       5.663   3.005  14.901  0.00  0.00    +0.000 HD
ENDBRANCH  13  14
TORSDOF 1
ENDMDL
MODEL 8
REMARK VINA RESULT:      -6.0      1.557      4.902
REMARK  Name = 
REMARK  3 active torsions:
REMARK  status: ('A' for Active; 'I' for Inactive)
REMARK    1  A    between atoms: C_1  and  N_2
REMARK    2  A    between atoms: N_2  and  C_3
REMARK    3  A    between atoms: C_13  and  N_14
REMARK                            x       y       z     vdW  Elec       q    Type
REMARK                         _______ _______ _______ _____ _____    ______ ____
ROOT
ATOM      1  C   UNL     1       7.398   5.688  19.070  0.00  0.00    +0.000 C 
ATOM      2  N   UNL     1       6.808   4.852  18.054  0.00  0.00    +0.000 N 
ATOM      3  C   UNL     1       7.483   4.586  16.807  0.00  0.00    +0.000 C 
ATOM      4  C   UNL     1       5.503   4.434  18.206  0.00  0.00    +0.000 A 
ATOM      5  N   UNL     1       4.969   3.629  17.275  0.00  0.00    +0.000 NA
ATOM      6  C   UNL     1       3.706   3.202  17.470  0.00  0.00    +0.000 A 
ATOM      7  C   UNL     1       2.937   3.541  18.563  0.00  0.00    +0.000 A 
ATOM      8  C   UNL     1       3.544   4.412  19.446  0.00  0.00    +0.000 A 
ATOM      9  N   UNL     1       4.817   4.840  19.289  0.00  0.00    +0.000 NA
ATOM     10  C   UNL     1       2.836   4.906  20.680  0.00  0.00    +0.000 C 
ATOM     11  C   UNL     1       1.324   4.686  20.636  0.00  0.00    +0.000 C 
ATOM     12  C   UNL     1       1.016   3.266  20.169  0.00  0.00    +0.000 C 
ATOM     13  C   UNL     1       1.544   3.011  18.746  0.00  0.00    +0.000 C 
ENDROOT
BRANCH  13  14
ATOM     14  N   UNL     1       0.643   3.583  17.743  0.00  0.00    +0.000 NA
ATOM     15  H   UNL     1       0.281   4.478  18.071  0.00  0.00    +0.000 HD
ATOM     16  H   UNL     1      -0.167   2.977  17.623  0.00  0.00    +0.000 HD
ENDBRANCH  13  14
TORSDOF 1
ENDMDL
MODEL 9
REMARK VINA RESULT:      -6.0      1.599      5.268
REMARK  Name = 
REMARK  3 active torsions:
REMARK  status: ('A' for Active; 'I' for Inactive)
REMARK    1  A    between atoms: C_1  and  N_2
REMARK    2  A    between atoms: N_2  and  C_3
REMARK    3  A    between atoms: C_13  and  N_14
REMARK                            x       y       z     vdW  Elec       q    Type
REMARK                         _______ _______ _______ _____ _____    ______ ____
ROOT
ATOM      1  C   UNL     1       7.351   4.571  16.868  0.00  0.00    +0.000 C 
ATOM      2  N   UNL     1       6.425   5.599  17.275  0.00  0.00    +0.000 N 
ATOM      3  C   UNL     1       6.825   6.982  17.366  0.00  0.00    +0.000 C 
ATOM      4  C   UNL     1       5.183   5.233  17.746  0.00  0.00    +0.000 A 
ATOM      5  N   UNL     1       4.314   6.194  18.092  0.00  0.00    +0.000 NA
ATOM      6  C   UNL     1       3.092   5.809  18.509  0.00  0.00    +0.000 A 
ATOM      7  C   UNL     1       2.686   4.495  18.600  0.00  0.00    +0.000 A 
ATOM      8  C   UNL     1       3.657   3.569  18.273  0.00  0.00    +0.000 A 
ATOM      9  N   UNL     1       4.884   3.925  17.830  0.00  0.00    +0.000 NA
ATOM     10  C   UNL     1       3.391   2.088  18.342  0.00  0.00    +0.000 C 
ATOM     11  C   UNL     1       2.149   1.736  19.160  0.00  0.00    +0.000 C 
ATOM     12  C   UNL     1       0.987   2.641  18.761  0.00  0.00    +0.000 C 
ATOM     13  C   UNL     1       1.300   4.122  19.043  0.00  0.00    +0.000 C 
ENDROOT
BRANCH  13  14
ATOM     14  N   UNL     1       1.115   4.436  20.462  0.00  0.00    +0.000 NA
ATOM     15  H   UNL     1       0.381   5.136  20.569  0.00  0.00    +0.000 HD
ATOM     16  H   UNL     1       1.964   4.857  20.834  0.00  0.00    +0.000 HD
ENDBRANCH  13  14
TORSDOF 1
ENDMDL
