MODEL 1
REMARK VINA RESULT:      -7.8      0.000      0.000
REMARK  Name = 
REMARK  8 active torsions:
REMARK  status: ('A' for Active; 'I' for Inactive)
REMARK    1  A    between atoms: C_1  and  O_2
REMARK    2  A    between atoms: O_2  and  C_3
REMARK    3  A    between atoms: C_5  and  N_6
REMARK    4  A    between atoms: N_6  and  S_7
REMARK    5  A    between atoms: S_7  and  C_10
REMARK    6  A    between atoms: C_18  and  N_19
REMARK    7  A    between atoms: C_21  and  C_22
REMARK    8  A    between atoms: C_24  and  C_25
REMARK                            x       y       z     vdW  Elec       q    Type
REMARK                         _______ _______ _______ _____ _____    ______ ____
ROOT
ATOM      1  C   UNL     1       0.840   9.043  20.390  0.00  0.00    +0.000 A 
ATOM      2  C   UNL     1       1.545   7.842  20.599  0.00  0.00    +0.000 A 
ATOM      3  C   UNL     1       2.362   7.308  19.610  0.00  0.00    +0.000 A 
ATOM      4  C   UNL     1       2.495   7.960  18.395  0.00  0.00    +0.000 A 
ATOM      5  C   UNL     1       1.761   9.125  18.153  0.00  0.00    +0.000 A 
ATOM      6  C   UNL     1       0.896   9.666  19.124  0.00  0.00    +0.000 A 
ENDROOT
BRANCH   6   7
ATOM      7  N   UNL     1       0.132  10.839  18.798  0.00  0.00    +0.000 N 
ATOM      8  N   UNL     1       0.595  12.083  19.092  0.00  0.00    +0.000 NA
ATOM      9  C   UNL     1      -0.298  12.938  18.590  0.00  0.00    +0.000 A 
ATOM     10  C   UNL     1      -0.129  14.404  18.728  0.00  0.00    +0.000 C 
ATOM     11  C   UNL     1      -1.372  12.271  17.979  0.00  0.00    +0.000 A 
ATOM     12  C   UNL     1      -1.106  10.925  18.146  0.00  0.00    +0.000 A 
ATOM     13  C   UNL     1      -2.012   9.796  17.804  0.00  0.00    +0.000 C 
ENDBRANCH   6   7
BRANCH   1  15
ATOM     14  C   UNL     1       0.502   9.372  22.712  0.00  0.00    +0.000 C 
ATOM     15  O   UNL     1       0.023   9.536  21.376  0.00  0.00    +0.000 OA
ENDBRANCH   1  15
BRANCH   3  16
ATOM     16  N   UNL     1       3.120   6.131  19.857  0.00  0.00    +0.000 N 
ATOM     17  H   UNL     1       4.101   6.264  20.105  0.00  0.00    +0.000 HD
BRANCH  16  18
ATOM     18  S   UNL     1       2.920   4.820  18.801  0.00  0.00    +0.000 S 
ATOM     19  O   UNL     1       2.821   3.642  19.641  0.00  0.00    +0.000 OA
ATOM     20  O   UNL     1       1.899   5.136  17.829  0.00  0.00    +0.000 OA
BRANCH  18  21
ATOM     21  C   UNL     1       4.486   4.729  17.958  0.00  0.00    +0.000 A 
ATOM     22  C   UNL     1       5.655   5.087  18.644  0.00  0.00    +0.000 A 
ATOM     23  C   UNL     1       6.889   4.984  18.002  0.00  0.00    +0.000 A 
ATOM     24  C   UNL     1       6.958   4.517  16.690  0.00  0.00    +0.000 A 
ATOM     25  C   UNL     1       5.793   4.142  16.016  0.00  0.00    +0.000 A 
ATOM     26  C   UNL     1       4.554   4.241  16.651  0.00  0.00    +0.000 A 
ENDBRANCH  18  21
ENDBRANCH  16  18
ENDBRANCH   3  16
TORSDOF 5
ENDMDL
MODEL 2
REMARK VINA RESULT:      -7.8      0.837      1.832
REMARK  Name = 
REMARK  8 active torsions:
REMARK  status: ('A' for Active; 'I' for Inactive)
REMARK    1  A    between atoms: C_1  and  O_2
REMARK    2  A    between atoms: O_2  and  C_3
REMARK    3  A    between atoms: C_5  and  N_6
REMARK    4  A    between atoms: N_6  and  S_7
REMARK    5  A    between atoms: S_7  and  C_10
REMARK    6  A    between atoms: C_18  and  N_19
REMARK    7  A    between atoms: C_21  and  C_22
REMARK    8  A    between atoms: C_24  and  C_25
REMARK                            x       y       z     vdW  Elec       q    Type
REMARK                         _______ _______ _______ _____ _____    ______ ____
ROOT
ATOM      1  C   UNL     1       0.992   8.655  20.240  0.00  0.00    +0.000 A 
ATOM      2  C   UNL     1       1.801   7.524  20.460  0.00  0.00    +0.000 A 
ATOM      3  C   UNL     1       2.659   7.052  19.474  0.00  0.00    +0.000 A 
ATOM      4  C   UNL     1       2.730   7.698  18.251  0.00  0.00    +0.000 A 
ATOM      5  C   UNL     1       1.895   8.789  17.997  0.00  0.00    +0.000 A 
ATOM      6  C   UNL     1       0.989   9.264  18.965  0.00  0.00    +0.000 A 
ENDROOT
BRANCH   6   7
ATOM      7  N   UNL     1       0.123  10.360  18.628  0.00  0.00    +0.000 N 
ATOM      8  N   UNL     1      -1.120  10.142  18.120  0.00  0.00    +0.000 NA
ATOM      9  C   UNL     1      -1.685  11.346  18.000  0.00  0.00    +0.000 A 
ATOM     10  C   UNL     1      -3.058  11.505  17.463  0.00  0.00    +0.000 C 
ATOM     11  C   UNL     1      -0.818  12.373  18.404  0.00  0.00    +0.000 A 
ATOM     12  C   UNL     1       0.351  11.736  18.774  0.00  0.00    +0.000 A 
ATOM     13  C   UNL     1       1.636  12.389  19.143  0.00  0.00    +0.000 C 
ENDBRANCH   6   7
BRANCH   1  15
ATOM     14  C   UNL     1       0.749   9.398  22.476  0.00  0.00    +0.000 C 
ATOM     15  O   UNL     1       0.138   9.086  21.223  0.00  0.00    +0.000 OA
ENDBRANCH   1  15
BRANCH   3  16
ATOM     16  N   UNL     1       3.519   5.950  19.733  0.00  0.00    +0.000 N 
ATOM     17  H   UNL     1       4.511   6.162  19.846  0.00  0.00    +0.000 HD
BRANCH  16  18
ATOM     18  S   UNL     1       3.287   4.532  18.833  0.00  0.00    +0.000 S 
ATOM     19  O   UNL     1       3.379   3.438  19.780  0.00  0.00    +0.000 OA
ATOM     20  O   UNL     1       2.135   4.688  17.976  0.00  0.00    +0.000 OA
BRANCH  18  21
ATOM     21  C   UNL     1       4.741   4.454  17.806  0.00  0.00    +0.000 A 
ATOM     22  C   UNL     1       4.608   4.089  16.459  0.00  0.00    +0.000 A 
ATOM     23  C   UNL     1       5.737   4.061  15.639  0.00  0.00    +0.000 A 
ATOM     24  C   UNL     1       6.986   4.404  16.158  0.00  0.00    +0.000 A 
ATOM     25  C   UNL     1       7.111   4.786  17.495  0.00  0.00    +0.000 A 
ATOM     26  C   UNL     1       5.986   4.818  18.321  0.00  0.00    +0.000 A 
ENDBRANCH  18  21
ENDBRANCH  16  18
ENDBRANCH   3  16
TORSDOF 5
ENDMDL
MODEL 3
REMARK VINA RESULT:      -7.7      4.710      7.314
REMARK  Name = 
REMARK  8 active torsions:
REMARK  status: ('A' for Active; 'I' for Inactive)
REMARK    1  A    between atoms: C_1  and  O_2
REMARK    2  A    between atoms: O_2  and  C_3
REMARK    3  A    between atoms: C_5  and  N_6
REMARK    4  A    between atoms: N_6  and  S_7
REMARK    5  A    between atoms: S_7  and  C_10
REMARK    6  A    between atoms: C_18  and  N_19
REMARK    7  A    between atoms: C_21  and  C_22
REMARK    8  A    between atoms: C_24  and  C_25
REMARK                            x       y       z     vdW  Elec       q    Type
REMARK                         _______ _______ _______ _____ _____    ______ ____
ROOT
ATOM      1  C   UNL     1       5.912   4.857  18.553  0.00  0.00    +0.000 A 
ATOM      2  C   UNL     1       6.869   4.747  17.526  0.00  0.00    +0.000 A 
ATOM      3  C   UNL     1       6.521   4.271  16.269  0.00  0.00    +0.000 A 
ATOM      4  C   UNL     1       5.214   3.898  16.007  0.00  0.00    +0.000 A 
ATOM      5  C   UNL     1       4.263   3.950  17.030  0.00  0.00    +0.000 A 
ATOM      6  C   UNL     1       4.598   4.391  18.324  0.00  0.00    +0.000 A 
ENDROOT
BRANCH   6   7
ATOM      7  N   UNL     1       3.588   4.377  19.347  0.00  0.00    +0.000 N 
ATOM      8  N   UNL     1       3.300   3.239  20.034  0.00  0.00    +0.000 NA
ATOM      9  C   UNL     1       2.394   3.581  20.952  0.00  0.00    +0.000 A 
ATOM     10  C   UNL     1       1.831   2.583  21.893  0.00  0.00    +0.000 C 
ATOM     11  C   UNL     1       2.056   4.941  20.870  0.00  0.00    +0.000 A 
ATOM     12  C   UNL     1       2.800   5.437  19.817  0.00  0.00    +0.000 A 
ATOM     13  C   UNL     1       2.698   6.798  19.226  0.00  0.00    +0.000 C 
ENDBRANCH   6   7
BRANCH   1  15
ATOM     14  C   UNL     1       7.673   5.622  19.940  0.00  0.00    +0.000 C 
ATOM     15  O   UNL     1       6.287   5.309  19.793  0.00  0.00    +0.000 OA
ENDBRANCH   1  15
BRANCH   3  16
ATOM     16  N   UNL     1       7.483   4.229  15.222  0.00  0.00    +0.000 N 
ATOM     17  H   UNL     1       8.462   4.311  15.498  0.00  0.00    +0.000 HD
BRANCH  16  18
ATOM     18  S   UNL     1       7.160   5.112  13.811  0.00  0.00    +0.000 S 
ATOM     19  O   UNL     1       6.046   5.983  14.131  0.00  0.00    +0.000 OA
ATOM     20  O   UNL     1       8.395   5.639  13.278  0.00  0.00    +0.000 OA
BRANCH  18  21
ATOM     21  C   UNL     1       6.547   3.877  12.683  0.00  0.00    +0.000 A 
ATOM     22  C   UNL     1       7.454   3.010  12.058  0.00  0.00    +0.000 A 
ATOM     23  C   UNL     1       6.979   2.016  11.202  0.00  0.00    +0.000 A 
ATOM     24  C   UNL     1       5.609   1.883  10.979  0.00  0.00    +0.000 A 
ATOM     25  C   UNL     1       4.707   2.735  11.619  0.00  0.00    +0.000 A 
ATOM     26  C   UNL     1       5.174   3.731  12.478  0.00  0.00    +0.000 A 
ENDBRANCH  18  21
ENDBRANCH  16  18
ENDBRANCH   3  16
TORSDOF 5
ENDMDL
MODEL 4
REMARK VINA RESULT:      -7.6      0.630      1.116
REMARK  Name = 
REMARK  8 active torsions:
REMARK  status: ('A' for Active; 'I' for Inactive)
REMARK    1  A    between atoms: C_1  and  O_2
REMARK    2  A    between atoms: O_2  and  C_3
REMARK    3  A    between atoms: C_5  and  N_6
REMARK    4  A    between atoms: N_6  and  S_7
REMARK    5  A    between atoms: S_7  and  C_10
REMARK    6  A    between atoms: C_18  and  N_19
REMARK    7  A    between atoms: C_21  and  C_22
REMARK    8  A    between atoms: C_24  and  C_25
REMARK                            x       y       z     vdW  Elec       q    Type
REMARK                         _______ _______ _______ _____ _____    ______ ____
ROOT
ATOM      1  C   UNL     1       0.672   9.022  20.523  0.00  0.00    +0.000 A 
ATOM      2  C   UNL     1       1.346   7.806  20.749  0.00  0.00    +0.000 A 
ATOM      3  C   UNL     1       2.228   7.289  19.808  0.00  0.00    +0.000 A 
ATOM      4  C   UNL     1       2.458   7.973  18.626  0.00  0.00    +0.000 A 
ATOM      5  C   UNL     1       1.757   9.153  18.363  0.00  0.00    +0.000 A 
ATOM      6  C   UNL     1       0.829   9.678  19.283  0.00  0.00    +0.000 A 
ENDROOT
BRANCH   6   7
ATOM      7  N   UNL     1       0.103  10.870  18.935  0.00  0.00    +0.000 N 
ATOM      8  N   UNL     1       0.515  12.093  19.364  0.00  0.00    +0.000 NA
ATOM      9  C   UNL     1      -0.313  12.978  18.805  0.00  0.00    +0.000 A 
ATOM     10  C   UNL     1      -0.174  14.432  19.055  0.00  0.00    +0.000 C 
ATOM     11  C   UNL     1      -1.293  12.351  18.020  0.00  0.00    +0.000 A 
ATOM     12  C   UNL     1      -1.041  10.998  18.135  0.00  0.00    +0.000 A 
ATOM     13  C   UNL     1      -1.886   9.892  17.608  0.00  0.00    +0.000 C 
ENDBRANCH   6   7
BRANCH   1  15
ATOM     14  C   UNL     1       0.287   9.563  22.797  0.00  0.00    +0.000 C 
ATOM     15  O   UNL     1      -0.211   9.498  21.460  0.00  0.00    +0.000 OA
ENDBRANCH   1  15
BRANCH   3  16
ATOM     16  N   UNL     1       2.953   6.096  20.077  0.00  0.00    +0.000 N 
ATOM     17  H   UNL     1       3.835   6.202  20.580  0.00  0.00    +0.000 HD
BRANCH  16  18
ATOM     18  S   UNL     1       3.080   4.947  18.838  0.00  0.00    +0.000 S 
ATOM     19  O   UNL     1       3.233   3.664  19.496  0.00  0.00    +0.000 OA
ATOM     20  O   UNL     1       2.037   5.171  17.864  0.00  0.00    +0.000 OA
BRANCH  18  21
ATOM     21  C   UNL     1       4.645   5.332  18.079  0.00  0.00    +0.000 A 
ATOM     22  C   UNL     1       4.688   5.626  16.709  0.00  0.00    +0.000 A 
ATOM     23  C   UNL     1       5.904   5.964  16.115  0.00  0.00    +0.000 A 
ATOM     24  C   UNL     1       7.067   6.016  16.884  0.00  0.00    +0.000 A 
ATOM     25  C   UNL     1       7.017   5.741  18.252  0.00  0.00    +0.000 A 
ATOM     26  C   UNL     1       5.804   5.404  18.854  0.00  0.00    +0.000 A 
ENDBRANCH  18  21
ENDBRANCH  16  18
ENDBRANCH   3  16
TORSDOF 5
ENDMDL
MODEL 5
REMARK VINA RESULT:      -7.6      2.139      2.831
REMARK  Name = 
REMARK  8 active torsions:
REMARK  status: ('A' for Active; 'I' for Inactive)
REMARK    1  A    between atoms: C_1  and  O_2
REMARK    2  A    between atoms: O_2  and  C_3
REMARK    3  A    between atoms: C_5  and  N_6
REMARK    4  A    between atoms: N_6  and  S_7
REMARK    5  A    between atoms: S_7  and  C_10
REMARK    6  A    between atoms: C_18  and  N_19
REMARK    7  A    between atoms: C_21  and  C_22
REMARK    8  A    between atoms: C_24  and  C_25
REMARK                            x       y       z     vdW  Elec       q    Type
REMARK                         _______ _______ _______ _____ _____    ______ ____
ROOT
ATOM      1  C   UNL     1       1.253   8.626  20.072  0.00  0.00    +0.000 A 
ATOM      2  C   UNL     1       1.992   7.453  19.824  0.00  0.00    +0.000 A 
ATOM      3  C   UNL     1       2.687   7.282  18.633  0.00  0.00    +0.000 A 
ATOM      4  C   UNL     1       2.662   8.275  17.668  0.00  0.00    +0.000 A 
ATOM      5  C   UNL     1       1.890   9.421  17.876  0.00  0.00    +0.000 A 
ATOM      6  C   UNL     1       1.145   9.602  19.058  0.00  0.00    +0.000 A 
ENDROOT
BRANCH   6   7
ATOM      7  N   UNL     1       0.332  10.780  19.193  0.00  0.00    +0.000 N 
ATOM      8  N   UNL     1       0.769  11.857  19.901  0.00  0.00    +0.000 NA
ATOM      9  C   UNL     1      -0.171  12.795  19.762  0.00  0.00    +0.000 A 
ATOM     10  C   UNL     1      -0.041  14.121  20.411  0.00  0.00    +0.000 C 
ATOM     11  C   UNL     1      -1.247  12.344  18.982  0.00  0.00    +0.000 A 
ATOM     12  C   UNL     1      -0.933  11.040  18.649  0.00  0.00    +0.000 A 
ATOM     13  C   UNL     1      -1.817  10.069  17.950  0.00  0.00    +0.000 C 
ENDBRANCH   6   7
BRANCH   1  15
ATOM     14  C   UNL     1       1.326   9.189  22.372  0.00  0.00    +0.000 C 
ATOM     15  O   UNL     1       0.557   8.759  21.248  0.00  0.00    +0.000 OA
ENDBRANCH   1  15
BRANCH   3  16
ATOM     16  N   UNL     1       3.484   6.124  18.423  0.00  0.00    +0.000 N 
ATOM     17  H   UNL     1       4.377   6.264  17.950  0.00  0.00    +0.000 HD
BRANCH  16  18
ATOM     18  S   UNL     1       2.711   4.715  17.882  0.00  0.00    +0.000 S 
ATOM     19  O   UNL     1       1.394   5.128  17.437  0.00  0.00    +0.000 OA
ATOM     20  O   UNL     1       3.600   3.980  17.014  0.00  0.00    +0.000 OA
BRANCH  18  21
ATOM     21  C   UNL     1       2.482   3.772  19.377  0.00  0.00    +0.000 A 
ATOM     22  C   UNL     1       3.579   3.106  19.940  0.00  0.00    +0.000 A 
ATOM     23  C   UNL     1       3.416   2.395  21.129  0.00  0.00    +0.000 A 
ATOM     24  C   UNL     1       2.171   2.358  21.756  0.00  0.00    +0.000 A 
ATOM     25  C   UNL     1       1.085   3.039  21.202  0.00  0.00    +0.000 A 
ATOM     26  C   UNL     1       1.240   3.754  20.013  0.00  0.00    +0.000 A 
ENDBRANCH  18  21
ENDBRANCH  16  18
ENDBRANCH   3  16
TORSDOF 5
ENDMDL
MODEL 6
REMARK VINA RESULT:      -7.6      0.865      1.066
REMARK  Name = 
REMARK  8 active torsions:
REMARK  status: ('A' for Active; 'I' for Inactive)
REMARK    1  A    between atoms: C_1  and  O_2
REMARK    2  A    between atoms: O_2  and  C_3
REMARK    3  A    between atoms: C_5  and  N_6
REMARK    4  A    between atoms: N_6  and  S_7
REMARK    5  A    between atoms: S_7  and  C_10
REMARK    6  A    between atoms: C_18  and  N_19
REMARK    7  A    between atoms: C_21  and  C_22
REMARK    8  A    between atoms: C_24  and  C_25
REMARK                            x       y       z     vdW  Elec       q    Type
REMARK                         _______ _______ _______ _____ _____    ______ ____
ROOT
ATOM      1  C   UNL     1       0.967   9.104  20.248  0.00  0.00    +0.000 A 
ATOM      2  C   UNL     1       1.699   7.909  20.384  0.00  0.00    +0.000 A 
ATOM      3  C   UNL     1       2.443   7.398  19.328  0.00  0.00    +0.000 A 
ATOM      4  C   UNL     1       2.476   8.068  18.116  0.00  0.00    +0.000 A 
ATOM      5  C   UNL     1       1.713   9.226  17.947  0.00  0.00    +0.000 A 
ATOM      6  C   UNL     1       0.919   9.744  18.990  0.00  0.00    +0.000 A 
ENDROOT
BRANCH   6   7
ATOM      7  N   UNL     1       0.119  10.912  18.740  0.00  0.00    +0.000 N 
ATOM      8  N   UNL     1       0.580  12.156  19.043  0.00  0.00    +0.000 NA
ATOM      9  C   UNL     1      -0.355  13.008  18.616  0.00  0.00    +0.000 A 
ATOM     10  C   UNL     1      -0.200  14.473  18.785  0.00  0.00    +0.000 C 
ATOM     11  C   UNL     1      -1.451  12.340  18.048  0.00  0.00    +0.000 A 
ATOM     12  C   UNL     1      -1.155  10.995  18.162  0.00  0.00    +0.000 A 
ATOM     13  C   UNL     1      -2.061   9.860  17.840  0.00  0.00    +0.000 C 
ENDBRANCH   6   7
BRANCH   1  15
ATOM     14  C   UNL     1      -0.493   8.583  22.039  0.00  0.00    +0.000 C 
ATOM     15  O   UNL     1       0.223   9.574  21.300  0.00  0.00    +0.000 OA
ENDBRANCH   1  15
BRANCH   3  16
ATOM     16  N   UNL     1       3.231   6.227  19.500  0.00  0.00    +0.000 N 
ATOM     17  H   UNL     1       4.238   6.364  19.593  0.00  0.00    +0.000 HD
BRANCH  16  18
ATOM     18  S   UNL     1       2.875   4.881  18.532  0.00  0.00    +0.000 S 
ATOM     19  O   UNL     1       3.110   3.717  19.364  0.00  0.00    +0.000 OA
ATOM     20  O   UNL     1       1.609   5.086  17.868  0.00  0.00    +0.000 OA
BRANCH  18  21
ATOM     21  C   UNL     1       4.163   4.908  17.301  0.00  0.00    +0.000 A 
ATOM     22  C   UNL     1       4.646   3.696  16.790  0.00  0.00    +0.000 A 
ATOM     23  C   UNL     1       5.628   3.709  15.799  0.00  0.00    +0.000 A 
ATOM     24  C   UNL     1       6.118   4.923  15.317  0.00  0.00    +0.000 A 
ATOM     25  C   UNL     1       5.621   6.129  15.815  0.00  0.00    +0.000 A 
ATOM     26  C   UNL     1       4.636   6.124  16.805  0.00  0.00    +0.000 A 
ENDBRANCH  18  21
ENDBRANCH  16  18
ENDBRANCH   3  16
TORSDOF 5
ENDMDL
MODEL 7
REMARK VINA RESULT:      -7.5      2.451      8.145
REMARK  Name = 
REMARK  8 active torsions:
REMARK  status: ('A' for Active; 'I' for Inactive)
REMARK    1  A    between atoms: C_1  and  O_2
REMARK    2  A    between atoms: O_2  and  C_3
REMARK    3  A    between atoms: C_5  and  N_6
REMARK    4  A    between atoms: N_6  and  S_7
REMARK    5  A    between atoms: S_7  and  C_10
REMARK    6  A    between atoms: C_18  and  N_19
REMARK    7  A    between atoms: C_21  and  C_22
REMARK    8  A    between atoms: C_24  and  C_25
REMARK                            x       y       z     vdW  Elec       q    Type
REMARK                         _______ _______ _______ _____ _____    ______ ____
ROOT
ATOM      1  C   UNL     1       2.584   6.454  19.669  0.00  0.00    +0.000 A 
ATOM      2  C   UNL     1       1.840   7.517  20.216  0.00  0.00    +0.000 A 
ATOM      3  C   UNL     1       1.571   8.661  19.475  0.00  0.00    +0.000 A 
ATOM      4  C   UNL     1       2.036   8.769  18.175  0.00  0.00    +0.000 A 
ATOM      5  C   UNL     1       2.821   7.747  17.635  0.00  0.00    +0.000 A 
ATOM      6  C   UNL     1       3.140   6.593  18.378  0.00  0.00    +0.000 A 
ENDROOT
BRANCH   6   7
ATOM      7  N   UNL     1       3.991   5.598  17.785  0.00  0.00    +0.000 N 
ATOM      8  N   UNL     1       5.317   5.833  17.592  0.00  0.00    +0.000 NA
ATOM      9  C   UNL     1       5.826   4.696  17.111  0.00  0.00    +0.000 A 
ATOM     10  C   UNL     1       7.263   4.577  16.768  0.00  0.00    +0.000 C 
ATOM     11  C   UNL     1       4.842   3.707  16.958  0.00  0.00    +0.000 A 
ATOM     12  C   UNL     1       3.662   4.303  17.361  0.00  0.00    +0.000 A 
ATOM     13  C   UNL     1       2.297   3.722  17.255  0.00  0.00    +0.000 C 
ENDBRANCH   6   7
BRANCH   1  15
ATOM     14  C   UNL     1       1.715   4.572  20.815  0.00  0.00    +0.000 C 
ATOM     15  O   UNL     1       2.853   5.345  20.430  0.00  0.00    +0.000 OA
ENDBRANCH   1  15
BRANCH   3  16
ATOM     16  N   UNL     1       0.763   9.698  20.016  0.00  0.00    +0.000 N 
ATOM     17  H   UNL     1       1.029  10.654  19.780  0.00  0.00    +0.000 HD
BRANCH  16  18
ATOM     18  S   UNL     1       0.286   9.569  21.638  0.00  0.00    +0.000 S 
ATOM     19  O   UNL     1      -0.530   8.373  21.721  0.00  0.00    +0.000 OA
ATOM     20  O   UNL     1       1.433   9.755  22.495  0.00  0.00    +0.000 OA
BRANCH  18  21
ATOM     21  C   UNL     1      -0.806  10.960  21.857  0.00  0.00    +0.000 A 
ATOM     22  C   UNL     1      -1.087  11.789  20.762  0.00  0.00    +0.000 A 
ATOM     23  C   UNL     1      -1.969  12.858  20.916  0.00  0.00    +0.000 A 
ATOM     24  C   UNL     1      -2.574  13.093  22.151  0.00  0.00    +0.000 A 
ATOM     25  C   UNL     1      -2.307  12.253  23.235  0.00  0.00    +0.000 A 
ATOM     26  C   UNL     1      -1.427  11.180  23.088  0.00  0.00    +0.000 A 
ENDBRANCH  18  21
ENDBRANCH  16  18
ENDBRANCH   3  16
TORSDOF 5
ENDMDL
MODEL 8
REMARK VINA RESULT:      -7.5      2.249      2.985
REMARK  Name = 
REMARK  8 active torsions:
REMARK  status: ('A' for Active; 'I' for Inactive)
REMARK    1  A    between atoms: C_1  and  O_2
REMARK    2  A    between atoms: O_2  and  C_3
REMARK    3  A    between atoms: C_5  and  N_6
REMARK    4  A    between atoms: N_6  and  S_7
REMARK    5  A    between atoms: S_7  and  C_10
REMARK    6  A    between atoms: C_18  and  N_19
REMARK    7  A    between atoms: C_21  and  C_22
REMARK    8  A    between atoms: C_24  and  C_25
REMARK                            x       y       z     vdW  Elec       q    Type
REMARK                         _______ _______ _______ _____ _____    ______ ____
ROOT
ATOM      1  C   UNL     1       1.546   8.482  20.159  0.00  0.00    +0.000 A 
ATOM      2  C   UNL     1       2.211   7.299  19.784  0.00  0.00    +0.000 A 
ATOM      3  C   UNL     1       2.719   7.137  18.501  0.00  0.00    +0.000 A 
ATOM      4  C   UNL     1       2.578   8.150  17.568  0.00  0.00    +0.000 A 
ATOM      5  C   UNL     1       1.875   9.309  17.908  0.00  0.00    +0.000 A 
ATOM      6  C   UNL     1       1.316   9.482  19.189  0.00  0.00    +0.000 A 
ENDROOT
BRANCH   6   7
ATOM      7  N   UNL     1       0.563  10.675  19.464  0.00  0.00    +0.000 N 
ATOM      8  N   UNL     1       1.069  11.658  20.257  0.00  0.00    +0.000 NA
ATOM      9  C   UNL     1       0.170  12.645  20.239  0.00  0.00    +0.000 A 
ATOM     10  C   UNL     1       0.379  13.895  21.008  0.00  0.00    +0.000 C 
ATOM     11  C   UNL     1      -0.948  12.319  19.455  0.00  0.00    +0.000 A 
ATOM     12  C   UNL     1      -0.704  11.042  18.989  0.00  0.00    +0.000 A 
ATOM     13  C   UNL     1      -1.651  10.182  18.229  0.00  0.00    +0.000 C 
ENDBRANCH   6   7
BRANCH   1  15
ATOM     14  C   UNL     1      -0.345   8.266  21.570  0.00  0.00    +0.000 C 
ATOM     15  O   UNL     1       1.035   8.606  21.427  0.00  0.00    +0.000 OA
ENDBRANCH   1  15
BRANCH   3  16
ATOM     16  N   UNL     1       3.446   5.965  18.155  0.00  0.00    +0.000 N 
ATOM     17  H   UNL     1       4.233   6.089  17.518  0.00  0.00    +0.000 HD
BRANCH  16  18
ATOM     18  S   UNL     1       2.566   4.563  17.790  0.00  0.00    +0.000 S 
ATOM     19  O   UNL     1       1.231   5.009  17.439  0.00  0.00    +0.000 OA
ATOM     20  O   UNL     1       3.337   3.728  16.899  0.00  0.00    +0.000 OA
BRANCH  18  21
ATOM     21  C   UNL     1       2.440   3.735  19.363  0.00  0.00    +0.000 A 
ATOM     22  C   UNL     1       1.200   3.687  20.014  0.00  0.00    +0.000 A 
ATOM     23  C   UNL     1       1.085   3.010  21.228  0.00  0.00    +0.000 A 
ATOM     24  C   UNL     1       2.197   2.378  21.784  0.00  0.00    +0.000 A 
ATOM     25  C   UNL     1       3.427   2.412  21.123  0.00  0.00    +0.000 A 
ATOM     26  C   UNL     1       3.550   3.086  19.907  0.00  0.00    +0.000 A 
ENDBRANCH  18  21
ENDBRANCH  16  18
ENDBRANCH   3  16
TORSDOF 5
ENDMDL
MODEL 9
REMARK VINA RESULT:      -7.4      2.216      3.150
REMARK  Name = 
REMARK  8 active torsions:
REMARK  status: ('A' for Active; 'I' for Inactive)
REMARK    1  A    between atoms: C_1  and  O_2
REMARK    2  A    between atoms: O_2  and  C_3
REMARK    3  A    between atoms: C_5  and  N_6
REMARK    4  A    between atoms: N_6  and  S_7
REMARK    5  A    between atoms: S_7  and  C_10
REMARK    6  A    between atoms: C_18  and  N_19
REMARK    7  A    between atoms: C_21  and  C_22
REMARK    8  A    between atoms: C_24  and  C_25
REMARK                            x       y       z     vdW  Elec       q    Type
REMARK                         _______ _______ _______ _____ _____    ______ ____
ROOT
ATOM      1  C   UNL     1       1.250   8.614  20.065  0.00  0.00    +0.000 A 
ATOM      2  C   UNL     1       2.021   7.462  19.815  0.00  0.00    +0.000 A 
ATOM      3  C   UNL     1       2.679   7.288  18.605  0.00  0.00    +0.000 A 
ATOM      4  C   UNL     1       2.587   8.258  17.620  0.00  0.00    +0.000 A 
ATOM      5  C   UNL     1       1.783   9.381  17.831  0.00  0.00    +0.000 A 
ATOM      6  C   UNL     1       1.073   9.563  19.034  0.00  0.00    +0.000 A 
ENDROOT
BRANCH   6   7
ATOM      7  N   UNL     1       0.225  10.716  19.174  0.00  0.00    +0.000 N 
ATOM      8  N   UNL     1      -1.129  10.601  19.123  0.00  0.00    +0.000 NA
ATOM      9  C   UNL     1      -1.612  11.821  19.368  0.00  0.00    +0.000 A 
ATOM     10  C   UNL     1      -3.070  12.086  19.385  0.00  0.00    +0.000 C 
ATOM     11  C   UNL     1      -0.586  12.759  19.561  0.00  0.00    +0.000 A 
ATOM     12  C   UNL     1       0.589  12.050  19.402  0.00  0.00    +0.000 A 
ATOM     13  C   UNL     1       1.965  12.615  19.365  0.00  0.00    +0.000 C 
ENDBRANCH   6   7
BRANCH   1  15
ATOM     14  C   UNL     1       1.368   9.283  22.334  0.00  0.00    +0.000 C 
ATOM     15  O   UNL     1       0.591   8.750  21.261  0.00  0.00    +0.000 OA
ENDBRANCH   1  15
BRANCH   3  16
ATOM     16  N   UNL     1       3.508   6.153  18.391  0.00  0.00    +0.000 N 
ATOM     17  H   UNL     1       4.394   6.319  17.911  0.00  0.00    +0.000 HD
BRANCH  16  18
ATOM     18  S   UNL     1       2.773   4.721  17.858  0.00  0.00    +0.000 S 
ATOM     19  O   UNL     1       1.446   5.097  17.408  0.00  0.00    +0.000 OA
ATOM     20  O   UNL     1       3.682   4.003  16.996  0.00  0.00    +0.000 OA
BRANCH  18  21
ATOM     21  C   UNL     1       2.566   3.783  19.359  0.00  0.00    +0.000 A 
ATOM     22  C   UNL     1       3.667   3.102  19.897  0.00  0.00    +0.000 A 
ATOM     23  C   UNL     1       3.522   2.395  21.091  0.00  0.00    +0.000 A 
ATOM     24  C   UNL     1       2.291   2.375  21.747  0.00  0.00    +0.000 A 
ATOM     25  C   UNL     1       1.202   3.070  21.217  0.00  0.00    +0.000 A 
ATOM     26  C   UNL     1       1.338   3.781  20.024  0.00  0.00    +0.000 A 
ENDBRANCH  18  21
ENDBRANCH  16  18
ENDBRANCH   3  16
TORSDOF 5
ENDMDL
