MODEL 1
REMARK VINA RESULT:      -7.8      0.000      0.000
REMARK  Name = 
REMARK  7 active torsions:
REMARK  status: ('A' for Active; 'I' for Inactive)
REMARK    1  A    between atoms: C_1  and  C_2
REMARK    2  A    between atoms: C_2  and  S_3
REMARK    3  A    between atoms: S_3  and  C_6
REMARK    4  A    between atoms: C_9  and  O_10
REMARK    5  A    between atoms: O_10  and  C_11
REMARK    6  A    between atoms: C_21  and  C_22
REMARK    7  A    between atoms: N_24  and  C_25
REMARK                            x       y       z     vdW  Elec       q    Type
REMARK                         _______ _______ _______ _____ _____    ______ ____
ROOT
ATOM      1  C   UNL     1       2.313   4.513  20.382  0.00  0.00    +0.000 A 
ATOM      2  C   UNL     1       1.510   5.559  20.836  0.00  0.00    +0.000 A 
ATOM      3  C   UNL     1       1.620   6.850  20.258  0.00  0.00    +0.000 A 
ATOM      4  C   UNL     1       2.526   7.102  19.225  0.00  0.00    +0.000 A 
ATOM      5  C   UNL     1       3.353   6.033  18.803  0.00  0.00    +0.000 A 
ATOM      6  C   UNL     1       3.232   4.751  19.379  0.00  0.00    +0.000 A 
ENDROOT
BRANCH   5   7
ATOM      7  C   UNL     1       4.389   6.078  17.749  0.00  0.00    +0.000 A 
ATOM      8  C   UNL     1       5.344   7.032  17.892  0.00  0.00    +0.000 A 
ATOM      9  N   UNL     1       6.534   7.027  17.157  0.00  0.00    +0.000 N 
ATOM     10  C   UNL     1       7.606   7.918  17.557  0.00  0.00    +0.000 C 
ATOM     11  C   UNL     1       6.826   6.032  16.198  0.00  0.00    +0.000 A 
ATOM     12  O   UNL     1       7.853   6.007  15.525  0.00  0.00    +0.000 OA
ATOM     13  C   UNL     1       5.833   4.991  16.138  0.00  0.00    +0.000 A 
ATOM     14  N   UNL     1       5.918   3.796  15.477  0.00  0.00    +0.000 N 
ATOM     15  C   UNL     1       4.847   3.007  15.834  0.00  0.00    +0.000 A 
ATOM     16  C   UNL     1       4.031   3.736  16.675  0.00  0.00    +0.000 A 
ATOM     17  C   UNL     1       4.662   4.982  16.865  0.00  0.00    +0.000 A 
ATOM     18  H   UNL     1       6.700   3.519  14.898  0.00  0.00    +0.000 HD
ENDBRANCH   5   7
BRANCH   1  19
ATOM     19  S   UNL     1       2.250   2.866  21.066  0.00  0.00    +0.000 S 
ATOM     20  O   UNL     1       1.147   2.831  22.004  0.00  0.00    +0.000 OA
ATOM     21  O   UNL     1       3.602   2.544  21.479  0.00  0.00    +0.000 OA
BRANCH  19  23
ATOM     22  C   UNL     1       0.615   2.345  18.907  0.00  0.00    +0.000 C 
ATOM     23  C   UNL     1       1.832   1.836  19.659  0.00  0.00    +0.000 C 
ENDBRANCH  19  23
ENDBRANCH   1  19
BRANCH   4  24
ATOM     24  O   UNL     1       2.756   8.319  18.660  0.00  0.00    +0.000 OA
BRANCH  24  25
ATOM     25  C   UNL     1       1.830   9.283  18.118  0.00  0.00    +0.000 C 
ATOM     26  C   UNL     1       0.382   9.248  18.601  0.00  0.00    +0.000 C 
ATOM     27  C   UNL     1       0.020  10.304  19.637  0.00  0.00    +0.000 C 
ATOM     28  C   UNL     1       0.454  11.740  19.277  0.00  0.00    +0.000 C 
ATOM     29  C   UNL     1       1.883  11.828  18.722  0.00  0.00    +0.000 C 
ATOM     30  C   UNL     1       2.364  10.688  17.821  0.00  0.00    +0.000 C 
ATOM     31  O   UNL     1      -0.488  12.313  18.356  0.00  0.00    +0.000 OA
ATOM     32  C   UNL     1      -0.728  13.645  18.815  0.00  0.00    +0.000 C 
ATOM     33  C   UNL     1      -0.399  13.634  20.285  0.00  0.00    +0.000 C 
ATOM     34  O   UNL     1       0.446  12.510  20.492  0.00  0.00    +0.000 OA
ENDBRANCH  24  25
ENDBRANCH   4  24
TORSDOF 5
ENDMDL
MODEL 2
REMARK VINA RESULT:      -7.8      7.709     10.652
REMARK  Name = 
REMARK  7 active torsions:
REMARK  status: ('A' for Active; 'I' for Inactive)
REMARK    1  A    between atoms: C_1  and  C_2
REMARK    2  A    between atoms: C_2  and  S_3
REMARK    3  A    between atoms: S_3  and  C_6
REMARK    4  A    between atoms: C_9  and  O_10
REMARK    5  A    between atoms: O_10  and  C_11
REMARK    6  A    between atoms: C_21  and  C_22
REMARK    7  A    between atoms: N_24  and  C_25
REMARK                            x       y       z     vdW  Elec       q    Type
REMARK                         _______ _______ _______ _____ _____    ______ ____
ROOT
ATOM      1  C   UNL     1       5.326  15.775  19.595  0.00  0.00    +0.000 A 
ATOM      2  C   UNL     1       5.211  16.094  20.949  0.00  0.00    +0.000 A 
ATOM      3  C   UNL     1       6.316  15.923  21.821  0.00  0.00    +0.000 A 
ATOM      4  C   UNL     1       7.538  15.438  21.350  0.00  0.00    +0.000 A 
ATOM      5  C   UNL     1       7.621  15.090  19.979  0.00  0.00    +0.000 A 
ATOM      6  C   UNL     1       6.520  15.271  19.117  0.00  0.00    +0.000 A 
ENDROOT
BRANCH   5   7
ATOM      7  C   UNL     1       8.800  14.543  19.275  0.00  0.00    +0.000 A 
ATOM      8  C   UNL     1       8.889  13.190  19.224  0.00  0.00    +0.000 A 
ATOM      9  N   UNL     1       9.768  12.521  18.366  0.00  0.00    +0.000 N 
ATOM     10  C   UNL     1       9.613  11.091  18.180  0.00  0.00    +0.000 C 
ATOM     11  C   UNL     1      10.643  13.208  17.495  0.00  0.00    +0.000 A 
ATOM     12  O   UNL     1      11.437  12.653  16.741  0.00  0.00    +0.000 OA
ATOM     13  C   UNL     1      10.458  14.636  17.513  0.00  0.00    +0.000 A 
ATOM     14  N   UNL     1      10.989  15.556  16.651  0.00  0.00    +0.000 N 
ATOM     15  C   UNL     1      10.411  16.783  16.888  0.00  0.00    +0.000 A 
ATOM     16  C   UNL     1       9.555  16.659  17.964  0.00  0.00    +0.000 A 
ATOM     17  C   UNL     1       9.587  15.303  18.348  0.00  0.00    +0.000 A 
ATOM     18  H   UNL     1      11.632  15.331  15.902  0.00  0.00    +0.000 HD
ENDBRANCH   5   7
BRANCH   1  19
ATOM     19  S   UNL     1       3.981  15.944  18.435  0.00  0.00    +0.000 S 
ATOM     20  O   UNL     1       4.317  15.155  17.268  0.00  0.00    +0.000 OA
ATOM     21  O   UNL     1       3.707  17.365  18.332  0.00  0.00    +0.000 OA
BRANCH  19  23
ATOM     22  C   UNL     1       2.802  13.673  19.463  0.00  0.00    +0.000 C 
ATOM     23  C   UNL     1       2.599  15.166  19.269  0.00  0.00    +0.000 C 
ENDBRANCH  19  23
ENDBRANCH   1  19
BRANCH   4  24
ATOM     24  O   UNL     1       8.629  15.170  22.120  0.00  0.00    +0.000 OA
BRANCH  24  25
ATOM     25  C   UNL     1       8.793  14.239  23.209  0.00  0.00    +0.000 C 
ATOM     26  C   UNL     1       8.546  14.735  24.631  0.00  0.00    +0.000 C 
ATOM     27  C   UNL     1       7.200  14.343  25.227  0.00  0.00    +0.000 C 
ATOM     28  C   UNL     1       6.839  12.850  25.085  0.00  0.00    +0.000 C 
ATOM     29  C   UNL     1       7.130  12.279  23.691  0.00  0.00    +0.000 C 
ATOM     30  C   UNL     1       8.378  12.784  22.965  0.00  0.00    +0.000 C 
ATOM     31  O   UNL     1       7.515  12.091  26.100  0.00  0.00    +0.000 OA
ATOM     32  C   UNL     1       6.547  11.175  26.618  0.00  0.00    +0.000 C 
ATOM     33  C   UNL     1       5.206  11.796  26.332  0.00  0.00    +0.000 C 
ATOM     34  O   UNL     1       5.419  12.730  25.282  0.00  0.00    +0.000 OA
ENDBRANCH  24  25
ENDBRANCH   4  24
TORSDOF 5
ENDMDL
MODEL 3
REMARK VINA RESULT:      -7.8      8.314     10.992
REMARK  Name = 
REMARK  7 active torsions:
REMARK  status: ('A' for Active; 'I' for Inactive)
REMARK    1  A    between atoms: C_1  and  C_2
REMARK    2  A    between atoms: C_2  and  S_3
REMARK    3  A    between atoms: S_3  and  C_6
REMARK    4  A    between atoms: C_9  and  O_10
REMARK    5  A    between atoms: O_10  and  C_11
REMARK    6  A    between atoms: C_21  and  C_22
REMARK    7  A    between atoms: N_24  and  C_25
REMARK                            x       y       z     vdW  Elec       q    Type
REMARK                         _______ _______ _______ _____ _____    ______ ____
ROOT
ATOM      1  C   UNL     1      -2.843  11.622  18.452  0.00  0.00    +0.000 A 
ATOM      2  C   UNL     1      -1.461  11.812  18.442  0.00  0.00    +0.000 A 
ATOM      3  C   UNL     1      -0.849  12.666  19.396  0.00  0.00    +0.000 A 
ATOM      4  C   UNL     1      -1.609  13.329  20.362  0.00  0.00    +0.000 A 
ATOM      5  C   UNL     1      -3.013  13.146  20.331  0.00  0.00    +0.000 A 
ATOM      6  C   UNL     1      -3.612  12.290  19.384  0.00  0.00    +0.000 A 
ENDROOT
BRANCH   5   7
ATOM      7  C   UNL     1      -4.006  13.762  21.237  0.00  0.00    +0.000 A 
ATOM      8  C   UNL     1      -5.025  14.429  20.641  0.00  0.00    +0.000 A 
ATOM      9  N   UNL     1      -6.181  14.815  21.327  0.00  0.00    +0.000 N 
ATOM     10  C   UNL     1      -7.325  15.280  20.565  0.00  0.00    +0.000 C 
ATOM     11  C   UNL     1      -6.369  14.549  22.701  0.00  0.00    +0.000 A 
ATOM     12  O   UNL     1      -7.363  14.887  23.337  0.00  0.00    +0.000 OA
ATOM     13  C   UNL     1      -5.308  13.764  23.278  0.00  0.00    +0.000 A 
ATOM     14  N   UNL     1      -5.288  13.169  24.510  0.00  0.00    +0.000 N 
ATOM     15  C   UNL     1      -4.184  12.350  24.597  0.00  0.00    +0.000 A 
ATOM     16  C   UNL     1      -3.452  12.483  23.434  0.00  0.00    +0.000 A 
ATOM     17  C   UNL     1      -4.170  13.371  22.607  0.00  0.00    +0.000 A 
ATOM     18  H   UNL     1      -6.026  13.254  25.197  0.00  0.00    +0.000 HD
ENDBRANCH   5   7
BRANCH   1  19
ATOM     19  S   UNL     1      -3.692  10.580  17.278  0.00  0.00    +0.000 S 
ATOM     20  O   UNL     1      -4.949  11.225  16.960  0.00  0.00    +0.000 OA
ATOM     21  O   UNL     1      -3.650   9.236  17.821  0.00  0.00    +0.000 OA
BRANCH  19  23
ATOM     22  C   UNL     1      -3.373  10.198  14.565  0.00  0.00    +0.000 C 
ATOM     23  C   UNL     1      -2.644  10.632  15.825  0.00  0.00    +0.000 C 
ENDBRANCH  19  23
ENDBRANCH   1  19
BRANCH   4  24
ATOM     24  O   UNL     1      -1.124  14.223  21.268  0.00  0.00    +0.000 OA
BRANCH  24  25
ATOM     25  C   UNL     1       0.004  15.118  21.180  0.00  0.00    +0.000 C 
ATOM     26  C   UNL     1       1.378  14.595  21.593  0.00  0.00    +0.000 C 
ATOM     27  C   UNL     1       2.296  14.211  20.440  0.00  0.00    +0.000 C 
ATOM     28  C   UNL     1       2.412  15.270  19.325  0.00  0.00    +0.000 C 
ATOM     29  C   UNL     1       1.065  15.880  18.915  0.00  0.00    +0.000 C 
ATOM     30  C   UNL     1       0.029  16.113  20.016  0.00  0.00    +0.000 C 
ATOM     31  O   UNL     1       3.336  16.294  19.726  0.00  0.00    +0.000 OA
ATOM     32  C   UNL     1       4.158  16.553  18.585  0.00  0.00    +0.000 C 
ATOM     33  C   UNL     1       4.102  15.301  17.751  0.00  0.00    +0.000 C 
ATOM     34  O   UNL     1       2.928  14.609  18.155  0.00  0.00    +0.000 OA
ENDBRANCH  24  25
ENDBRANCH   4  24
TORSDOF 5
ENDMDL
MODEL 4
REMARK VINA RESULT:      -7.8      7.802     10.183
REMARK  Name = 
REMARK  7 active torsions:
REMARK  status: ('A' for Active; 'I' for Inactive)
REMARK    1  A    between atoms: C_1  and  C_2
REMARK    2  A    between atoms: C_2  and  S_3
REMARK    3  A    between atoms: S_3  and  C_6
REMARK    4  A    between atoms: C_9  and  O_10
REMARK    5  A    between atoms: O_10  and  C_11
REMARK    6  A    between atoms: C_21  and  C_22
REMARK    7  A    between atoms: N_24  and  C_25
REMARK                            x       y       z     vdW  Elec       q    Type
REMARK                         _______ _______ _______ _____ _____    ______ ____
ROOT
ATOM      1  C   UNL     1       4.753  15.090  19.222  0.00  0.00    +0.000 A 
ATOM      2  C   UNL     1       4.699  14.897  20.603  0.00  0.00    +0.000 A 
ATOM      3  C   UNL     1       5.890  14.678  21.342  0.00  0.00    +0.000 A 
ATOM      4  C   UNL     1       7.136  14.653  20.711  0.00  0.00    +0.000 A 
ATOM      5  C   UNL     1       7.161  14.818  19.304  0.00  0.00    +0.000 A 
ATOM      6  C   UNL     1       5.974  15.042  18.578  0.00  0.00    +0.000 A 
ENDROOT
BRANCH   5   7
ATOM      7  C   UNL     1       8.357  14.805  18.434  0.00  0.00    +0.000 A 
ATOM      8  C   UNL     1       8.966  16.001  18.238  0.00  0.00    +0.000 A 
ATOM      9  N   UNL     1      10.247  16.118  17.691  0.00  0.00    +0.000 N 
ATOM     10  C   UNL     1      10.925  17.398  17.764  0.00  0.00    +0.000 C 
ATOM     11  C   UNL     1      11.001  14.994  17.286  0.00  0.00    +0.000 A 
ATOM     12  O   UNL     1      12.121  15.062  16.788  0.00  0.00    +0.000 OA
ATOM     13  C   UNL     1      10.361  13.741  17.590  0.00  0.00    +0.000 A 
ATOM     14  N   UNL     1      10.907  12.488  17.520  0.00  0.00    +0.000 N 
ATOM     15  C   UNL     1      10.034  11.583  18.082  0.00  0.00    +0.000 A 
ATOM     16  C   UNL     1       8.886  12.257  18.447  0.00  0.00    +0.000 A 
ATOM     17  C   UNL     1       9.103  13.616  18.138  0.00  0.00    +0.000 A 
ATOM     18  H   UNL     1      11.844  12.292  17.191  0.00  0.00    +0.000 HD
ENDBRANCH   5   7
BRANCH   1  19
ATOM     19  S   UNL     1       3.302  15.354  18.217  0.00  0.00    +0.000 S 
ATOM     20  O   UNL     1       3.757  15.689  16.883  0.00  0.00    +0.000 OA
ATOM     21  O   UNL     1       2.443  16.248  18.968  0.00  0.00    +0.000 OA
BRANCH  19  23
ATOM     22  C   UNL     1       1.350  13.628  19.121  0.00  0.00    +0.000 C 
ATOM     23  C   UNL     1       2.522  13.741  18.162  0.00  0.00    +0.000 C 
ENDBRANCH  19  23
ENDBRANCH   1  19
BRANCH   4  24
ATOM     24  O   UNL     1       8.322  14.377  21.321  0.00  0.00    +0.000 OA
BRANCH  24  25
ATOM     25  C   UNL     1       8.594  13.674  22.550  0.00  0.00    +0.000 C 
ATOM     26  C   UNL     1       8.477  14.442  23.865  0.00  0.00    +0.000 C 
ATOM     27  C   UNL     1       7.197  14.188  24.649  0.00  0.00    +0.000 C 
ATOM     28  C   UNL     1       6.835  12.701  24.836  0.00  0.00    +0.000 C 
ATOM     29  C   UNL     1       6.999  11.864  23.560  0.00  0.00    +0.000 C 
ATOM     30  C   UNL     1       8.170  12.205  22.635  0.00  0.00    +0.000 C 
ATOM     31  O   UNL     1       7.609  12.147  25.912  0.00  0.00    +0.000 OA
ATOM     32  C   UNL     1       6.701  11.361  26.687  0.00  0.00    +0.000 C 
ATOM     33  C   UNL     1       5.334  11.929  26.412  0.00  0.00    +0.000 C 
ATOM     34  O   UNL     1       5.441  12.636  25.184  0.00  0.00    +0.000 OA
ENDBRANCH  24  25
ENDBRANCH   4  24
TORSDOF 5
ENDMDL
MODEL 5
REMARK VINA RESULT:      -7.6      4.780     10.449
REMARK  Name = 
REMARK  7 active torsions:
REMARK  status: ('A' for Active; 'I' for Inactive)
REMARK    1  A    between atoms: C_1  and  C_2
REMARK    2  A    between atoms: C_2  and  S_3
REMARK    3  A    between atoms: S_3  and  C_6
REMARK    4  A    between atoms: C_9  and  O_10
REMARK    5  A    between atoms: O_10  and  C_11
REMARK    6  A    between atoms: C_21  and  C_22
REMARK    7  A    between atoms: N_24  and  C_25
REMARK                            x       y       z     vdW  Elec       q    Type
REMARK                         _______ _______ _______ _____ _____    ______ ____
ROOT
ATOM      1  C   UNL     1       1.870  15.364  18.665  0.00  0.00    +0.000 A 
ATOM      2  C   UNL     1       2.972  14.510  18.625  0.00  0.00    +0.000 A 
ATOM      3  C   UNL     1       2.858  13.171  19.078  0.00  0.00    +0.000 A 
ATOM      4  C   UNL     1       1.647  12.678  19.571  0.00  0.00    +0.000 A 
ATOM      5  C   UNL     1       0.551  13.573  19.633  0.00  0.00    +0.000 A 
ATOM      6  C   UNL     1       0.672  14.900  19.173  0.00  0.00    +0.000 A 
ENDROOT
BRANCH   5   7
ATOM      7  C   UNL     1      -0.808  13.274  20.134  0.00  0.00    +0.000 A 
ATOM      8  C   UNL     1      -1.233  14.019  21.185  0.00  0.00    +0.000 A 
ATOM      9  N   UNL     1      -2.571  14.064  21.588  0.00  0.00    +0.000 N 
ATOM     10  C   UNL     1      -2.982  15.080  22.539  0.00  0.00    +0.000 C 
ATOM     11  C   UNL     1      -3.583  13.324  20.936  0.00  0.00    +0.000 A 
ATOM     12  O   UNL     1      -4.763  13.329  21.273  0.00  0.00    +0.000 OA
ATOM     13  C   UNL     1      -3.110  12.618  19.773  0.00  0.00    +0.000 A 
ATOM     14  N   UNL     1      -3.861  11.990  18.818  0.00  0.00    +0.000 N 
ATOM     15  C   UNL     1      -3.043  11.613  17.776  0.00  0.00    +0.000 A 
ATOM     16  C   UNL     1      -1.743  11.938  18.106  0.00  0.00    +0.000 A 
ATOM     17  C   UNL     1      -1.795  12.576  19.363  0.00  0.00    +0.000 A 
ATOM     18  H   UNL     1      -4.871  11.911  18.846  0.00  0.00    +0.000 HD
ENDBRANCH   5   7
BRANCH   1  19
ATOM     19  S   UNL     1       1.933  17.066  18.131  0.00  0.00    +0.000 S 
ATOM     20  O   UNL     1       2.561  17.084  16.826  0.00  0.00    +0.000 OA
ATOM     21  O   UNL     1       2.479  17.821  19.242  0.00  0.00    +0.000 OA
BRANCH  19  23
ATOM     22  C   UNL     1      -0.041  18.338  16.686  0.00  0.00    +0.000 C 
ATOM     23  C   UNL     1       0.209  17.516  17.938  0.00  0.00    +0.000 C 
ENDBRANCH  19  23
ENDBRANCH   1  19
BRANCH   4  24
ATOM     24  O   UNL     1       1.458  11.435  20.096  0.00  0.00    +0.000 OA
BRANCH  24  25
ATOM     25  C   UNL     1       1.013  10.217  19.466  0.00  0.00    +0.000 C 
ATOM     26  C   UNL     1       1.481   9.924  18.043  0.00  0.00    +0.000 C 
ATOM     27  C   UNL     1       2.617   8.916  17.931  0.00  0.00    +0.000 C 
ATOM     28  C   UNL     1       2.407   7.613  18.730  0.00  0.00    +0.000 C 
ATOM     29  C   UNL     1       1.872   7.843  20.150  0.00  0.00    +0.000 C 
ATOM     30  C   UNL     1       0.863   8.976  20.351  0.00  0.00    +0.000 C 
ATOM     31  O   UNL     1       1.544   6.730  17.996  0.00  0.00    +0.000 OA
ATOM     32  C   UNL     1       2.135   5.432  18.091  0.00  0.00    +0.000 C 
ATOM     33  C   UNL     1       3.597   5.669  18.359  0.00  0.00    +0.000 C 
ATOM     34  O   UNL     1       3.694   6.988  18.881  0.00  0.00    +0.000 OA
ENDBRANCH  24  25
ENDBRANCH   4  24
TORSDOF 5
ENDMDL
MODEL 6
REMARK VINA RESULT:      -7.6      6.407      9.145
REMARK  Name = 
REMARK  7 active torsions:
REMARK  status: ('A' for Active; 'I' for Inactive)
REMARK    1  A    between atoms: C_1  and  C_2
REMARK    2  A    between atoms: C_2  and  S_3
REMARK    3  A    between atoms: S_3  and  C_6
REMARK    4  A    between atoms: C_9  and  O_10
REMARK    5  A    between atoms: O_10  and  C_11
REMARK    6  A    between atoms: C_21  and  C_22
REMARK    7  A    between atoms: N_24  and  C_25
REMARK                            x       y       z     vdW  Elec       q    Type
REMARK                         _______ _______ _______ _____ _____    ______ ____
ROOT
ATOM      1  C   UNL     1      -5.455  12.866  19.876  0.00  0.00    +0.000 A 
ATOM      2  C   UNL     1      -5.633  14.151  20.391  0.00  0.00    +0.000 A 
ATOM      3  C   UNL     1      -4.553  14.830  21.009  0.00  0.00    +0.000 A 
ATOM      4  C   UNL     1      -3.294  14.235  21.116  0.00  0.00    +0.000 A 
ATOM      5  C   UNL     1      -3.146  12.918  20.616  0.00  0.00    +0.000 A 
ATOM      6  C   UNL     1      -4.223  12.253  19.996  0.00  0.00    +0.000 A 
ENDROOT
BRANCH   5   7
ATOM      7  C   UNL     1      -1.918  12.094  20.642  0.00  0.00    +0.000 A 
ATOM      8  C   UNL     1      -1.542  11.622  21.856  0.00  0.00    +0.000 A 
ATOM      9  N   UNL     1      -0.590  10.611  22.013  0.00  0.00    +0.000 N 
ATOM     10  C   UNL     1      -0.443   9.983  23.313  0.00  0.00    +0.000 C 
ATOM     11  C   UNL     1       0.065  10.011  20.914  0.00  0.00    +0.000 A 
ATOM     12  O   UNL     1       0.916   9.132  21.017  0.00  0.00    +0.000 OA
ATOM     13  C   UNL     1      -0.424  10.474  19.641  0.00  0.00    +0.000 A 
ATOM     14  N   UNL     1      -0.154   9.952  18.405  0.00  0.00    +0.000 N 
ATOM     15  C   UNL     1      -0.969  10.554  17.473  0.00  0.00    +0.000 A 
ATOM     16  C   UNL     1      -1.715  11.525  18.111  0.00  0.00    +0.000 A 
ATOM     17  C   UNL     1      -1.369  11.464  19.477  0.00  0.00    +0.000 A 
ATOM     18  H   UNL     1       0.479   9.179  18.238  0.00  0.00    +0.000 HD
ENDBRANCH   5   7
BRANCH   1  19
ATOM     19  S   UNL     1      -6.765  11.936  19.099  0.00  0.00    +0.000 S 
ATOM     20  O   UNL     1      -6.152  11.068  18.115  0.00  0.00    +0.000 OA
ATOM     21  O   UNL     1      -7.782  12.900  18.725  0.00  0.00    +0.000 OA
BRANCH  19  23
ATOM     22  C   UNL     1      -7.438   9.445  20.073  0.00  0.00    +0.000 C 
ATOM     23  C   UNL     1      -7.414  10.922  20.427  0.00  0.00    +0.000 C 
ENDBRANCH  19  23
ENDBRANCH   1  19
BRANCH   4  24
ATOM     24  O   UNL     1      -2.219  14.775  21.756  0.00  0.00    +0.000 OA
BRANCH  24  25
ATOM     25  C   UNL     1      -1.031  15.392  21.220  0.00  0.00    +0.000 C 
ATOM     26  C   UNL     1       0.317  15.020  21.833  0.00  0.00    +0.000 C 
ATOM     27  C   UNL     1       1.140  14.022  21.029  0.00  0.00    +0.000 C 
ATOM     28  C   UNL     1       1.280  14.358  19.530  0.00  0.00    +0.000 C 
ATOM     29  C   UNL     1      -0.034  14.803  18.875  0.00  0.00    +0.000 C 
ATOM     30  C   UNL     1      -0.989  15.657  19.712  0.00  0.00    +0.000 C 
ATOM     31  O   UNL     1       2.302  15.351  19.351  0.00  0.00    +0.000 OA
ATOM     32  C   UNL     1       3.080  14.920  18.231  0.00  0.00    +0.000 C 
ATOM     33  C   UNL     1       2.880  13.430  18.147  0.00  0.00    +0.000 C 
ATOM     34  O   UNL     1       1.679  13.152  18.854  0.00  0.00    +0.000 OA
ENDBRANCH  24  25
ENDBRANCH   4  24
TORSDOF 5
ENDMDL
MODEL 7
REMARK VINA RESULT:      -7.6      4.851      8.816
REMARK  Name = 
REMARK  7 active torsions:
REMARK  status: ('A' for Active; 'I' for Inactive)
REMARK    1  A    between atoms: C_1  and  C_2
REMARK    2  A    between atoms: C_2  and  S_3
REMARK    3  A    between atoms: S_3  and  C_6
REMARK    4  A    between atoms: C_9  and  O_10
REMARK    5  A    between atoms: O_10  and  C_11
REMARK    6  A    between atoms: C_21  and  C_22
REMARK    7  A    between atoms: N_24  and  C_25
REMARK                            x       y       z     vdW  Elec       q    Type
REMARK                         _______ _______ _______ _____ _____    ______ ____
ROOT
ATOM      1  C   UNL     1       0.626  10.783  19.469  0.00  0.00    +0.000 A 
ATOM      2  C   UNL     1      -0.281  10.400  20.458  0.00  0.00    +0.000 A 
ATOM      3  C   UNL     1      -0.687  11.324  21.454  0.00  0.00    +0.000 A 
ATOM      4  C   UNL     1      -0.194  12.631  21.469  0.00  0.00    +0.000 A 
ATOM      5  C   UNL     1       0.751  12.986  20.475  0.00  0.00    +0.000 A 
ATOM      6  C   UNL     1       1.143  12.064  19.484  0.00  0.00    +0.000 A 
ENDROOT
BRANCH   5   7
ATOM      7  C   UNL     1       1.415  14.298  20.315  0.00  0.00    +0.000 A 
ATOM      8  C   UNL     1       2.752  14.321  20.544  0.00  0.00    +0.000 A 
ATOM      9  N   UNL     1       3.567  15.393  20.164  0.00  0.00    +0.000 N 
ATOM     10  C   UNL     1       5.007  15.225  20.202  0.00  0.00    +0.000 C 
ATOM     11  C   UNL     1       3.054  16.542  19.522  0.00  0.00    +0.000 A 
ATOM     12  O   UNL     1       3.737  17.506  19.189  0.00  0.00    +0.000 OA
ATOM     13  C   UNL     1       1.650  16.442  19.216  0.00  0.00    +0.000 A 
ATOM     14  N   UNL     1       0.908  17.277  18.426  0.00  0.00    +0.000 N 
ATOM     15  C   UNL     1      -0.338  16.725  18.229  0.00  0.00    +0.000 A 
ATOM     16  C   UNL     1      -0.416  15.559  18.964  0.00  0.00    +0.000 A 
ATOM     17  C   UNL     1       0.842  15.386  19.578  0.00  0.00    +0.000 A 
ATOM     18  H   UNL     1       1.268  18.116  17.987  0.00  0.00    +0.000 HD
ENDBRANCH   5   7
BRANCH   1  19
ATOM     19  S   UNL     1       1.200   9.678  18.191  0.00  0.00    +0.000 S 
ATOM     20  O   UNL     1       2.307  10.330  17.523  0.00  0.00    +0.000 OA
ATOM     21  O   UNL     1       0.022   9.255  17.459  0.00  0.00    +0.000 OA
BRANCH  19  23
ATOM     22  C   UNL     1       2.594   7.299  18.212  0.00  0.00    +0.000 C 
ATOM     23  C   UNL     1       1.833   8.269  19.099  0.00  0.00    +0.000 C 
ENDBRANCH  19  23
ENDBRANCH   1  19
BRANCH   4  24
ATOM     24  O   UNL     1      -0.464  13.564  22.424  0.00  0.00    +0.000 OA
BRANCH  24  25
ATOM     25  C   UNL     1      -1.725  14.122  22.848  0.00  0.00    +0.000 C 
ATOM     26  C   UNL     1      -2.601  14.809  21.803  0.00  0.00    +0.000 C 
ATOM     27  C   UNL     1      -3.770  13.977  21.293  0.00  0.00    +0.000 C 
ATOM     28  C   UNL     1      -4.626  13.318  22.395  0.00  0.00    +0.000 C 
ATOM     29  C   UNL     1      -3.795  12.668  23.510  0.00  0.00    +0.000 C 
ATOM     30  C   UNL     1      -2.503  13.371  23.932  0.00  0.00    +0.000 C 
ATOM     31  O   UNL     1      -5.542  14.283  22.936  0.00  0.00    +0.000 OA
ATOM     32  C   UNL     1      -6.799  13.611  23.050  0.00  0.00    +0.000 C 
ATOM     33  C   UNL     1      -6.752  12.488  22.050  0.00  0.00    +0.000 C 
ATOM     34  O   UNL     1      -5.376  12.256  21.780  0.00  0.00    +0.000 OA
ENDBRANCH  24  25
ENDBRANCH   4  24
TORSDOF 5
ENDMDL
MODEL 8
REMARK VINA RESULT:      -7.6      6.465      9.506
REMARK  Name = 
REMARK  7 active torsions:
REMARK  status: ('A' for Active; 'I' for Inactive)
REMARK    1  A    between atoms: C_1  and  C_2
REMARK    2  A    between atoms: C_2  and  S_3
REMARK    3  A    between atoms: S_3  and  C_6
REMARK    4  A    between atoms: C_9  and  O_10
REMARK    5  A    between atoms: O_10  and  C_11
REMARK    6  A    between atoms: C_21  and  C_22
REMARK    7  A    between atoms: N_24  and  C_25
REMARK                            x       y       z     vdW  Elec       q    Type
REMARK                         _______ _______ _______ _____ _____    ______ ____
ROOT
ATOM      1  C   UNL     1      -2.893  13.808  22.642  0.00  0.00    +0.000 A 
ATOM      2  C   UNL     1      -2.184  15.002  22.507  0.00  0.00    +0.000 A 
ATOM      3  C   UNL     1      -1.444  15.266  21.326  0.00  0.00    +0.000 A 
ATOM      4  C   UNL     1      -1.409  14.345  20.276  0.00  0.00    +0.000 A 
ATOM      5  C   UNL     1      -2.109  13.125  20.450  0.00  0.00    +0.000 A 
ATOM      6  C   UNL     1      -2.848  12.875  21.624  0.00  0.00    +0.000 A 
ENDROOT
BRANCH   5   7
ATOM      7  C   UNL     1      -2.190  12.007  19.487  0.00  0.00    +0.000 A 
ATOM      8  C   UNL     1      -3.282  11.991  18.682  0.00  0.00    +0.000 A 
ATOM      9  N   UNL     1      -3.372  11.185  17.543  0.00  0.00    +0.000 N 
ATOM     10  C   UNL     1      -4.447  11.423  16.599  0.00  0.00    +0.000 C 
ATOM     11  C   UNL     1      -2.332  10.313  17.150  0.00  0.00    +0.000 A 
ATOM     12  O   UNL     1      -2.383   9.581  16.166  0.00  0.00    +0.000 OA
ATOM     13  C   UNL     1      -1.157  10.422  17.976  0.00  0.00    +0.000 A 
ATOM     14  N   UNL     1       0.078   9.880  17.744  0.00  0.00    +0.000 N 
ATOM     15  C   UNL     1       0.971  10.382  18.663  0.00  0.00    +0.000 A 
ATOM     16  C   UNL     1       0.282  11.198  19.538  0.00  0.00    +0.000 A 
ATOM     17  C   UNL     1      -1.056  11.221  19.095  0.00  0.00    +0.000 A 
ATOM     18  H   UNL     1       0.299   9.281  16.958  0.00  0.00    +0.000 HD
ENDBRANCH   5   7
BRANCH   1  19
ATOM     19  S   UNL     1      -3.833  13.391  24.100  0.00  0.00    +0.000 S 
ATOM     20  O   UNL     1      -3.340  14.218  25.182  0.00  0.00    +0.000 OA
ATOM     21  O   UNL     1      -3.823  11.944  24.191  0.00  0.00    +0.000 OA
BRANCH  19  23
ATOM     22  C   UNL     1      -5.643  15.428  23.674  0.00  0.00    +0.000 C 
ATOM     23  C   UNL     1      -5.499  13.916  23.697  0.00  0.00    +0.000 C 
ENDBRANCH  19  23
ENDBRANCH   1  19
BRANCH   4  24
ATOM     24  O   UNL     1      -0.670  14.474  19.139  0.00  0.00    +0.000 OA
BRANCH  24  25
ATOM     25  C   UNL     1       0.614  15.096  18.930  0.00  0.00    +0.000 C 
ATOM     26  C   UNL     1       0.650  16.575  18.554  0.00  0.00    +0.000 C 
ATOM     27  C   UNL     1       0.994  17.524  19.694  0.00  0.00    +0.000 C 
ATOM     28  C   UNL     1       2.237  17.126  20.516  0.00  0.00    +0.000 C 
ATOM     29  C   UNL     1       2.288  15.633  20.867  0.00  0.00    +0.000 C 
ATOM     30  C   UNL     1       1.774  14.641  19.821  0.00  0.00    +0.000 C 
ATOM     31  O   UNL     1       3.427  17.527  19.817  0.00  0.00    +0.000 OA
ATOM     32  C   UNL     1       4.284  18.109  20.801  0.00  0.00    +0.000 C 
ATOM     33  C   UNL     1       3.377  18.571  21.910  0.00  0.00    +0.000 C 
ATOM     34  O   UNL     1       2.171  17.832  21.767  0.00  0.00    +0.000 OA
ENDBRANCH  24  25
ENDBRANCH   4  24
TORSDOF 5
ENDMDL
MODEL 9
REMARK VINA RESULT:      -7.6      7.876     10.677
REMARK  Name = 
REMARK  7 active torsions:
REMARK  status: ('A' for Active; 'I' for Inactive)
REMARK    1  A    between atoms: C_1  and  C_2
REMARK    2  A    between atoms: C_2  and  S_3
REMARK    3  A    between atoms: S_3  and  C_6
REMARK    4  A    between atoms: C_9  and  O_10
REMARK    5  A    between atoms: O_10  and  C_11
REMARK    6  A    between atoms: C_21  and  C_22
REMARK    7  A    between atoms: N_24  and  C_25
REMARK                            x       y       z     vdW  Elec       q    Type
REMARK                         _______ _______ _______ _____ _____    ______ ____
ROOT
ATOM      1  C   UNL     1      -3.688  11.873  18.861  0.00  0.00    +0.000 A 
ATOM      2  C   UNL     1      -2.621  11.051  18.500  0.00  0.00    +0.000 A 
ATOM      3  C   UNL     1      -1.419  11.064  19.253  0.00  0.00    +0.000 A 
ATOM      4  C   UNL     1      -1.276  11.893  20.368  0.00  0.00    +0.000 A 
ATOM      5  C   UNL     1      -2.361  12.744  20.695  0.00  0.00    +0.000 A 
ATOM      6  C   UNL     1      -3.555  12.718  19.946  0.00  0.00    +0.000 A 
ENDROOT
BRANCH   5   7
ATOM      7  C   UNL     1      -2.420  13.711  21.812  0.00  0.00    +0.000 A 
ATOM      8  C   UNL     1      -2.255  15.016  21.481  0.00  0.00    +0.000 A 
ATOM      9  N   UNL     1      -2.564  16.064  22.353  0.00  0.00    +0.000 N 
ATOM     10  C   UNL     1      -2.613  17.417  21.833  0.00  0.00    +0.000 C 
ATOM     11  C   UNL     1      -3.062  15.841  23.657  0.00  0.00    +0.000 A 
ATOM     12  O   UNL     1      -3.328  16.736  24.453  0.00  0.00    +0.000 OA
ATOM     13  C   UNL     1      -3.307  14.450  23.940  0.00  0.00    +0.000 A 
ATOM     14  N   UNL     1      -3.972  13.924  25.014  0.00  0.00    +0.000 N 
ATOM     15  C   UNL     1      -4.163  12.575  24.810  0.00  0.00    +0.000 A 
ATOM     16  C   UNL     1      -3.546  12.224  23.626  0.00  0.00    +0.000 A 
ATOM     17  C   UNL     1      -3.015  13.411  23.082  0.00  0.00    +0.000 A 
ATOM     18  H   UNL     1      -4.341  14.472  25.781  0.00  0.00    +0.000 HD
ENDBRANCH   5   7
BRANCH   1  19
ATOM     19  S   UNL     1      -5.227  11.930  17.958  0.00  0.00    +0.000 S 
ATOM     20  O   UNL     1      -4.924  11.632  16.574  0.00  0.00    +0.000 OA
ATOM     21  O   UNL     1      -5.877  13.168  18.339  0.00  0.00    +0.000 OA
BRANCH  19  23
ATOM     22  C   UNL     1      -7.110  11.007  19.749  0.00  0.00    +0.000 C 
ATOM     23  C   UNL     1      -6.171  10.567  18.640  0.00  0.00    +0.000 C 
ENDBRANCH  19  23
ENDBRANCH   1  19
BRANCH   4  24
ATOM     24  O   UNL     1      -0.141  12.031  21.106  0.00  0.00    +0.000 OA
BRANCH  24  25
ATOM     25  C   UNL     1       1.090  12.717  20.801  0.00  0.00    +0.000 C 
ATOM     26  C   UNL     1       1.651  12.603  19.385  0.00  0.00    +0.000 C 
ATOM     27  C   UNL     1       1.400  13.811  18.492  0.00  0.00    +0.000 C 
ATOM     28  C   UNL     1       1.756  15.171  19.127  0.00  0.00    +0.000 C 
ATOM     29  C   UNL     1       1.274  15.316  20.577  0.00  0.00    +0.000 C 
ATOM     30  C   UNL     1       1.330  14.074  21.469  0.00  0.00    +0.000 C 
ATOM     31  O   UNL     1       3.173  15.391  19.035  0.00  0.00    +0.000 OA
ATOM     32  C   UNL     1       3.334  16.750  18.622  0.00  0.00    +0.000 C 
ATOM     33  C   UNL     1       2.054  17.117  17.921  0.00  0.00    +0.000 C 
ATOM     34  O   UNL     1       1.076  16.190  18.373  0.00  0.00    +0.000 OA
ENDBRANCH  24  25
ENDBRANCH   4  24
TORSDOF 5
ENDMDL
