MODEL 1
REMARK VINA RESULT:      -5.2      0.000      0.000
REMARK  Name = 
REMARK  7 active torsions:
REMARK  status: ('A' for Active; 'I' for Inactive)
REMARK    1  A    between atoms: C_1  and  O_2
REMARK    2  A    between atoms: O_2  and  C_3
REMARK    3  A    between atoms: C_6  and  N_7
REMARK    4  A    between atoms: N_7  and  C_8
REMARK    5  A    between atoms: C_8  and  C_9
REMARK    6  A    between atoms: C_9  and  C_10
REMARK    7  A    between atoms: C_10  and  O_11
REMARK                            x       y       z     vdW  Elec       q    Type
REMARK                         _______ _______ _______ _____ _____    ______ ____
ROOT
ATOM      1  C   UNL     1       6.451   4.703  16.692  0.00  0.00    +0.000 A 
ATOM      2  C   UNL     1       5.194   4.279  16.271  0.00  0.00    +0.000 A 
ATOM      3  C   UNL     1       4.163   4.071  17.194  0.00  0.00    +0.000 A 
ATOM      4  C   UNL     1       4.384   4.256  18.561  0.00  0.00    +0.000 A 
ATOM      5  C   UNL     1       5.647   4.702  18.972  0.00  0.00    +0.000 A 
ATOM      6  C   UNL     1       6.680   4.911  18.050  0.00  0.00    +0.000 A 
ENDROOT
BRANCH   1   8
ATOM      7  C   UNL     1       6.892   4.673  14.371  0.00  0.00    +0.000 C 
ATOM      8  O   UNL     1       7.381   4.843  15.696  0.00  0.00    +0.000 OA
ENDBRANCH   1   8
BRANCH   4   9
ATOM      9  N   UNL     1       3.407   4.066  19.544  0.00  0.00    +0.000 N 
ATOM     10  H   UNL     1       3.656   4.594  20.381  0.00  0.00    +0.000 HD
BRANCH   9  11
ATOM     11  C   UNL     1       2.007   4.237  19.171  0.00  0.00    +0.000 C 
BRANCH  11  12
ATOM     12  C   UNL     1       1.110   3.829  20.335  0.00  0.00    +0.000 C 
BRANCH  12  13
ATOM     13  C   UNL     1       1.683   2.652  21.114  0.00  0.00    +0.000 C 
BRANCH  13  14
ATOM     14  O   UNL     1       2.329   3.131  22.290  0.00  0.00    +0.000 OA
ATOM     15  H   UNL     1       2.406   2.376  22.899  0.00  0.00    +0.000 HD
ENDBRANCH  13  14
ENDBRANCH  12  13
ENDBRANCH  11  12
ENDBRANCH   9  11
ENDBRANCH   4   9
TORSDOF 6
ENDMDL
MODEL 2
REMARK VINA RESULT:      -5.2      2.091      2.489
REMARK  Name = 
REMARK  7 active torsions:
REMARK  status: ('A' for Active; 'I' for Inactive)
REMARK    1  A    between atoms: C_1  and  O_2
REMARK    2  A    between atoms: O_2  and  C_3
REMARK    3  A    between atoms: C_6  and  N_7
REMARK    4  A    between atoms: N_7  and  C_8
REMARK    5  A    between atoms: C_8  and  C_9
REMARK    6  A    between atoms: C_9  and  C_10
REMARK    7  A    between atoms: C_10  and  O_11
REMARK                            x       y       z     vdW  Elec       q    Type
REMARK                         _______ _______ _______ _____ _____    ______ ____
ROOT
ATOM      1  C   UNL     1       6.540   6.098  16.840  0.00  0.00    +0.000 A 
ATOM      2  C   UNL     1       5.359   6.757  17.167  0.00  0.00    +0.000 A 
ATOM      3  C   UNL     1       4.166   6.045  17.335  0.00  0.00    +0.000 A 
ATOM      4  C   UNL     1       4.131   4.660  17.148  0.00  0.00    +0.000 A 
ATOM      5  C   UNL     1       5.330   4.005  16.839  0.00  0.00    +0.000 A 
ATOM      6  C   UNL     1       6.525   4.715  16.671  0.00  0.00    +0.000 A 
ENDROOT
BRANCH   1   8
ATOM      7  C   UNL     1       7.731   7.996  17.588  0.00  0.00    +0.000 C 
ATOM      8  O   UNL     1       7.632   6.909  16.676  0.00  0.00    +0.000 OA
ENDBRANCH   1   8
BRANCH   4   9
ATOM      9  N   UNL     1       2.980   3.879  17.296  0.00  0.00    +0.000 N 
ATOM     10  H   UNL     1       3.217   3.004  17.761  0.00  0.00    +0.000 HD
BRANCH   9  11
ATOM     11  C   UNL     1       1.786   4.505  17.854  0.00  0.00    +0.000 C 
BRANCH  11  12
ATOM     12  C   UNL     1       1.361   3.768  19.119  0.00  0.00    +0.000 C 
BRANCH  12  13
ATOM     13  C   UNL     1       0.802   2.383  18.814  0.00  0.00    +0.000 C 
BRANCH  13  14
ATOM     14  O   UNL     1       1.877   1.462  18.662  0.00  0.00    +0.000 OA
ATOM     15  H   UNL     1       1.539   0.717  18.135  0.00  0.00    +0.000 HD
ENDBRANCH  13  14
ENDBRANCH  12  13
ENDBRANCH  11  12
ENDBRANCH   9  11
ENDBRANCH   4   9
TORSDOF 6
ENDMDL
MODEL 3
REMARK VINA RESULT:      -5.1      1.203      1.228
REMARK  Name = 
REMARK  7 active torsions:
REMARK  status: ('A' for Active; 'I' for Inactive)
REMARK    1  A    between atoms: C_1  and  O_2
REMARK    2  A    between atoms: O_2  and  C_3
REMARK    3  A    between atoms: C_6  and  N_7
REMARK    4  A    between atoms: N_7  and  C_8
REMARK    5  A    between atoms: C_8  and  C_9
REMARK    6  A    between atoms: C_9  and  C_10
REMARK    7  A    between atoms: C_10  and  O_11
REMARK                            x       y       z     vdW  Elec       q    Type
REMARK                         _______ _______ _______ _____ _____    ______ ____
ROOT
ATOM      1  C   UNL     1       6.675   5.510  16.430  0.00  0.00    +0.000 A 
ATOM      2  C   UNL     1       5.446   6.148  16.298  0.00  0.00    +0.000 A 
ATOM      3  C   UNL     1       4.548   6.200  17.370  0.00  0.00    +0.000 A 
ATOM      4  C   UNL     1       4.856   5.585  18.587  0.00  0.00    +0.000 A 
ATOM      5  C   UNL     1       6.104   4.962  18.714  0.00  0.00    +0.000 A 
ATOM      6  C   UNL     1       7.004   4.909  17.643  0.00  0.00    +0.000 A 
ENDROOT
BRANCH   1   8
ATOM      7  C   UNL     1       6.924   4.781  14.197  0.00  0.00    +0.000 C 
ATOM      8  O   UNL     1       7.451   5.504  15.302  0.00  0.00    +0.000 OA
ENDBRANCH   1   8
BRANCH   4   9
ATOM      9  N   UNL     1       4.012   5.590  19.702  0.00  0.00    +0.000 N 
ATOM     10  H   UNL     1       4.133   6.461  20.219  0.00  0.00    +0.000 HD
BRANCH   9  11
ATOM     11  C   UNL     1       2.608   5.243  19.510  0.00  0.00    +0.000 C 
BRANCH  11  12
ATOM     12  C   UNL     1       1.963   4.941  20.858  0.00  0.00    +0.000 C 
BRANCH  12  13
ATOM     13  C   UNL     1       1.531   3.484  20.972  0.00  0.00    +0.000 C 
BRANCH  13  14
ATOM     14  O   UNL     1       2.028   2.936  22.189  0.00  0.00    +0.000 OA
ATOM     15  H   UNL     1       2.569   2.163  21.951  0.00  0.00    +0.000 HD
ENDBRANCH  13  14
ENDBRANCH  12  13
ENDBRANCH  11  12
ENDBRANCH   9  11
ENDBRANCH   4   9
TORSDOF 6
ENDMDL
MODEL 4
REMARK VINA RESULT:      -5.1      1.609      6.158
REMARK  Name = 
REMARK  7 active torsions:
REMARK  status: ('A' for Active; 'I' for Inactive)
REMARK    1  A    between atoms: C_1  and  O_2
REMARK    2  A    between atoms: O_2  and  C_3
REMARK    3  A    between atoms: C_6  and  N_7
REMARK    4  A    between atoms: N_7  and  C_8
REMARK    5  A    between atoms: C_8  and  C_9
REMARK    6  A    between atoms: C_9  and  C_10
REMARK    7  A    between atoms: C_10  and  O_11
REMARK                            x       y       z     vdW  Elec       q    Type
REMARK                         _______ _______ _______ _____ _____    ______ ____
ROOT
ATOM      1  C   UNL     1       2.066   3.652  19.482  0.00  0.00    +0.000 A 
ATOM      2  C   UNL     1       3.368   3.878  19.917  0.00  0.00    +0.000 A 
ATOM      3  C   UNL     1       4.435   3.883  19.011  0.00  0.00    +0.000 A 
ATOM      4  C   UNL     1       4.217   3.632  17.654  0.00  0.00    +0.000 A 
ATOM      5  C   UNL     1       2.900   3.426  17.224  0.00  0.00    +0.000 A 
ATOM      6  C   UNL     1       1.831   3.420  18.128  0.00  0.00    +0.000 A 
ENDROOT
BRANCH   1   8
ATOM      7  C   UNL     1       1.345   2.731  21.534  0.00  0.00    +0.000 C 
ATOM      8  O   UNL     1       1.116   3.644  20.468  0.00  0.00    +0.000 OA
ENDBRANCH   1   8
BRANCH   4   9
ATOM      9  N   UNL     1       5.229   3.619  16.689  0.00  0.00    +0.000 N 
ATOM     10  H   UNL     1       5.449   2.656  16.436  0.00  0.00    +0.000 HD
BRANCH   9  11
ATOM     11  C   UNL     1       5.086   4.485  15.523  0.00  0.00    +0.000 C 
BRANCH  11  12
ATOM     12  C   UNL     1       5.983   3.984  14.396  0.00  0.00    +0.000 C 
BRANCH  12  13
ATOM     13  C   UNL     1       7.218   4.858  14.216  0.00  0.00    +0.000 C 
BRANCH  13  14
ATOM     14  O   UNL     1       7.509   5.526  15.440  0.00  0.00    +0.000 OA
ATOM     15  H   UNL     1       8.333   6.025  15.302  0.00  0.00    +0.000 HD
ENDBRANCH  13  14
ENDBRANCH  12  13
ENDBRANCH  11  12
ENDBRANCH   9  11
ENDBRANCH   4   9
TORSDOF 6
ENDMDL
MODEL 5
REMARK VINA RESULT:      -5.1      1.431      1.504
REMARK  Name = 
REMARK  7 active torsions:
REMARK  status: ('A' for Active; 'I' for Inactive)
REMARK    1  A    between atoms: C_1  and  O_2
REMARK    2  A    between atoms: O_2  and  C_3
REMARK    3  A    between atoms: C_6  and  N_7
REMARK    4  A    between atoms: N_7  and  C_8
REMARK    5  A    between atoms: C_8  and  C_9
REMARK    6  A    between atoms: C_9  and  C_10
REMARK    7  A    between atoms: C_10  and  O_11
REMARK                            x       y       z     vdW  Elec       q    Type
REMARK                         _______ _______ _______ _____ _____    ______ ____
ROOT
ATOM      1  C   UNL     1       6.334   4.769  16.998  0.00  0.00    +0.000 A 
ATOM      2  C   UNL     1       5.113   4.429  16.423  0.00  0.00    +0.000 A 
ATOM      3  C   UNL     1       3.955   4.341  17.203  0.00  0.00    +0.000 A 
ATOM      4  C   UNL     1       4.006   4.562  18.581  0.00  0.00    +0.000 A 
ATOM      5  C   UNL     1       5.236   4.924  19.147  0.00  0.00    +0.000 A 
ATOM      6  C   UNL     1       6.396   5.013  18.369  0.00  0.00    +0.000 A 
ENDROOT
BRANCH   1   8
ATOM      7  C   UNL     1       7.064   4.862  14.754  0.00  0.00    +0.000 C 
ATOM      8  O   UNL     1       7.396   4.796  16.135  0.00  0.00    +0.000 OA
ENDBRANCH   1   8
BRANCH   4   9
ATOM      9  N   UNL     1       2.894   4.491  19.427  0.00  0.00    +0.000 N 
ATOM     10  H   UNL     1       2.040   4.579  18.878  0.00  0.00    +0.000 HD
BRANCH   9  11
ATOM     11  C   UNL     1       2.829   3.399  20.393  0.00  0.00    +0.000 C 
BRANCH  11  12
ATOM     12  C   UNL     1       1.428   2.798  20.399  0.00  0.00    +0.000 C 
BRANCH  12  13
ATOM     13  C   UNL     1       0.896   2.574  18.988  0.00  0.00    +0.000 C 
BRANCH  13  14
ATOM     14  O   UNL     1       1.785   1.717  18.278  0.00  0.00    +0.000 OA
ATOM     15  H   UNL     1       1.520   1.747  17.342  0.00  0.00    +0.000 HD
ENDBRANCH  13  14
ENDBRANCH  12  13
ENDBRANCH  11  12
ENDBRANCH   9  11
ENDBRANCH   4   9
TORSDOF 6
ENDMDL
MODEL 6
REMARK VINA RESULT:      -5.1      1.421      1.737
REMARK  Name = 
REMARK  7 active torsions:
REMARK  status: ('A' for Active; 'I' for Inactive)
REMARK    1  A    between atoms: C_1  and  O_2
REMARK    2  A    between atoms: O_2  and  C_3
REMARK    3  A    between atoms: C_6  and  N_7
REMARK    4  A    between atoms: N_7  and  C_8
REMARK    5  A    between atoms: C_8  and  C_9
REMARK    6  A    between atoms: C_9  and  C_10
REMARK    7  A    between atoms: C_10  and  O_11
REMARK                            x       y       z     vdW  Elec       q    Type
REMARK                         _______ _______ _______ _____ _____    ______ ____
ROOT
ATOM      1  C   UNL     1       5.256   5.473  16.145  0.00  0.00    +0.000 A 
ATOM      2  C   UNL     1       4.704   6.576  16.789  0.00  0.00    +0.000 A 
ATOM      3  C   UNL     1       3.660   6.419  17.708  0.00  0.00    +0.000 A 
ATOM      4  C   UNL     1       3.130   5.154  17.974  0.00  0.00    +0.000 A 
ATOM      5  C   UNL     1       3.707   4.049  17.335  0.00  0.00    +0.000 A 
ATOM      6  C   UNL     1       4.752   4.203  16.415  0.00  0.00    +0.000 A 
ENDROOT
BRANCH   1   8
ATOM      7  C   UNL     1       6.616   4.700  14.375  0.00  0.00    +0.000 C 
ATOM      8  O   UNL     1       6.252   5.761  15.250  0.00  0.00    +0.000 OA
ENDBRANCH   1   8
BRANCH   4   9
ATOM      9  N   UNL     1       2.087   4.916  18.876  0.00  0.00    +0.000 N 
ATOM     10  H   UNL     1       1.511   5.752  18.960  0.00  0.00    +0.000 HD
BRANCH   9  11
ATOM     11  C   UNL     1       1.294   3.703  18.712  0.00  0.00    +0.000 C 
BRANCH  11  12
ATOM     12  C   UNL     1       1.343   2.877  19.993  0.00  0.00    +0.000 C 
BRANCH  12  13
ATOM     13  C   UNL     1       1.783   3.708  21.192  0.00  0.00    +0.000 C 
BRANCH  13  14
ATOM     14  O   UNL     1       2.416   2.863  22.148  0.00  0.00    +0.000 OA
ATOM     15  H   UNL     1       2.564   3.399  22.946  0.00  0.00    +0.000 HD
ENDBRANCH  13  14
ENDBRANCH  12  13
ENDBRANCH  11  12
ENDBRANCH   9  11
ENDBRANCH   4   9
TORSDOF 6
ENDMDL
MODEL 7
REMARK VINA RESULT:      -5.0      1.768      5.836
REMARK  Name = 
REMARK  7 active torsions:
REMARK  status: ('A' for Active; 'I' for Inactive)
REMARK    1  A    between atoms: C_1  and  O_2
REMARK    2  A    between atoms: O_2  and  C_3
REMARK    3  A    between atoms: C_6  and  N_7
REMARK    4  A    between atoms: N_7  and  C_8
REMARK    5  A    between atoms: C_8  and  C_9
REMARK    6  A    between atoms: C_9  and  C_10
REMARK    7  A    between atoms: C_10  and  O_11
REMARK                            x       y       z     vdW  Elec       q    Type
REMARK                         _______ _______ _______ _____ _____    ______ ____
ROOT
ATOM      1  C   UNL     1       2.102   3.090  19.375  0.00  0.00    +0.000 A 
ATOM      2  C   UNL     1       3.353   3.180  19.977  0.00  0.00    +0.000 A 
ATOM      3  C   UNL     1       4.496   3.448  19.215  0.00  0.00    +0.000 A 
ATOM      4  C   UNL     1       4.407   3.602  17.829  0.00  0.00    +0.000 A 
ATOM      5  C   UNL     1       3.140   3.530  17.236  0.00  0.00    +0.000 A 
ATOM      6  C   UNL     1       1.995   3.262  17.996  0.00  0.00    +0.000 A 
ENDROOT
BRANCH   1   8
ATOM      7  C   UNL     1       1.413   2.691  21.599  0.00  0.00    +0.000 C 
ATOM      8  O   UNL     1       1.068   2.796  20.223  0.00  0.00    +0.000 OA
ENDBRANCH   1   8
BRANCH   4   9
ATOM      9  N   UNL     1       5.502   3.870  17.000  0.00  0.00    +0.000 N 
ATOM     10  H   UNL     1       6.186   3.119  17.084  0.00  0.00    +0.000 HD
BRANCH   9  11
ATOM     11  C   UNL     1       5.245   4.242  15.613  0.00  0.00    +0.000 C 
BRANCH  11  12
ATOM     12  C   UNL     1       5.465   5.740  15.432  0.00  0.00    +0.000 C 
BRANCH  12  13
ATOM     13  C   UNL     1       6.088   6.380  16.667  0.00  0.00    +0.000 C 
BRANCH  13  14
ATOM     14  O   UNL     1       7.506   6.370  16.542  0.00  0.00    +0.000 OA
ATOM     15  H   UNL     1       7.863   6.056  17.390  0.00  0.00    +0.000 HD
ENDBRANCH  13  14
ENDBRANCH  12  13
ENDBRANCH  11  12
ENDBRANCH   9  11
ENDBRANCH   4   9
TORSDOF 6
ENDMDL
MODEL 8
REMARK VINA RESULT:      -5.0      1.843      1.930
REMARK  Name = 
REMARK  7 active torsions:
REMARK  status: ('A' for Active; 'I' for Inactive)
REMARK    1  A    between atoms: C_1  and  O_2
REMARK    2  A    between atoms: O_2  and  C_3
REMARK    3  A    between atoms: C_6  and  N_7
REMARK    4  A    between atoms: N_7  and  C_8
REMARK    5  A    between atoms: C_8  and  C_9
REMARK    6  A    between atoms: C_9  and  C_10
REMARK    7  A    between atoms: C_10  and  O_11
REMARK                            x       y       z     vdW  Elec       q    Type
REMARK                         _______ _______ _______ _____ _____    ______ ____
ROOT
ATOM      1  C   UNL     1       5.504   5.584  16.309  0.00  0.00    +0.000 A 
ATOM      2  C   UNL     1       4.980   4.295  16.301  0.00  0.00    +0.000 A 
ATOM      3  C   UNL     1       3.787   4.004  16.971  0.00  0.00    +0.000 A 
ATOM      4  C   UNL     1       3.112   4.996  17.687  0.00  0.00    +0.000 A 
ATOM      5  C   UNL     1       3.637   6.294  17.672  0.00  0.00    +0.000 A 
ATOM      6  C   UNL     1       4.832   6.588  17.003  0.00  0.00    +0.000 A 
ENDROOT
BRANCH   1   8
ATOM      7  C   UNL     1       6.903   4.837  14.559  0.00  0.00    +0.000 C 
ATOM      8  O   UNL     1       6.690   5.734  15.642  0.00  0.00    +0.000 OA
ENDBRANCH   1   8
BRANCH   4   9
ATOM      9  N   UNL     1       1.917   4.783  18.382  0.00  0.00    +0.000 N 
ATOM     10  H   UNL     1       1.394   4.027  17.942  0.00  0.00    +0.000 HD
BRANCH   9  11
ATOM     11  C   UNL     1       1.975   4.651  19.834  0.00  0.00    +0.000 C 
BRANCH  11  12
ATOM     12  C   UNL     1       1.219   3.400  20.269  0.00  0.00    +0.000 C 
BRANCH  12  13
ATOM     13  C   UNL     1       1.696   2.157  19.528  0.00  0.00    +0.000 C 
BRANCH  13  14
ATOM     14  O   UNL     1       0.915   1.979  18.350  0.00  0.00    +0.000 OA
ATOM     15  H   UNL     1       1.471   1.502  17.710  0.00  0.00    +0.000 HD
ENDBRANCH  13  14
ENDBRANCH  12  13
ENDBRANCH  11  12
ENDBRANCH   9  11
ENDBRANCH   4   9
TORSDOF 6
ENDMDL
MODEL 9
REMARK VINA RESULT:      -5.0      1.028      1.039
REMARK  Name = 
REMARK  7 active torsions:
REMARK  status: ('A' for Active; 'I' for Inactive)
REMARK    1  A    between atoms: C_1  and  O_2
REMARK    2  A    between atoms: O_2  and  C_3
REMARK    3  A    between atoms: C_6  and  N_7
REMARK    4  A    between atoms: N_7  and  C_8
REMARK    5  A    between atoms: C_8  and  C_9
REMARK    6  A    between atoms: C_9  and  C_10
REMARK    7  A    between atoms: C_10  and  O_11
REMARK                            x       y       z     vdW  Elec       q    Type
REMARK                         _______ _______ _______ _____ _____    ______ ____
ROOT
ATOM      1  C   UNL     1       5.546   5.333  16.512  0.00  0.00    +0.000 A 
ATOM      2  C   UNL     1       5.175   4.021  16.236  0.00  0.00    +0.000 A 
ATOM      3  C   UNL     1       4.259   3.349  17.054  0.00  0.00    +0.000 A 
ATOM      4  C   UNL     1       3.721   3.974  18.183  0.00  0.00    +0.000 A 
ATOM      5  C   UNL     1       4.087   5.302  18.439  0.00  0.00    +0.000 A 
ATOM      6  C   UNL     1       5.003   5.976  17.622  0.00  0.00    +0.000 A 
ENDROOT
BRANCH   1   8
ATOM      7  C   UNL     1       7.061   4.954  14.740  0.00  0.00    +0.000 C 
ATOM      8  O   UNL     1       6.469   5.869  15.654  0.00  0.00    +0.000 OA
ENDBRANCH   1   8
BRANCH   4   9
ATOM      9  N   UNL     1       2.804   3.370  19.049  0.00  0.00    +0.000 N 
ATOM     10  H   UNL     1       3.265   3.135  19.927  0.00  0.00    +0.000 HD
BRANCH   9  11
ATOM     11  C   UNL     1       1.513   4.019  19.251  0.00  0.00    +0.000 C 
BRANCH  11  12
ATOM     12  C   UNL     1       1.204   4.098  20.742  0.00  0.00    +0.000 C 
BRANCH  12  13
ATOM     13  C   UNL     1       1.357   2.748  21.431  0.00  0.00    +0.000 C 
BRANCH  13  14
ATOM     14  O   UNL     1       2.621   2.690  22.085  0.00  0.00    +0.000 OA
ATOM     15  H   UNL     1       2.798   1.753  22.277  0.00  0.00    +0.000 HD
ENDBRANCH  13  14
ENDBRANCH  12  13
ENDBRANCH  11  12
ENDBRANCH   9  11
ENDBRANCH   4   9
TORSDOF 6
ENDMDL
