MODEL 1
REMARK VINA RESULT:      -7.5      0.000      0.000
REMARK  Name = 
REMARK  11 active torsions:
REMARK  status: ('A' for Active; 'I' for Inactive)
REMARK    1  A    between atoms: C_1  and  O_2
REMARK    2  A    between atoms: O_2  and  C_3
REMARK    3  A    between atoms: C_9  and  C_10
REMARK    4  A    between atoms: C_10  and  N_11
REMARK    5  A    between atoms: C_10  and  C_12
REMARK    6  A    between atoms: C_17  and  O_18
REMARK    7  A    between atoms: O_18  and  C_19
REMARK    8  A    between atoms: C_22  and  C_23
REMARK    9  A    between atoms: C_22  and  C_24
REMARK   10  A    between atoms: C_28  and  O_29
REMARK   11  A    between atoms: O_29  and  C_30
REMARK                            x       y       z     vdW  Elec       q    Type
REMARK                         _______ _______ _______ _____ _____    ______ ____
ROOT
ATOM      1  C   UNL     1       0.002  10.938  19.507  0.00  0.00    +0.000 C 
ENDROOT
BRANCH   1   2
ATOM      2  C   UNL     1       1.005   9.776  19.265  0.00  0.00    +0.000 A 
ATOM      3  C   UNL     1       1.761   9.759  18.082  0.00  0.00    +0.000 A 
ATOM      4  C   UNL     1       2.457   8.633  17.670  0.00  0.00    +0.000 A 
ATOM      5  C   UNL     1       2.480   7.499  18.482  0.00  0.00    +0.000 A 
ATOM      6  C   UNL     1       1.914   7.513  19.768  0.00  0.00    +0.000 A 
ATOM      7  C   UNL     1       1.115   8.639  20.143  0.00  0.00    +0.000 A 
ATOM      8  C   UNL     1       2.199   6.329  20.594  0.00  0.00    +0.000 C 
ATOM      9  C   UNL     1       2.595   5.198  20.001  0.00  0.00    +0.000 C 
ATOM     10  C   UNL     1       2.797   5.105  18.518  0.00  0.00    +0.000 C 
ATOM     11  C   UNL     1       1.571   4.444  17.870  0.00  0.00    +0.000 C 
ATOM     12  C   UNL     1       4.036   4.242  18.250  0.00  0.00    +0.000 C 
ATOM     13  O   UNL     1       3.064   6.388  17.907  0.00  0.00    +0.000 OA
BRANCH   7  14
ATOM     14  O   UNL     1       0.255   8.697  21.212  0.00  0.00    +0.000 OA
ATOM     15  C   UNL     1       0.665   9.126  22.501  0.00  0.00    +0.000 C 
ENDBRANCH   7  14
ENDBRANCH   1   2
BRANCH   1  22
ATOM     16  C   UNL     1      -2.208  14.082  23.199  0.00  0.00    +0.000 A 
ATOM     17  C   UNL     1      -0.857  14.451  23.026  0.00  0.00    +0.000 A 
ATOM     18  C   UNL     1       0.016  13.821  22.166  0.00  0.00    +0.000 A 
ATOM     19  N   UNL     1       1.230  14.336  21.983  0.00  0.00    +0.000 NA
ATOM     20  C   UNL     1       2.041  13.765  21.075  0.00  0.00    +0.000 A 
ATOM     21  C   UNL     1       1.667  12.693  20.285  0.00  0.00    +0.000 A 
ATOM     22  C   UNL     1       0.428  12.080  20.482  0.00  0.00    +0.000 A 
ATOM     23  C   UNL     1      -0.414  12.644  21.476  0.00  0.00    +0.000 A 
ATOM     24  C   UNL     1      -1.688  12.173  21.844  0.00  0.00    +0.000 A 
ATOM     25  C   UNL     1      -2.633  12.893  22.593  0.00  0.00    +0.000 A 
BRANCH  16  27
ATOM     26  C   UNL     1      -2.714  14.860  25.357  0.00  0.00    +0.000 C 
ATOM     27  O   UNL     1      -3.038  14.877  23.950  0.00  0.00    +0.000 OA
ENDBRANCH  16  27
BRANCH  25  28
ATOM     28  O   UNL     1      -3.840  12.289  22.464  0.00  0.00    +0.000 OA
ATOM     29  C   UNL     1      -4.816  12.685  21.527  0.00  0.00    +0.000 C 
ENDBRANCH  25  28
ENDBRANCH   1  22
BRANCH   1  30
ATOM     30  N   UNL     1      -0.414  11.530  18.212  0.00  0.00    +0.000 NA
ATOM     31  H   UNL     1       0.145  12.345  18.020  0.00  0.00    +0.000 HD
ATOM     32  H   UNL     1      -1.387  11.847  18.263  0.00  0.00    +0.000 HD
ENDBRANCH   1  30
TORSDOF 6
ENDMDL
MODEL 2
REMARK VINA RESULT:      -7.2      1.046      1.141
REMARK  Name = 
REMARK  11 active torsions:
REMARK  status: ('A' for Active; 'I' for Inactive)
REMARK    1  A    between atoms: C_1  and  O_2
REMARK    2  A    between atoms: O_2  and  C_3
REMARK    3  A    between atoms: C_9  and  C_10
REMARK    4  A    between atoms: C_10  and  N_11
REMARK    5  A    between atoms: C_10  and  C_12
REMARK    6  A    between atoms: C_17  and  O_18
REMARK    7  A    between atoms: O_18  and  C_19
REMARK    8  A    between atoms: C_22  and  C_23
REMARK    9  A    between atoms: C_22  and  C_24
REMARK   10  A    between atoms: C_28  and  O_29
REMARK   11  A    between atoms: O_29  and  C_30
REMARK                            x       y       z     vdW  Elec       q    Type
REMARK                         _______ _______ _______ _____ _____    ______ ____
ROOT
ATOM      1  C   UNL     1       0.333  10.569  19.318  0.00  0.00    +0.000 C 
ENDROOT
BRANCH   1   2
ATOM      2  C   UNL     1       1.293   9.367  19.101  0.00  0.00    +0.000 A 
ATOM      3  C   UNL     1       1.993   9.259  17.888  0.00  0.00    +0.000 A 
ATOM      4  C   UNL     1       2.639   8.091  17.513  0.00  0.00    +0.000 A 
ATOM      5  C   UNL     1       2.671   7.006  18.390  0.00  0.00    +0.000 A 
ATOM      6  C   UNL     1       2.165   7.112  19.697  0.00  0.00    +0.000 A 
ATOM      7  C   UNL     1       1.414   8.280  20.039  0.00  0.00    +0.000 A 
ATOM      8  C   UNL     1       2.458   5.971  20.579  0.00  0.00    +0.000 C 
ATOM      9  C   UNL     1       2.796   4.796  20.037  0.00  0.00    +0.000 C 
ATOM     10  C   UNL     1       2.926   4.610  18.555  0.00  0.00    +0.000 C 
ATOM     11  C   UNL     1       1.655   3.948  18.003  0.00  0.00    +0.000 C 
ATOM     12  C   UNL     1       4.129   3.698  18.283  0.00  0.00    +0.000 C 
ATOM     13  O   UNL     1       3.198   5.848  17.857  0.00  0.00    +0.000 OA
BRANCH   7  14
ATOM     14  O   UNL     1       0.606   8.426  21.141  0.00  0.00    +0.000 OA
ATOM     15  C   UNL     1       1.066   8.994  22.356  0.00  0.00    +0.000 C 
ENDBRANCH   7  14
ENDBRANCH   1   2
BRANCH   1  22
ATOM     16  C   UNL     1      -0.740  14.256  23.013  0.00  0.00    +0.000 A 
ATOM     17  C   UNL     1       0.395  14.657  22.277  0.00  0.00    +0.000 A 
ATOM     18  C   UNL     1       0.962  13.917  21.261  0.00  0.00    +0.000 A 
ATOM     19  N   UNL     1       1.950  14.451  20.544  0.00  0.00    +0.000 NA
ATOM     20  C   UNL     1       2.434  13.757  19.499  0.00  0.00    +0.000 A 
ATOM     21  C   UNL     1       1.933  12.531  19.100  0.00  0.00    +0.000 A 
ATOM     22  C   UNL     1       0.941  11.903  19.855  0.00  0.00    +0.000 A 
ATOM     23  C   UNL     1       0.460  12.606  20.991  0.00  0.00    +0.000 A 
ATOM     24  C   UNL     1      -0.520  12.149  21.891  0.00  0.00    +0.000 A 
ATOM     25  C   UNL     1      -1.205  12.950  22.819  0.00  0.00    +0.000 A 
BRANCH  16  27
ATOM     26  C   UNL     1      -1.913  16.280  23.224  0.00  0.00    +0.000 C 
ATOM     27  O   UNL     1      -1.328  15.138  23.886  0.00  0.00    +0.000 OA
ENDBRANCH  16  27
BRANCH  25  28
ATOM     28  O   UNL     1      -2.289  12.268  23.264  0.00  0.00    +0.000 OA
ATOM     29  C   UNL     1      -3.616  12.599  22.921  0.00  0.00    +0.000 C 
ENDBRANCH  25  28
ENDBRANCH   1  22
BRANCH   1  30
ATOM     30  N   UNL     1      -0.428  10.844  18.074  0.00  0.00    +0.000 NA
ATOM     31  H   UNL     1      -1.415  10.803  18.269  0.00  0.00    +0.000 HD
ATOM     32  H   UNL     1      -0.237  10.121  17.374  0.00  0.00    +0.000 HD
ENDBRANCH   1  30
TORSDOF 6
ENDMDL
MODEL 3
REMARK VINA RESULT:      -6.9      2.705      3.847
REMARK  Name = 
REMARK  11 active torsions:
REMARK  status: ('A' for Active; 'I' for Inactive)
REMARK    1  A    between atoms: C_1  and  O_2
REMARK    2  A    between atoms: O_2  and  C_3
REMARK    3  A    between atoms: C_9  and  C_10
REMARK    4  A    between atoms: C_10  and  N_11
REMARK    5  A    between atoms: C_10  and  C_12
REMARK    6  A    between atoms: C_17  and  O_18
REMARK    7  A    between atoms: O_18  and  C_19
REMARK    8  A    between atoms: C_22  and  C_23
REMARK    9  A    between atoms: C_22  and  C_24
REMARK   10  A    between atoms: C_28  and  O_29
REMARK   11  A    between atoms: O_29  and  C_30
REMARK                            x       y       z     vdW  Elec       q    Type
REMARK                         _______ _______ _______ _____ _____    ______ ____
ROOT
ATOM      1  C   UNL     1       1.568  10.067  17.882  0.00  0.00    +0.000 C 
ENDROOT
BRANCH   1   2
ATOM      2  C   UNL     1       2.173   8.720  18.365  0.00  0.00    +0.000 A 
ATOM      3  C   UNL     1       3.187   8.112  17.608  0.00  0.00    +0.000 A 
ATOM      4  C   UNL     1       3.573   6.797  17.817  0.00  0.00    +0.000 A 
ATOM      5  C   UNL     1       3.001   6.065  18.859  0.00  0.00    +0.000 A 
ATOM      6  C   UNL     1       2.129   6.670  19.779  0.00  0.00    +0.000 A 
ATOM      7  C   UNL     1       1.660   7.992  19.498  0.00  0.00    +0.000 A 
ATOM      8  C   UNL     1       1.775   5.845  20.945  0.00  0.00    +0.000 C 
ATOM      9  C   UNL     1       1.940   4.520  20.882  0.00  0.00    +0.000 C 
ATOM     10  C   UNL     1       2.513   3.845  19.672  0.00  0.00    +0.000 C 
ATOM     11  C   UNL     1       1.377   3.256  18.823  0.00  0.00    +0.000 C 
ATOM     12  C   UNL     1       3.434   2.711  20.140  0.00  0.00    +0.000 C 
ATOM     13  O   UNL     1       3.338   4.727  18.876  0.00  0.00    +0.000 OA
BRANCH   7  14
ATOM     14  O   UNL     1       0.597   8.616  20.105  0.00  0.00    +0.000 OA
ATOM     15  C   UNL     1       0.396   8.592  21.509  0.00  0.00    +0.000 C 
ENDBRANCH   7  14
ENDBRANCH   1   2
BRANCH   1  22
ATOM     16  C   UNL     1      -3.607  11.323  18.060  0.00  0.00    +0.000 A 
ATOM     17  C   UNL     1      -2.957  11.886  19.178  0.00  0.00    +0.000 A 
ATOM     18  C   UNL     1      -1.615  11.730  19.456  0.00  0.00    +0.000 A 
ATOM     19  N   UNL     1      -1.078  12.415  20.464  0.00  0.00    +0.000 NA
ATOM     20  C   UNL     1       0.247  12.324  20.669  0.00  0.00    +0.000 A 
ATOM     21  C   UNL     1       1.095  11.587  19.862  0.00  0.00    +0.000 A 
ATOM     22  C   UNL     1       0.573  10.805  18.831  0.00  0.00    +0.000 A 
ATOM     23  C   UNL     1      -0.833  10.854  18.640  0.00  0.00    +0.000 A 
ATOM     24  C   UNL     1      -1.562  10.133  17.675  0.00  0.00    +0.000 A 
ATOM     25  C   UNL     1      -2.885  10.406  17.289  0.00  0.00    +0.000 A 
BRANCH  16  27
ATOM     26  C   UNL     1      -5.873  10.861  18.473  0.00  0.00    +0.000 C 
ATOM     27  O   UNL     1      -4.904  11.678  17.781  0.00  0.00    +0.000 OA
ENDBRANCH  16  27
BRANCH  25  28
ATOM     28  O   UNL     1      -3.139   9.756  16.127  0.00  0.00    +0.000 OA
ATOM     29  C   UNL     1      -3.266  10.403  14.881  0.00  0.00    +0.000 C 
ENDBRANCH  25  28
ENDBRANCH   1  22
BRANCH   1  30
ATOM     30  N   UNL     1       2.653  11.000  17.490  0.00  0.00    +0.000 NA
ATOM     31  H   UNL     1       3.020  10.730  16.592  0.00  0.00    +0.000 HD
ATOM     32  H   UNL     1       3.430  10.941  18.155  0.00  0.00    +0.000 HD
ENDBRANCH   1  30
TORSDOF 6
ENDMDL
MODEL 4
REMARK VINA RESULT:      -6.8      1.880      3.346
REMARK  Name = 
REMARK  11 active torsions:
REMARK  status: ('A' for Active; 'I' for Inactive)
REMARK    1  A    between atoms: C_1  and  O_2
REMARK    2  A    between atoms: O_2  and  C_3
REMARK    3  A    between atoms: C_9  and  C_10
REMARK    4  A    between atoms: C_10  and  N_11
REMARK    5  A    between atoms: C_10  and  C_12
REMARK    6  A    between atoms: C_17  and  O_18
REMARK    7  A    between atoms: O_18  and  C_19
REMARK    8  A    between atoms: C_22  and  C_23
REMARK    9  A    between atoms: C_22  and  C_24
REMARK   10  A    between atoms: C_28  and  O_29
REMARK   11  A    between atoms: O_29  and  C_30
REMARK                            x       y       z     vdW  Elec       q    Type
REMARK                         _______ _______ _______ _____ _____    ______ ____
ROOT
ATOM      1  C   UNL     1       0.329  11.125  18.984  0.00  0.00    +0.000 C 
ENDROOT
BRANCH   1   2
ATOM      2  C   UNL     1       1.233   9.863  18.947  0.00  0.00    +0.000 A 
ATOM      3  C   UNL     1       2.134   9.696  17.883  0.00  0.00    +0.000 A 
ATOM      4  C   UNL     1       2.761   8.484  17.634  0.00  0.00    +0.000 A 
ATOM      5  C   UNL     1       2.564   7.412  18.504  0.00  0.00    +0.000 A 
ATOM      6  C   UNL     1       1.836   7.566  19.696  0.00  0.00    +0.000 A 
ATOM      7  C   UNL     1       1.112   8.783  19.894  0.00  0.00    +0.000 A 
ATOM      8  C   UNL     1       1.891   6.420  20.619  0.00  0.00    +0.000 C 
ATOM      9  C   UNL     1       2.246   5.220  20.149  0.00  0.00    +0.000 C 
ATOM     10  C   UNL     1       2.632   5.007  18.716  0.00  0.00    +0.000 C 
ATOM     11  C   UNL     1       1.442   4.418  17.943  0.00  0.00    +0.000 C 
ATOM     12  C   UNL     1       3.803   4.017  18.670  0.00  0.00    +0.000 C 
ATOM     13  O   UNL     1       3.104   6.215  18.077  0.00  0.00    +0.000 OA
BRANCH   7  14
ATOM     14  O   UNL     1       0.128   8.993  20.829  0.00  0.00    +0.000 OA
ATOM     15  C   UNL     1       0.395   9.042  22.222  0.00  0.00    +0.000 C 
ENDBRANCH   7  14
ENDBRANCH   1   2
BRANCH   1  22
ATOM     16  C   UNL     1      -4.553  12.886  20.193  0.00  0.00    +0.000 A 
ATOM     17  C   UNL     1      -4.641  11.994  19.104  0.00  0.00    +0.000 A 
ATOM     18  C   UNL     1      -3.557  11.377  18.517  0.00  0.00    +0.000 A 
ATOM     19  N   UNL     1      -3.766  10.451  17.582  0.00  0.00    +0.000 NA
ATOM     20  C   UNL     1      -2.706   9.793  17.081  0.00  0.00    +0.000 A 
ATOM     21  C   UNL     1      -1.408   9.994  17.514  0.00  0.00    +0.000 A 
ATOM     22  C   UNL     1      -1.131  10.995  18.447  0.00  0.00    +0.000 A 
ATOM     23  C   UNL     1      -2.239  11.731  18.943  0.00  0.00    +0.000 A 
ATOM     24  C   UNL     1      -2.180  12.788  19.871  0.00  0.00    +0.000 A 
ATOM     25  C   UNL     1      -3.276  13.305  20.582  0.00  0.00    +0.000 A 
BRANCH  16  27
ATOM     26  C   UNL     1      -6.767  12.340  20.758  0.00  0.00    +0.000 C 
ATOM     27  O   UNL     1      -5.702  13.313  20.814  0.00  0.00    +0.000 OA
ENDBRANCH  16  27
BRANCH  25  28
ATOM     28  O   UNL     1      -2.810  14.055  21.610  0.00  0.00    +0.000 OA
ATOM     29  C   UNL     1      -2.956  15.456  21.684  0.00  0.00    +0.000 C 
ENDBRANCH  25  28
ENDBRANCH   1  22
BRANCH   1  30
ATOM     30  N   UNL     1       0.296  11.689  20.356  0.00  0.00    +0.000 NA
ATOM     31  H   UNL     1      -0.323  11.140  20.930  0.00  0.00    +0.000 HD
ATOM     32  H   UNL     1      -0.084  12.640  20.341  0.00  0.00    +0.000 HD
ENDBRANCH   1  30
TORSDOF 6
ENDMDL
MODEL 5
REMARK VINA RESULT:      -6.7      3.071      8.933
REMARK  Name = 
REMARK  11 active torsions:
REMARK  status: ('A' for Active; 'I' for Inactive)
REMARK    1  A    between atoms: C_1  and  O_2
REMARK    2  A    between atoms: O_2  and  C_3
REMARK    3  A    between atoms: C_9  and  C_10
REMARK    4  A    between atoms: C_10  and  N_11
REMARK    5  A    between atoms: C_10  and  C_12
REMARK    6  A    between atoms: C_17  and  O_18
REMARK    7  A    between atoms: O_18  and  C_19
REMARK    8  A    between atoms: C_22  and  C_23
REMARK    9  A    between atoms: C_22  and  C_24
REMARK   10  A    between atoms: C_28  and  O_29
REMARK   11  A    between atoms: O_29  and  C_30
REMARK                            x       y       z     vdW  Elec       q    Type
REMARK                         _______ _______ _______ _____ _____    ______ ____
ROOT
ATOM      1  C   UNL     1       1.660   7.733  19.392  0.00  0.00    +0.000 C 
ENDROOT
BRANCH   1   2
ATOM      2  C   UNL     1       1.325   9.214  19.063  0.00  0.00    +0.000 A 
ATOM      3  C   UNL     1       2.114   9.904  18.128  0.00  0.00    +0.000 A 
ATOM      4  C   UNL     1       2.055  11.283  17.992  0.00  0.00    +0.000 A 
ATOM      5  C   UNL     1       1.134  12.014  18.743  0.00  0.00    +0.000 A 
ATOM      6  C   UNL     1       0.179  11.371  19.548  0.00  0.00    +0.000 A 
ATOM      7  C   UNL     1       0.311   9.963  19.761  0.00  0.00    +0.000 A 
ATOM      8  C   UNL     1      -0.862  12.247  20.110  0.00  0.00    +0.000 C 
ATOM      9  C   UNL     1      -0.642  13.564  20.176  0.00  0.00    +0.000 C 
ATOM     10  C   UNL     1       0.620  14.188  19.660  0.00  0.00    +0.000 C 
ATOM     11  C   UNL     1       1.578  14.459  20.830  0.00  0.00    +0.000 C 
ATOM     12  C   UNL     1       0.263  15.516  18.981  0.00  0.00    +0.000 C 
ATOM     13  O   UNL     1       1.270  13.384  18.648  0.00  0.00    +0.000 OA
BRANCH   7  14
ATOM     14  O   UNL     1      -0.329   9.230  20.731  0.00  0.00    +0.000 OA
ATOM     15  C   UNL     1      -0.232   9.540  22.112  0.00  0.00    +0.000 C 
ENDBRANCH   7  14
ENDBRANCH   1   2
BRANCH   1  22
ATOM     16  C   UNL     1       3.022   2.700  18.295  0.00  0.00    +0.000 A 
ATOM     17  C   UNL     1       3.789   3.571  17.492  0.00  0.00    +0.000 A 
ATOM     18  C   UNL     1       3.667   4.944  17.502  0.00  0.00    +0.000 A 
ATOM     19  N   UNL     1       4.533   5.676  16.804  0.00  0.00    +0.000 NA
ATOM     20  C   UNL     1       4.461   7.016  16.892  0.00  0.00    +0.000 A 
ATOM     21  C   UNL     1       3.560   7.679  17.705  0.00  0.00    +0.000 A 
ATOM     22  C   UNL     1       2.594   6.959  18.410  0.00  0.00    +0.000 A 
ATOM     23  C   UNL     1       2.630   5.545  18.280  0.00  0.00    +0.000 A 
ATOM     24  C   UNL     1       1.742   4.638  18.888  0.00  0.00    +0.000 A 
ATOM     25  C   UNL     1       1.954   3.255  19.009  0.00  0.00    +0.000 A 
BRANCH  16  27
ATOM     26  C   UNL     1       4.380   1.060  19.287  0.00  0.00    +0.000 C 
ATOM     27  O   UNL     1       3.337   1.364  18.337  0.00  0.00    +0.000 OA
ENDBRANCH  16  27
BRANCH  25  28
ATOM     28  O   UNL     1       1.086   2.762  19.927  0.00  0.00    +0.000 OA
ATOM     29  C   UNL     1       1.347   2.733  21.312  0.00  0.00    +0.000 C 
ENDBRANCH  25  28
ENDBRANCH   1  22
BRANCH   1  30
ATOM     30  N   UNL     1       2.204   7.629  20.769  0.00  0.00    +0.000 NA
ATOM     31  H   UNL     1       2.597   6.712  20.906  0.00  0.00    +0.000 HD
ATOM     32  H   UNL     1       1.452   7.732  21.457  0.00  0.00    +0.000 HD
ENDBRANCH   1  30
TORSDOF 6
ENDMDL
MODEL 6
REMARK VINA RESULT:      -6.6      2.270      3.881
REMARK  Name = 
REMARK  11 active torsions:
REMARK  status: ('A' for Active; 'I' for Inactive)
REMARK    1  A    between atoms: C_1  and  O_2
REMARK    2  A    between atoms: O_2  and  C_3
REMARK    3  A    between atoms: C_9  and  C_10
REMARK    4  A    between atoms: C_10  and  N_11
REMARK    5  A    between atoms: C_10  and  C_12
REMARK    6  A    between atoms: C_17  and  O_18
REMARK    7  A    between atoms: O_18  and  C_19
REMARK    8  A    between atoms: C_22  and  C_23
REMARK    9  A    between atoms: C_22  and  C_24
REMARK   10  A    between atoms: C_28  and  O_29
REMARK   11  A    between atoms: O_29  and  C_30
REMARK                            x       y       z     vdW  Elec       q    Type
REMARK                         _______ _______ _______ _____ _____    ______ ____
ROOT
ATOM      1  C   UNL     1      -0.529  11.155  19.418  0.00  0.00    +0.000 C 
ENDROOT
BRANCH   1   2
ATOM      2  C   UNL     1       0.589  10.088  19.261  0.00  0.00    +0.000 A 
ATOM      3  C   UNL     1       1.444  10.149  18.149  0.00  0.00    +0.000 A 
ATOM      4  C   UNL     1       2.269   9.092  17.797  0.00  0.00    +0.000 A 
ATOM      5  C   UNL     1       2.321   7.956  18.605  0.00  0.00    +0.000 A 
ATOM      6  C   UNL     1       1.645   7.907  19.836  0.00  0.00    +0.000 A 
ATOM      7  C   UNL     1       0.721   8.955  20.142  0.00  0.00    +0.000 A 
ATOM      8  C   UNL     1       1.960   6.744  20.681  0.00  0.00    +0.000 C 
ATOM      9  C   UNL     1       2.504   5.658  20.121  0.00  0.00    +0.000 C 
ATOM     10  C   UNL     1       2.842   5.598  18.661  0.00  0.00    +0.000 C 
ATOM     11  C   UNL     1       1.740   4.840  17.907  0.00  0.00    +0.000 C 
ATOM     12  C   UNL     1       4.171   4.850  18.501  0.00  0.00    +0.000 C 
ATOM     13  O   UNL     1       3.048   6.907  18.080  0.00  0.00    +0.000 OA
BRANCH   7  14
ATOM     14  O   UNL     1      -0.231   8.927  21.132  0.00  0.00    +0.000 OA
ATOM     15  C   UNL     1       0.084   9.123  22.501  0.00  0.00    +0.000 C 
ENDBRANCH   7  14
ENDBRANCH   1   2
BRANCH   1  22
ATOM     16  C   UNL     1       3.050  14.867  20.762  0.00  0.00    +0.000 A 
ATOM     17  C   UNL     1       2.011  14.860  21.717  0.00  0.00    +0.000 A 
ATOM     18  C   UNL     1       0.906  14.038  21.655  0.00  0.00    +0.000 A 
ATOM     19  N   UNL     1       0.054  14.020  22.679  0.00  0.00    +0.000 NA
ATOM     20  C   UNL     1      -0.971  13.151  22.648  0.00  0.00    +0.000 A 
ATOM     21  C   UNL     1      -1.167  12.240  21.626  0.00  0.00    +0.000 A 
ATOM     22  C   UNL     1      -0.338  12.261  20.503  0.00  0.00    +0.000 A 
ATOM     23  C   UNL     1       0.716  13.212  20.504  0.00  0.00    +0.000 A 
ATOM     24  C   UNL     1       1.650  13.411  19.470  0.00  0.00    +0.000 A 
ATOM     25  C   UNL     1       2.855  14.123  19.593  0.00  0.00    +0.000 A 
BRANCH  16  27
ATOM     26  C   UNL     1       5.258  14.807  21.563  0.00  0.00    +0.000 C 
ATOM     27  O   UNL     1       4.187  15.598  21.003  0.00  0.00    +0.000 OA
ENDBRANCH  16  27
BRANCH  25  28
ATOM     28  O   UNL     1       3.644  13.825  18.531  0.00  0.00    +0.000 OA
ATOM     29  C   UNL     1       4.383  14.786  17.813  0.00  0.00    +0.000 C 
ENDBRANCH  25  28
ENDBRANCH   1  22
BRANCH   1  30
ATOM     30  N   UNL     1      -0.808  11.797  18.110  0.00  0.00    +0.000 NA
ATOM     31  H   UNL     1      -0.007  12.335  17.823  0.00  0.00    +0.000 HD
ATOM     32  H   UNL     1      -1.589  12.455  18.196  0.00  0.00    +0.000 HD
ENDBRANCH   1  30
TORSDOF 6
ENDMDL
MODEL 7
REMARK VINA RESULT:      -6.6      1.945      2.331
REMARK  Name = 
REMARK  11 active torsions:
REMARK  status: ('A' for Active; 'I' for Inactive)
REMARK    1  A    between atoms: C_1  and  O_2
REMARK    2  A    between atoms: O_2  and  C_3
REMARK    3  A    between atoms: C_9  and  C_10
REMARK    4  A    between atoms: C_10  and  N_11
REMARK    5  A    between atoms: C_10  and  C_12
REMARK    6  A    between atoms: C_17  and  O_18
REMARK    7  A    between atoms: O_18  and  C_19
REMARK    8  A    between atoms: C_22  and  C_23
REMARK    9  A    between atoms: C_22  and  C_24
REMARK   10  A    between atoms: C_28  and  O_29
REMARK   11  A    between atoms: O_29  and  C_30
REMARK                            x       y       z     vdW  Elec       q    Type
REMARK                         _______ _______ _______ _____ _____    ______ ____
ROOT
ATOM      1  C   UNL     1       0.361  10.728  18.965  0.00  0.00    +0.000 C 
ENDROOT
BRANCH   1   2
ATOM      2  C   UNL     1       1.285   9.480  18.932  0.00  0.00    +0.000 A 
ATOM      3  C   UNL     1       2.086   9.249  17.802  0.00  0.00    +0.000 A 
ATOM      4  C   UNL     1       2.714   8.032  17.582  0.00  0.00    +0.000 A 
ATOM      5  C   UNL     1       2.621   7.022  18.540  0.00  0.00    +0.000 A 
ATOM      6  C   UNL     1       2.004   7.252  19.781  0.00  0.00    +0.000 A 
ATOM      7  C   UNL     1       1.275   8.469  19.960  0.00  0.00    +0.000 A 
ATOM      8  C   UNL     1       2.168   6.176  20.773  0.00  0.00    +0.000 C 
ATOM      9  C   UNL     1       2.504   4.950  20.358  0.00  0.00    +0.000 C 
ATOM     10  C   UNL     1       2.759   4.640  18.913  0.00  0.00    +0.000 C 
ATOM     11  C   UNL     1       1.516   3.980  18.299  0.00  0.00    +0.000 C 
ATOM     12  C   UNL     1       3.942   3.667  18.827  0.00  0.00    +0.000 C 
ATOM     13  O   UNL     1       3.144   5.806  18.149  0.00  0.00    +0.000 OA
BRANCH   7  14
ATOM     14  O   UNL     1       0.378   8.732  20.966  0.00  0.00    +0.000 OA
ATOM     15  C   UNL     1       0.776   9.226  22.235  0.00  0.00    +0.000 C 
ENDBRANCH   7  14
ENDBRANCH   1   2
BRANCH   1  22
ATOM     16  C   UNL     1      -0.939  15.752  20.176  0.00  0.00    +0.000 A 
ATOM     17  C   UNL     1       0.388  15.721  19.698  0.00  0.00    +0.000 A 
ATOM     18  C   UNL     1       1.051  14.571  19.323  0.00  0.00    +0.000 A 
ATOM     19  N   UNL     1       2.254  14.672  18.760  0.00  0.00    +0.000 NA
ATOM     20  C   UNL     1       2.852  13.553  18.317  0.00  0.00    +0.000 A 
ATOM     21  C   UNL     1       2.267  12.301  18.374  0.00  0.00    +0.000 A 
ATOM     22  C   UNL     1       1.034  12.135  19.008  0.00  0.00    +0.000 A 
ATOM     23  C   UNL     1       0.420  13.305  19.526  0.00  0.00    +0.000 A 
ATOM     24  C   UNL     1      -0.808  13.358  20.213  0.00  0.00    +0.000 A 
ATOM     25  C   UNL     1      -1.553  14.525  20.453  0.00  0.00    +0.000 A 
BRANCH  16  27
ATOM     26  C   UNL     1      -0.758  18.082  19.941  0.00  0.00    +0.000 C 
ATOM     27  O   UNL     1      -1.565  16.960  20.361  0.00  0.00    +0.000 OA
ENDBRANCH  16  27
BRANCH  25  28
ATOM     28  O   UNL     1      -2.808  14.169  20.821  0.00  0.00    +0.000 OA
ATOM     29  C   UNL     1      -3.326  14.363  22.118  0.00  0.00    +0.000 C 
ENDBRANCH  25  28
ENDBRANCH   1  22
BRANCH   1  30
ATOM     30  N   UNL     1      -0.600  10.680  17.835  0.00  0.00    +0.000 NA
ATOM     31  H   UNL     1      -1.494  11.027  18.140  0.00  0.00    +0.000 HD
ATOM     32  H   UNL     1      -0.748   9.711  17.536  0.00  0.00    +0.000 HD
ENDBRANCH   1  30
TORSDOF 6
ENDMDL
MODEL 8
REMARK VINA RESULT:      -6.5      3.778      6.527
REMARK  Name = 
REMARK  11 active torsions:
REMARK  status: ('A' for Active; 'I' for Inactive)
REMARK    1  A    between atoms: C_1  and  O_2
REMARK    2  A    between atoms: O_2  and  C_3
REMARK    3  A    between atoms: C_9  and  C_10
REMARK    4  A    between atoms: C_10  and  N_11
REMARK    5  A    between atoms: C_10  and  C_12
REMARK    6  A    between atoms: C_17  and  O_18
REMARK    7  A    between atoms: O_18  and  C_19
REMARK    8  A    between atoms: C_22  and  C_23
REMARK    9  A    between atoms: C_22  and  C_24
REMARK   10  A    between atoms: C_28  and  O_29
REMARK   11  A    between atoms: O_29  and  C_30
REMARK                            x       y       z     vdW  Elec       q    Type
REMARK                         _______ _______ _______ _____ _____    ______ ____
ROOT
ATOM      1  C   UNL     1      -1.113  11.173  18.695  0.00  0.00    +0.000 C 
ENDROOT
BRANCH   1   2
ATOM      2  C   UNL     1      -0.273  12.428  19.061  0.00  0.00    +0.000 A 
ATOM      3  C   UNL     1      -0.616  13.669  18.499  0.00  0.00    +0.000 A 
ATOM      4  C   UNL     1       0.238  14.761  18.553  0.00  0.00    +0.000 A 
ATOM      5  C   UNL     1       1.442  14.663  19.249  0.00  0.00    +0.000 A 
ATOM      6  C   UNL     1       1.758  13.519  20.001  0.00  0.00    +0.000 A 
ATOM      7  C   UNL     1       0.925  12.365  19.859  0.00  0.00    +0.000 A 
ATOM      8  C   UNL     1       2.951  13.637  20.856  0.00  0.00    +0.000 C 
ATOM      9  C   UNL     1       3.852  14.589  20.591  0.00  0.00    +0.000 C 
ATOM     10  C   UNL     1       3.670  15.571  19.473  0.00  0.00    +0.000 C 
ATOM     11  C   UNL     1       4.498  15.128  18.257  0.00  0.00    +0.000 C 
ATOM     12  C   UNL     1       4.162  16.944  19.947  0.00  0.00    +0.000 C 
ATOM     13  O   UNL     1       2.282  15.749  19.104  0.00  0.00    +0.000 OA
BRANCH   7  14
ATOM     14  O   UNL     1       1.235  11.091  20.268  0.00  0.00    +0.000 OA
ATOM     15  C   UNL     1       0.802  10.560  21.511  0.00  0.00    +0.000 C 
ENDBRANCH   7  14
ENDBRANCH   1   2
BRANCH   1  22
ATOM     16  C   UNL     1      -6.164  12.252  20.004  0.00  0.00    +0.000 A 
ATOM     17  C   UNL     1      -6.082  12.048  18.611  0.00  0.00    +0.000 A 
ATOM     18  C   UNL     1      -4.911  11.778  17.934  0.00  0.00    +0.000 A 
ATOM     19  N   UNL     1      -4.969  11.471  16.639  0.00  0.00    +0.000 NA
ATOM     20  C   UNL     1      -3.832  11.122  16.010  0.00  0.00    +0.000 A 
ATOM     21  C   UNL     1      -2.608  11.022  16.646  0.00  0.00    +0.000 A 
ATOM     22  C   UNL     1      -2.486  11.392  17.987  0.00  0.00    +0.000 A 
ATOM     23  C   UNL     1      -3.672  11.813  18.645  0.00  0.00    +0.000 A 
ATOM     24  C   UNL     1      -3.767  12.242  19.982  0.00  0.00    +0.000 A 
ATOM     25  C   UNL     1      -4.961  12.363  20.711  0.00  0.00    +0.000 A 
BRANCH  16  27
ATOM     26  C   UNL     1      -7.852  11.089  21.151  0.00  0.00    +0.000 C 
ATOM     27  O   UNL     1      -7.396  12.345  20.604  0.00  0.00    +0.000 OA
ENDBRANCH  16  27
BRANCH  25  28
ATOM     28  O   UNL     1      -4.656  12.463  22.028  0.00  0.00    +0.000 OA
ATOM     29  C   UNL     1      -3.340  12.592  22.518  0.00  0.00    +0.000 C 
ENDBRANCH  25  28
ENDBRANCH   1  22
BRANCH   1  30
ATOM     30  N   UNL     1      -0.294  10.229  17.893  0.00  0.00    +0.000 NA
ATOM     31  H   UNL     1      -0.561   9.284  18.113  0.00  0.00    +0.000 HD
ATOM     32  H   UNL     1       0.696  10.320  18.141  0.00  0.00    +0.000 HD
ENDBRANCH   1  30
TORSDOF 6
ENDMDL
MODEL 9
REMARK VINA RESULT:      -6.4      1.163      1.301
REMARK  Name = 
REMARK  11 active torsions:
REMARK  status: ('A' for Active; 'I' for Inactive)
REMARK    1  A    between atoms: C_1  and  O_2
REMARK    2  A    between atoms: O_2  and  C_3
REMARK    3  A    between atoms: C_9  and  C_10
REMARK    4  A    between atoms: C_10  and  N_11
REMARK    5  A    between atoms: C_10  and  C_12
REMARK    6  A    between atoms: C_17  and  O_18
REMARK    7  A    between atoms: O_18  and  C_19
REMARK    8  A    between atoms: C_22  and  C_23
REMARK    9  A    between atoms: C_22  and  C_24
REMARK   10  A    between atoms: C_28  and  O_29
REMARK   11  A    between atoms: O_29  and  C_30
REMARK                            x       y       z     vdW  Elec       q    Type
REMARK                         _______ _______ _______ _____ _____    ______ ____
ROOT
ATOM      1  C   UNL     1      -0.108  10.830  19.406  0.00  0.00    +0.000 C 
ENDROOT
BRANCH   1   2
ATOM      2  C   UNL     1       0.920   9.673  19.276  0.00  0.00    +0.000 A 
ATOM      3  C   UNL     1       1.752   9.619  18.146  0.00  0.00    +0.000 A 
ATOM      4  C   UNL     1       2.485   8.486  17.826  0.00  0.00    +0.000 A 
ATOM      5  C   UNL     1       2.467   7.386  18.684  0.00  0.00    +0.000 A 
ATOM      6  C   UNL     1       1.817   7.444  19.928  0.00  0.00    +0.000 A 
ATOM      7  C   UNL     1       0.984   8.573  20.205  0.00  0.00    +0.000 A 
ATOM      8  C   UNL     1       2.061   6.297  20.819  0.00  0.00    +0.000 C 
ATOM      9  C   UNL     1       2.507   5.148  20.298  0.00  0.00    +0.000 C 
ATOM     10  C   UNL     1       2.806   4.999  18.836  0.00  0.00    +0.000 C 
ATOM     11  C   UNL     1       1.631   4.297  18.138  0.00  0.00    +0.000 C 
ATOM     12  C   UNL     1       4.069   4.143  18.684  0.00  0.00    +0.000 C 
ATOM     13  O   UNL     1       3.099   6.261  18.192  0.00  0.00    +0.000 OA
BRANCH   7  14
ATOM     14  O   UNL     1       0.056   8.662  21.213  0.00  0.00    +0.000 OA
ATOM     15  C   UNL     1       0.360   9.206  22.487  0.00  0.00    +0.000 C 
ENDBRANCH   7  14
ENDBRANCH   1   2
BRANCH   1  22
ATOM     16  C   UNL     1      -2.361  15.134  21.597  0.00  0.00    +0.000 A 
ATOM     17  C   UNL     1      -0.959  15.231  21.724  0.00  0.00    +0.000 A 
ATOM     18  C   UNL     1      -0.072  14.270  21.289  0.00  0.00    +0.000 A 
ATOM     19  N   UNL     1       1.235  14.525  21.337  0.00  0.00    +0.000 NA
ATOM     20  C   UNL     1       2.086  13.618  20.828  0.00  0.00    +0.000 A 
ATOM     21  C   UNL     1       1.677  12.448  20.214  0.00  0.00    +0.000 A 
ATOM     22  C   UNL     1       0.324  12.108  20.193  0.00  0.00    +0.000 A 
ATOM     23  C   UNL     1      -0.579  13.036  20.776  0.00  0.00    +0.000 A 
ATOM     24  C   UNL     1      -1.974  12.881  20.875  0.00  0.00    +0.000 A 
ATOM     25  C   UNL     1      -2.885  13.909  21.167  0.00  0.00    +0.000 A 
BRANCH  16  27
ATOM     26  C   UNL     1      -3.446  17.042  20.759  0.00  0.00    +0.000 C 
ATOM     27  O   UNL     1      -3.146  16.217  21.906  0.00  0.00    +0.000 OA
ENDBRANCH  16  27
BRANCH  25  28
ATOM     28  O   UNL     1      -4.133  13.487  20.847  0.00  0.00    +0.000 OA
ATOM     29  C   UNL     1      -4.900  12.629  21.661  0.00  0.00    +0.000 C 
ENDBRANCH  25  28
ENDBRANCH   1  22
BRANCH   1  30
ATOM     30  N   UNL     1      -0.602  11.226  18.064  0.00  0.00    +0.000 NA
ATOM     31  H   UNL     1      -0.125  10.688  17.359  0.00  0.00    +0.000 HD
ATOM     32  H   UNL     1      -0.382  12.210  17.881  0.00  0.00    +0.000 HD
ENDBRANCH   1  30
TORSDOF 6
ENDMDL
