MODEL 1
REMARK VINA RESULT:      -8.0      0.000      0.000
REMARK  Name = 
REMARK  7 active torsions:
REMARK  status: ('A' for Active; 'I' for Inactive)
REMARK    1  A    between atoms: C_2  and  C_3
REMARK    2  A    between atoms: C_2  and  O_15
REMARK    3  A    between atoms: C_3  and  C_4
REMARK    4  A    between atoms: C_7  and  O_8
REMARK    5  A    between atoms: O_15  and  C_16
REMARK    6  A    between atoms: C_16  and  C_17
REMARK    7  A    between atoms: C_17  and  C_19
REMARK                            x       y       z     vdW  Elec       q    Type
REMARK                         _______ _______ _______ _____ _____    ______ ____
ROOT
ATOM      1  O   UNL     1       1.021   4.028  19.399  0.00  0.00    +0.000 OA
ATOM      2  C   UNL     1       2.106   4.399  19.829  0.00  0.00    +0.000 C 
ENDROOT
BRANCH   2   3
ATOM      3  C   UNL     1       2.312   5.659  20.626  0.00  0.00    +0.000 C 
BRANCH   3   4
ATOM      4  C   UNL     1       2.091   6.913  19.835  0.00  0.00    +0.000 A 
ATOM      5  N   UNL     1       2.607   6.880  18.578  0.00  0.00    +0.000 NA
ATOM      6  N   UNL     1       2.519   7.964  17.771  0.00  0.00    +0.000 NA
ATOM      7  C   UNL     1       1.908   9.067  18.230  0.00  0.00    +0.000 A 
ATOM      8  C   UNL     1       1.346   9.182  19.498  0.00  0.00    +0.000 A 
ATOM      9  C   UNL     1       0.710  10.362  19.944  0.00  0.00    +0.000 A 
ATOM     10  C   UNL     1       0.170  10.443  21.224  0.00  0.00    +0.000 A 
ATOM     11  C   UNL     1       0.258   9.349  22.076  0.00  0.00    +0.000 A 
ATOM     12  C   UNL     1       0.879   8.172  21.645  0.00  0.00    +0.000 A 
ATOM     13  C   UNL     1       1.437   8.058  20.347  0.00  0.00    +0.000 A 
BRANCH   7  14
ATOM     14  O   UNL     1       1.882  10.100  17.340  0.00  0.00    +0.000 OA
ATOM     15  H   UNL     1       2.774  10.033  16.954  0.00  0.00    +0.000 HD
ENDBRANCH   7  14
ENDBRANCH   3   4
ENDBRANCH   2   3
BRANCH   2  16
ATOM     16  O   UNL     1       3.267   3.697  19.717  0.00  0.00    +0.000 OA
BRANCH  16  17
ATOM     17  C   UNL     1       3.763   3.527  18.380  0.00  0.00    +0.000 C 
BRANCH  17  18
ATOM     18  C   UNL     1       5.180   4.090  18.307  0.00  0.00    +0.000 C 
ATOM     19  O   UNL     1       5.829   4.357  19.320  0.00  0.00    +0.000 OA
BRANCH  18  20
ATOM     20  C   UNL     1       5.808   4.332  16.972  0.00  0.00    +0.000 A 
ATOM     21  C   UNL     1       7.122   4.800  16.823  0.00  0.00    +0.000 A 
ATOM     22  C   UNL     1       7.645   5.030  15.544  0.00  0.00    +0.000 A 
ATOM     23  C   UNL     1       6.861   4.788  14.420  0.00  0.00    +0.000 A 
ATOM     24  F   UNL     1       7.366   5.018  13.203  0.00  0.00    +0.000 F 
ATOM     25  C   UNL     1       5.563   4.314  14.562  0.00  0.00    +0.000 A 
ATOM     26  F   UNL     1       4.809   4.076  13.479  0.00  0.00    +0.000 F 
ATOM     27  C   UNL     1       5.034   4.082  15.827  0.00  0.00    +0.000 A 
ENDBRANCH  18  20
ENDBRANCH  17  18
ENDBRANCH  16  17
ENDBRANCH   2  16
TORSDOF 7
ENDMDL
MODEL 2
REMARK VINA RESULT:      -8.0      2.335      2.694
REMARK  Name = 
REMARK  7 active torsions:
REMARK  status: ('A' for Active; 'I' for Inactive)
REMARK    1  A    between atoms: C_2  and  C_3
REMARK    2  A    between atoms: C_2  and  O_15
REMARK    3  A    between atoms: C_3  and  C_4
REMARK    4  A    between atoms: C_7  and  O_8
REMARK    5  A    between atoms: O_15  and  C_16
REMARK    6  A    between atoms: C_16  and  C_17
REMARK    7  A    between atoms: C_17  and  C_19
REMARK                            x       y       z     vdW  Elec       q    Type
REMARK                         _______ _______ _______ _____ _____    ______ ____
ROOT
ATOM      1  O   UNL     1       1.047   3.967  20.654  0.00  0.00    +0.000 OA
ATOM      2  C   UNL     1       1.866   4.593  19.993  0.00  0.00    +0.000 C 
ENDROOT
BRANCH   2   3
ATOM      3  C   UNL     1       2.592   5.816  20.485  0.00  0.00    +0.000 C 
BRANCH   3   4
ATOM      4  C   UNL     1       2.254   7.063  19.726  0.00  0.00    +0.000 A 
ATOM      5  N   UNL     1       2.869   7.167  18.518  0.00  0.00    +0.000 NA
ATOM      6  N   UNL     1       2.689   8.266  17.748  0.00  0.00    +0.000 NA
ATOM      7  C   UNL     1       1.887   9.246  18.194  0.00  0.00    +0.000 A 
ATOM      8  C   UNL     1       1.214   9.215  19.411  0.00  0.00    +0.000 A 
ATOM      9  C   UNL     1       0.377  10.268  19.844  0.00  0.00    +0.000 A 
ATOM     10  C   UNL     1      -0.271  10.207  21.075  0.00  0.00    +0.000 A 
ATOM     11  C   UNL     1      -0.093   9.096  21.889  0.00  0.00    +0.000 A 
ATOM     12  C   UNL     1       0.727   8.043  21.469  0.00  0.00    +0.000 A 
ATOM     13  C   UNL     1       1.400   8.076  20.221  0.00  0.00    +0.000 A 
BRANCH   7  14
ATOM     14  O   UNL     1       1.781  10.307  17.344  0.00  0.00    +0.000 OA
ATOM     15  H   UNL     1       1.178   9.944  16.670  0.00  0.00    +0.000 HD
ENDBRANCH   7  14
ENDBRANCH   3   4
ENDBRANCH   2   3
BRANCH   2  16
ATOM     16  O   UNL     1       2.294   4.240  18.749  0.00  0.00    +0.000 OA
BRANCH  16  17
ATOM     17  C   UNL     1       3.557   3.560  18.697  0.00  0.00    +0.000 C 
BRANCH  17  18
ATOM     18  C   UNL     1       4.368   4.122  17.531  0.00  0.00    +0.000 C 
ATOM     19  O   UNL     1       4.115   3.833  16.361  0.00  0.00    +0.000 OA
BRANCH  18  20
ATOM     20  C   UNL     1       5.509   5.048  17.808  0.00  0.00    +0.000 A 
ATOM     21  C   UNL     1       5.917   6.042  16.906  0.00  0.00    +0.000 A 
ATOM     22  C   UNL     1       7.009   6.864  17.214  0.00  0.00    +0.000 A 
ATOM     23  C   UNL     1       7.686   6.696  18.418  0.00  0.00    +0.000 A 
ATOM     24  F   UNL     1       8.733   7.480  18.700  0.00  0.00    +0.000 F 
ATOM     25  C   UNL     1       7.279   5.721  19.319  0.00  0.00    +0.000 A 
ATOM     26  F   UNL     1       7.927   5.563  20.483  0.00  0.00    +0.000 F 
ATOM     27  C   UNL     1       6.196   4.900  19.025  0.00  0.00    +0.000 A 
ENDBRANCH  18  20
ENDBRANCH  17  18
ENDBRANCH  16  17
ENDBRANCH   2  16
TORSDOF 7
ENDMDL
MODEL 3
REMARK VINA RESULT:      -7.9      3.263      6.629
REMARK  Name = 
REMARK  7 active torsions:
REMARK  status: ('A' for Active; 'I' for Inactive)
REMARK    1  A    between atoms: C_2  and  C_3
REMARK    2  A    between atoms: C_2  and  O_15
REMARK    3  A    between atoms: C_3  and  C_4
REMARK    4  A    between atoms: C_7  and  O_8
REMARK    5  A    between atoms: O_15  and  C_16
REMARK    6  A    between atoms: C_16  and  C_17
REMARK    7  A    between atoms: C_17  and  C_19
REMARK                            x       y       z     vdW  Elec       q    Type
REMARK                         _______ _______ _______ _____ _____    ______ ____
ROOT
ATOM      1  O   UNL     1       4.783   1.933  20.492  0.00  0.00    +0.000 OA
ATOM      2  C   UNL     1       3.855   2.288  19.774  0.00  0.00    +0.000 C 
ENDROOT
BRANCH   2   3
ATOM      3  C   UNL     1       4.026   2.853  18.390  0.00  0.00    +0.000 C 
BRANCH   3   4
ATOM      4  C   UNL     1       5.143   3.847  18.280  0.00  0.00    +0.000 A 
ATOM      5  N   UNL     1       5.527   4.391  19.466  0.00  0.00    +0.000 NA
ATOM      6  N   UNL     1       6.494   5.337  19.506  0.00  0.00    +0.000 NA
ATOM      7  C   UNL     1       7.072   5.724  18.357  0.00  0.00    +0.000 A 
ATOM      8  C   UNL     1       6.745   5.213  17.105  0.00  0.00    +0.000 A 
ATOM      9  C   UNL     1       7.379   5.646  15.918  0.00  0.00    +0.000 A 
ATOM     10  C   UNL     1       7.017   5.119  14.681  0.00  0.00    +0.000 A 
ATOM     11  C   UNL     1       6.019   4.156  14.612  0.00  0.00    +0.000 A 
ATOM     12  C   UNL     1       5.388   3.713  15.780  0.00  0.00    +0.000 A 
ATOM     13  C   UNL     1       5.736   4.229  17.054  0.00  0.00    +0.000 A 
BRANCH   7  14
ATOM     14  O   UNL     1       8.027   6.685  18.511  0.00  0.00    +0.000 OA
ATOM     15  H   UNL     1       8.077   7.041  17.606  0.00  0.00    +0.000 HD
ENDBRANCH   7  14
ENDBRANCH   3   4
ENDBRANCH   2   3
BRANCH   2  16
ATOM     16  O   UNL     1       2.537   2.158  20.089  0.00  0.00    +0.000 OA
BRANCH  16  17
ATOM     17  C   UNL     1       1.692   3.247  19.687  0.00  0.00    +0.000 C 
BRANCH  17  18
ATOM     18  C   UNL     1       2.044   4.474  20.525  0.00  0.00    +0.000 C 
ATOM     19  O   UNL     1       2.328   4.389  21.720  0.00  0.00    +0.000 OA
BRANCH  18  20
ATOM     20  C   UNL     1       2.042   5.826  19.886  0.00  0.00    +0.000 A 
ATOM     21  C   UNL     1       2.390   6.033  18.543  0.00  0.00    +0.000 A 
ATOM     22  C   UNL     1       2.391   7.329  18.009  0.00  0.00    +0.000 A 
ATOM     23  C   UNL     1       2.040   8.410  18.811  0.00  0.00    +0.000 A 
ATOM     24  F   UNL     1       2.051   9.644  18.295  0.00  0.00    +0.000 F 
ATOM     25  C   UNL     1       1.683   8.208  20.138  0.00  0.00    +0.000 A 
ATOM     26  F   UNL     1       1.339   9.250  20.910  0.00  0.00    +0.000 F 
ATOM     27  C   UNL     1       1.678   6.927  20.679  0.00  0.00    +0.000 A 
ENDBRANCH  18  20
ENDBRANCH  17  18
ENDBRANCH  16  17
ENDBRANCH   2  16
TORSDOF 7
ENDMDL
MODEL 4
REMARK VINA RESULT:      -7.9      1.326      1.688
REMARK  Name = 
REMARK  7 active torsions:
REMARK  status: ('A' for Active; 'I' for Inactive)
REMARK    1  A    between atoms: C_2  and  C_3
REMARK    2  A    between atoms: C_2  and  O_15
REMARK    3  A    between atoms: C_3  and  C_4
REMARK    4  A    between atoms: C_7  and  O_8
REMARK    5  A    between atoms: O_15  and  C_16
REMARK    6  A    between atoms: C_16  and  C_17
REMARK    7  A    between atoms: C_17  and  C_19
REMARK                            x       y       z     vdW  Elec       q    Type
REMARK                         _______ _______ _______ _____ _____    ______ ____
ROOT
ATOM      1  O   UNL     1       0.499   4.559  20.386  0.00  0.00    +0.000 OA
ATOM      2  C   UNL     1       1.718   4.494  20.286  0.00  0.00    +0.000 C 
ENDROOT
BRANCH   2   3
ATOM      3  C   UNL     1       2.651   5.644  20.552  0.00  0.00    +0.000 C 
BRANCH   3   4
ATOM      4  C   UNL     1       2.320   6.880  19.770  0.00  0.00    +0.000 A 
ATOM      5  N   UNL     1       2.865   6.916  18.525  0.00  0.00    +0.000 NA
ATOM      6  N   UNL     1       2.685   7.996  17.728  0.00  0.00    +0.000 NA
ATOM      7  C   UNL     1       1.955   9.026  18.186  0.00  0.00    +0.000 A 
ATOM      8  C   UNL     1       1.356   9.065  19.441  0.00  0.00    +0.000 A 
ATOM      9  C   UNL     1       0.594  10.169  19.886  0.00  0.00    +0.000 A 
ATOM     10  C   UNL     1       0.020  10.178  21.154  0.00  0.00    +0.000 A 
ATOM     11  C   UNL     1       0.200   9.087  21.995  0.00  0.00    +0.000 A 
ATOM     12  C   UNL     1       0.947   7.984  21.565  0.00  0.00    +0.000 A 
ATOM     13  C   UNL     1       1.542   7.946  20.279  0.00  0.00    +0.000 A 
BRANCH   7  14
ATOM     14  O   UNL     1       1.843  10.062  17.306  0.00  0.00    +0.000 OA
ATOM     15  H   UNL     1       2.411  10.728  17.734  0.00  0.00    +0.000 HD
ENDBRANCH   7  14
ENDBRANCH   3   4
ENDBRANCH   2   3
BRANCH   2  16
ATOM     16  O   UNL     1       2.413   3.360  19.991  0.00  0.00    +0.000 OA
BRANCH  16  17
ATOM     17  C   UNL     1       3.182   3.401  18.779  0.00  0.00    +0.000 C 
BRANCH  17  18
ATOM     18  C   UNL     1       4.666   3.393  19.139  0.00  0.00    +0.000 C 
ATOM     19  O   UNL     1       5.143   2.570  19.922  0.00  0.00    +0.000 OA
BRANCH  18  20
ATOM     20  C   UNL     1       5.575   4.414  18.533  0.00  0.00    +0.000 A 
ATOM     21  C   UNL     1       6.436   5.215  19.298  0.00  0.00    +0.000 A 
ATOM     22  C   UNL     1       7.247   6.171  18.672  0.00  0.00    +0.000 A 
ATOM     23  C   UNL     1       7.201   6.321  17.289  0.00  0.00    +0.000 A 
ATOM     24  F   UNL     1       7.974   7.241  16.701  0.00  0.00    +0.000 F 
ATOM     25  C   UNL     1       6.359   5.522  16.527  0.00  0.00    +0.000 A 
ATOM     26  F   UNL     1       6.320   5.663  15.193  0.00  0.00    +0.000 F 
ATOM     27  C   UNL     1       5.550   4.570  17.137  0.00  0.00    +0.000 A 
ENDBRANCH  18  20
ENDBRANCH  17  18
ENDBRANCH  16  17
ENDBRANCH   2  16
TORSDOF 7
ENDMDL
MODEL 5
REMARK VINA RESULT:      -7.9      6.206      8.203
REMARK  Name = 
REMARK  7 active torsions:
REMARK  status: ('A' for Active; 'I' for Inactive)
REMARK    1  A    between atoms: C_2  and  C_3
REMARK    2  A    between atoms: C_2  and  O_15
REMARK    3  A    between atoms: C_3  and  C_4
REMARK    4  A    between atoms: C_7  and  O_8
REMARK    5  A    between atoms: O_15  and  C_16
REMARK    6  A    between atoms: C_16  and  C_17
REMARK    7  A    between atoms: C_17  and  C_19
REMARK                            x       y       z     vdW  Elec       q    Type
REMARK                         _______ _______ _______ _____ _____    ______ ____
ROOT
ATOM      1  O   UNL     1       8.150   6.241  19.280  0.00  0.00    +0.000 OA
ATOM      2  C   UNL     1       8.141   7.247  18.581  0.00  0.00    +0.000 C 
ENDROOT
BRANCH   2   3
ATOM      3  C   UNL     1       7.128   7.516  17.501  0.00  0.00    +0.000 C 
BRANCH   3   4
ATOM      4  C   UNL     1       6.751   6.299  16.713  0.00  0.00    +0.000 A 
ATOM      5  N   UNL     1       7.602   6.007  15.693  0.00  0.00    +0.000 NA
ATOM      6  N   UNL     1       7.355   4.960  14.871  0.00  0.00    +0.000 NA
ATOM      7  C   UNL     1       6.261   4.212  15.084  0.00  0.00    +0.000 A 
ATOM      8  C   UNL     1       5.346   4.435  16.107  0.00  0.00    +0.000 A 
ATOM      9  C   UNL     1       4.206   3.622  16.299  0.00  0.00    +0.000 A 
ATOM     10  C   UNL     1       3.305   3.884  17.328  0.00  0.00    +0.000 A 
ATOM     11  C   UNL     1       3.529   4.960  18.177  0.00  0.00    +0.000 A 
ATOM     12  C   UNL     1       4.658   5.769  18.004  0.00  0.00    +0.000 A 
ATOM     13  C   UNL     1       5.593   5.526  16.966  0.00  0.00    +0.000 A 
BRANCH   7  14
ATOM     14  O   UNL     1       6.106   3.189  14.195  0.00  0.00    +0.000 OA
ATOM     15  H   UNL     1       6.737   3.451  13.500  0.00  0.00    +0.000 HD
ENDBRANCH   7  14
ENDBRANCH   3   4
ENDBRANCH   2   3
BRANCH   2  16
ATOM     16  O   UNL     1       8.995   8.298  18.722  0.00  0.00    +0.000 OA
BRANCH  16  17
ATOM     17  C   UNL     1       8.470   9.579  18.341  0.00  0.00    +0.000 C 
BRANCH  17  18
ATOM     18  C   UNL     1       9.152  10.657  19.180  0.00  0.00    +0.000 C 
ATOM     19  O   UNL     1       9.138  10.632  20.412  0.00  0.00    +0.000 OA
BRANCH  18  20
ATOM     20  C   UNL     1       9.857  11.785  18.497  0.00  0.00    +0.000 A 
ATOM     21  C   UNL     1      11.160  11.672  17.989  0.00  0.00    +0.000 A 
ATOM     22  C   UNL     1      11.774  12.774  17.379  0.00  0.00    +0.000 A 
ATOM     23  C   UNL     1      11.088  13.979  17.273  0.00  0.00    +0.000 A 
ATOM     24  F   UNL     1      11.686  15.028  16.696  0.00  0.00    +0.000 F 
ATOM     25  C   UNL     1       9.794  14.093  17.763  0.00  0.00    +0.000 A 
ATOM     26  F   UNL     1       9.130  15.254  17.654  0.00  0.00    +0.000 F 
ATOM     27  C   UNL     1       9.174  13.006  18.370  0.00  0.00    +0.000 A 
ENDBRANCH  18  20
ENDBRANCH  17  18
ENDBRANCH  16  17
ENDBRANCH   2  16
TORSDOF 7
ENDMDL
MODEL 6
REMARK VINA RESULT:      -7.7      2.753      4.808
REMARK  Name = 
REMARK  7 active torsions:
REMARK  status: ('A' for Active; 'I' for Inactive)
REMARK    1  A    between atoms: C_2  and  C_3
REMARK    2  A    between atoms: C_2  and  O_15
REMARK    3  A    between atoms: C_3  and  C_4
REMARK    4  A    between atoms: C_7  and  O_8
REMARK    5  A    between atoms: O_15  and  C_16
REMARK    6  A    between atoms: C_16  and  C_17
REMARK    7  A    between atoms: C_17  and  C_19
REMARK                            x       y       z     vdW  Elec       q    Type
REMARK                         _______ _______ _______ _____ _____    ______ ____
ROOT
ATOM      1  O   UNL     1       4.566   7.019  16.158  0.00  0.00    +0.000 OA
ATOM      2  C   UNL     1       4.317   6.741  17.324  0.00  0.00    +0.000 C 
ENDROOT
BRANCH   2   3
ATOM      3  C   UNL     1       2.956   6.877  17.953  0.00  0.00    +0.000 C 
BRANCH   3   4
ATOM      4  C   UNL     1       2.652   5.813  18.964  0.00  0.00    +0.000 A 
ATOM      5  N   UNL     1       2.490   6.276  20.232  0.00  0.00    +0.000 NA
ATOM      6  N   UNL     1       2.258   5.417  21.253  0.00  0.00    +0.000 NA
ATOM      7  C   UNL     1       2.184   4.102  20.990  0.00  0.00    +0.000 A 
ATOM      8  C   UNL     1       2.329   3.547  19.723  0.00  0.00    +0.000 A 
ATOM      9  C   UNL     1       2.242   2.156  19.488  0.00  0.00    +0.000 A 
ATOM     10  C   UNL     1       2.405   1.636  18.207  0.00  0.00    +0.000 A 
ATOM     11  C   UNL     1       2.656   2.495  17.145  0.00  0.00    +0.000 A 
ATOM     12  C   UNL     1       2.737   3.875  17.362  0.00  0.00    +0.000 A 
ATOM     13  C   UNL     1       2.575   4.435  18.655  0.00  0.00    +0.000 A 
BRANCH   7  14
ATOM     14  O   UNL     1       1.953   3.328  22.089  0.00  0.00    +0.000 OA
ATOM     15  H   UNL     1       0.982   3.258  22.065  0.00  0.00    +0.000 HD
ENDBRANCH   7  14
ENDBRANCH   3   4
ENDBRANCH   2   3
BRANCH   2  16
ATOM     16  O   UNL     1       5.208   6.203  18.202  0.00  0.00    +0.000 OA
BRANCH  16  17
ATOM     17  C   UNL     1       6.593   6.407  17.884  0.00  0.00    +0.000 C 
BRANCH  17  18
ATOM     18  C   UNL     1       7.166   5.103  17.334  0.00  0.00    +0.000 C 
ATOM     19  O   UNL     1       7.885   4.368  18.014  0.00  0.00    +0.000 OA
BRANCH  18  20
ATOM     20  C   UNL     1       6.857   4.698  15.928  0.00  0.00    +0.000 A 
ATOM     21  C   UNL     1       5.864   3.761  15.607  0.00  0.00    +0.000 A 
ATOM     22  C   UNL     1       5.638   3.407  14.271  0.00  0.00    +0.000 A 
ATOM     23  C   UNL     1       6.397   3.990  13.261  0.00  0.00    +0.000 A 
ATOM     24  F   UNL     1       6.179   3.640  11.988  0.00  0.00    +0.000 F 
ATOM     25  C   UNL     1       7.373   4.927  13.572  0.00  0.00    +0.000 A 
ATOM     26  F   UNL     1       8.100   5.494  12.598  0.00  0.00    +0.000 F 
ATOM     27  C   UNL     1       7.606   5.287  14.895  0.00  0.00    +0.000 A 
ENDBRANCH  18  20
ENDBRANCH  17  18
ENDBRANCH  16  17
ENDBRANCH   2  16
TORSDOF 7
ENDMDL
MODEL 7
REMARK VINA RESULT:      -7.7      3.660      7.306
REMARK  Name = 
REMARK  7 active torsions:
REMARK  status: ('A' for Active; 'I' for Inactive)
REMARK    1  A    between atoms: C_2  and  C_3
REMARK    2  A    between atoms: C_2  and  O_15
REMARK    3  A    between atoms: C_3  and  C_4
REMARK    4  A    between atoms: C_7  and  O_8
REMARK    5  A    between atoms: O_15  and  C_16
REMARK    6  A    between atoms: C_16  and  C_17
REMARK    7  A    between atoms: C_17  and  C_19
REMARK                            x       y       z     vdW  Elec       q    Type
REMARK                         _______ _______ _______ _____ _____    ______ ____
ROOT
ATOM      1  O   UNL     1       1.439   2.628  19.287  0.00  0.00    +0.000 OA
ATOM      2  C   UNL     1       1.995   3.343  18.463  0.00  0.00    +0.000 C 
ENDROOT
BRANCH   2   3
ATOM      3  C   UNL     1       3.038   2.860  17.492  0.00  0.00    +0.000 C 
BRANCH   3   4
ATOM      4  C   UNL     1       4.388   3.475  17.704  0.00  0.00    +0.000 A 
ATOM      5  N   UNL     1       4.749   3.597  19.009  0.00  0.00    +0.000 NA
ATOM      6  N   UNL     1       5.924   4.179  19.346  0.00  0.00    +0.000 NA
ATOM      7  C   UNL     1       6.729   4.627  18.370  0.00  0.00    +0.000 A 
ATOM      8  C   UNL     1       6.441   4.535  17.012  0.00  0.00    +0.000 A 
ATOM      9  C   UNL     1       7.316   5.019  16.014  0.00  0.00    +0.000 A 
ATOM     10  C   UNL     1       6.988   4.919  14.665  0.00  0.00    +0.000 A 
ATOM     11  C   UNL     1       5.783   4.337  14.294  0.00  0.00    +0.000 A 
ATOM     12  C   UNL     1       4.909   3.848  15.271  0.00  0.00    +0.000 A 
ATOM     13  C   UNL     1       5.216   3.933  16.653  0.00  0.00    +0.000 A 
BRANCH   7  14
ATOM     14  O   UNL     1       7.881   5.201  18.820  0.00  0.00    +0.000 OA
ATOM     15  H   UNL     1       8.523   4.860  18.170  0.00  0.00    +0.000 HD
ENDBRANCH   7  14
ENDBRANCH   3   4
ENDBRANCH   2   3
BRANCH   2  16
ATOM     16  O   UNL     1       1.705   4.657  18.253  0.00  0.00    +0.000 OA
BRANCH  16  17
ATOM     17  C   UNL     1       2.040   5.546  19.330  0.00  0.00    +0.000 C 
BRANCH  17  18
ATOM     18  C   UNL     1       2.648   6.818  18.743  0.00  0.00    +0.000 C 
ATOM     19  O   UNL     1       3.670   6.795  18.055  0.00  0.00    +0.000 OA
BRANCH  18  20
ATOM     20  C   UNL     1       1.996   8.136  19.009  0.00  0.00    +0.000 A 
ATOM     21  C   UNL     1       1.923   9.157  18.049  0.00  0.00    +0.000 A 
ATOM     22  C   UNL     1       1.318  10.380  18.368  0.00  0.00    +0.000 A 
ATOM     23  C   UNL     1       0.784  10.579  19.638  0.00  0.00    +0.000 A 
ATOM     24  F   UNL     1       0.214  11.752  19.936  0.00  0.00    +0.000 F 
ATOM     25  C   UNL     1       0.842   9.567  20.588  0.00  0.00    +0.000 A 
ATOM     26  F   UNL     1       0.322   9.757  21.809  0.00  0.00    +0.000 F 
ATOM     27  C   UNL     1       1.440   8.350  20.282  0.00  0.00    +0.000 A 
ENDBRANCH  18  20
ENDBRANCH  17  18
ENDBRANCH  16  17
ENDBRANCH   2  16
TORSDOF 7
ENDMDL
MODEL 8
REMARK VINA RESULT:      -7.7      3.988      8.313
REMARK  Name = 
REMARK  7 active torsions:
REMARK  status: ('A' for Active; 'I' for Inactive)
REMARK    1  A    between atoms: C_2  and  C_3
REMARK    2  A    between atoms: C_2  and  O_15
REMARK    3  A    between atoms: C_3  and  C_4
REMARK    4  A    between atoms: C_7  and  O_8
REMARK    5  A    between atoms: O_15  and  C_16
REMARK    6  A    between atoms: C_16  and  C_17
REMARK    7  A    between atoms: C_17  and  C_19
REMARK                            x       y       z     vdW  Elec       q    Type
REMARK                         _______ _______ _______ _____ _____    ______ ____
ROOT
ATOM      1  O   UNL     1       1.440   4.754  20.088  0.00  0.00    +0.000 OA
ATOM      2  C   UNL     1       2.079   5.173  19.130  0.00  0.00    +0.000 C 
ENDROOT
BRANCH   2   3
ATOM      3  C   UNL     1       2.840   4.296  18.173  0.00  0.00    +0.000 C 
BRANCH   3   4
ATOM      4  C   UNL     1       4.325   4.491  18.230  0.00  0.00    +0.000 A 
ATOM      5  N   UNL     1       4.816   4.684  19.483  0.00  0.00    +0.000 NA
ATOM      6  N   UNL     1       6.135   4.919  19.675  0.00  0.00    +0.000 NA
ATOM      7  C   UNL     1       6.950   4.953  18.609  0.00  0.00    +0.000 A 
ATOM      8  C   UNL     1       6.532   4.758  17.296  0.00  0.00    +0.000 A 
ATOM      9  C   UNL     1       7.423   4.800  16.200  0.00  0.00    +0.000 A 
ATOM     10  C   UNL     1       6.965   4.612  14.899  0.00  0.00    +0.000 A 
ATOM     11  C   UNL     1       5.614   4.381  14.674  0.00  0.00    +0.000 A 
ATOM     12  C   UNL     1       4.722   4.329  15.751  0.00  0.00    +0.000 A 
ATOM     13  C   UNL     1       5.158   4.516  17.087  0.00  0.00    +0.000 A 
BRANCH   7  14
ATOM     14  O   UNL     1       8.255   5.204  18.914  0.00  0.00    +0.000 OA
ATOM     15  H   UNL     1       8.704   4.521  18.383  0.00  0.00    +0.000 HD
ENDBRANCH   7  14
ENDBRANCH   3   4
ENDBRANCH   2   3
BRANCH   2  16
ATOM     16  O   UNL     1       2.136   6.478  18.747  0.00  0.00    +0.000 OA
BRANCH  16  17
ATOM     17  C   UNL     1       2.207   7.436  19.814  0.00  0.00    +0.000 C 
BRANCH  17  18
ATOM     18  C   UNL     1       1.436   8.688  19.401  0.00  0.00    +0.000 C 
ATOM     19  O   UNL     1       1.429   9.096  18.238  0.00  0.00    +0.000 OA
BRANCH  18  20
ATOM     20  C   UNL     1       0.668   9.452  20.431  0.00  0.00    +0.000 A 
ATOM     21  C   UNL     1      -0.093  10.590  20.124  0.00  0.00    +0.000 A 
ATOM     22  C   UNL     1      -0.773  11.276  21.139  0.00  0.00    +0.000 A 
ATOM     23  C   UNL     1      -0.695  10.824  22.453  0.00  0.00    +0.000 A 
ATOM     24  F   UNL     1      -1.341  11.490  23.418  0.00  0.00    +0.000 F 
ATOM     25  C   UNL     1       0.047   9.692  22.761  0.00  0.00    +0.000 A 
ATOM     26  F   UNL     1       0.117   9.253  24.027  0.00  0.00    +0.000 F 
ATOM     27  C   UNL     1       0.725   9.002  21.761  0.00  0.00    +0.000 A 
ENDBRANCH  18  20
ENDBRANCH  17  18
ENDBRANCH  16  17
ENDBRANCH   2  16
TORSDOF 7
ENDMDL
MODEL 9
REMARK VINA RESULT:      -7.7      3.716      5.489
REMARK  Name = 
REMARK  7 active torsions:
REMARK  status: ('A' for Active; 'I' for Inactive)
REMARK    1  A    between atoms: C_2  and  C_3
REMARK    2  A    between atoms: C_2  and  O_15
REMARK    3  A    between atoms: C_3  and  C_4
REMARK    4  A    between atoms: C_7  and  O_8
REMARK    5  A    between atoms: O_15  and  C_16
REMARK    6  A    between atoms: C_16  and  C_17
REMARK    7  A    between atoms: C_17  and  C_19
REMARK                            x       y       z     vdW  Elec       q    Type
REMARK                         _______ _______ _______ _____ _____    ______ ____
ROOT
ATOM      1  O   UNL     1       2.322  11.067  17.773  0.00  0.00    +0.000 OA
ATOM      2  C   UNL     1       1.987   9.945  18.132  0.00  0.00    +0.000 C 
ENDROOT
BRANCH   2   3
ATOM      3  C   UNL     1       0.606   9.589  18.612  0.00  0.00    +0.000 C 
BRANCH   3   4
ATOM      4  C   UNL     1       0.437   9.703  20.097  0.00  0.00    +0.000 A 
ATOM      5  N   UNL     1       1.185   8.823  20.814  0.00  0.00    +0.000 NA
ATOM      6  N   UNL     1       1.095   8.785  22.164  0.00  0.00    +0.000 NA
ATOM      7  C   UNL     1       0.259   9.635  22.782  0.00  0.00    +0.000 A 
ATOM      8  C   UNL     1      -0.534  10.571  22.126  0.00  0.00    +0.000 A 
ATOM      9  C   UNL     1      -1.402  11.449  22.814  0.00  0.00    +0.000 A 
ATOM     10  C   UNL     1      -2.190  12.364  22.122  0.00  0.00    +0.000 A 
ATOM     11  C   UNL     1      -2.124  12.414  20.735  0.00  0.00    +0.000 A 
ATOM     12  C   UNL     1      -1.264  11.555  20.041  0.00  0.00    +0.000 A 
ATOM     13  C   UNL     1      -0.449  10.614  20.718  0.00  0.00    +0.000 A 
BRANCH   7  14
ATOM     14  O   UNL     1       0.241   9.508  24.140  0.00  0.00    +0.000 OA
ATOM     15  H   UNL     1       0.933  10.144  24.394  0.00  0.00    +0.000 HD
ENDBRANCH   7  14
ENDBRANCH   3   4
ENDBRANCH   2   3
BRANCH   2  16
ATOM     16  O   UNL     1       2.786   8.844  18.084  0.00  0.00    +0.000 OA
BRANCH  16  17
ATOM     17  C   UNL     1       2.182   7.663  17.533  0.00  0.00    +0.000 C 
BRANCH  17  18
ATOM     18  C   UNL     1       3.016   6.451  17.941  0.00  0.00    +0.000 C 
ATOM     19  O   UNL     1       4.152   6.263  17.503  0.00  0.00    +0.000 OA
BRANCH  18  20
ATOM     20  C   UNL     1       2.445   5.453  18.896  0.00  0.00    +0.000 A 
ATOM     21  C   UNL     1       2.646   5.525  20.283  0.00  0.00    +0.000 A 
ATOM     22  C   UNL     1       2.102   4.545  21.124  0.00  0.00    +0.000 A 
ATOM     23  C   UNL     1       1.358   3.502  20.582  0.00  0.00    +0.000 A 
ATOM     24  F   UNL     1       0.849   2.566  21.392  0.00  0.00    +0.000 F 
ATOM     25  C   UNL     1       1.146   3.432  19.212  0.00  0.00    +0.000 A 
ATOM     26  F   UNL     1       0.423   2.430  18.691  0.00  0.00    +0.000 F 
ATOM     27  C   UNL     1       1.680   4.399  18.368  0.00  0.00    +0.000 A 
ENDBRANCH  18  20
ENDBRANCH  17  18
ENDBRANCH  16  17
ENDBRANCH   2  16
TORSDOF 7
ENDMDL
