MODEL 1
REMARK VINA RESULT:      -8.0      0.000      0.000
REMARK  Name = 
REMARK  5 active torsions:
REMARK  status: ('A' for Active; 'I' for Inactive)
REMARK    1  A    between atoms: C_1  and  N_2
REMARK    2  A    between atoms: N_2  and  C_3
REMARK    3  A    between atoms: C_4  and  C_6
REMARK    4  A    between atoms: C_10  and  C_11
REMARK    5  A    between atoms: C_18  and  C_19
REMARK                            x       y       z     vdW  Elec       q    Type
REMARK                         _______ _______ _______ _____ _____    ______ ____
ROOT
ATOM      1  C   UNL     1       1.009   9.336  20.072  0.00  0.00    +0.000 A 
ATOM      2  C   UNL     1       1.142   9.844  18.796  0.00  0.00    +0.000 A 
ATOM      3  S   UNL     1       2.078   8.792  17.845  0.00  0.00    +0.000 S 
ATOM      4  C   UNL     1       2.219   7.693  19.183  0.00  0.00    +0.000 A 
ATOM      5  N   UNL     1       2.881   6.510  19.078  0.00  0.00    +0.000 N 
ATOM      6  C   UNL     1       4.005   6.314  18.172  0.00  0.00    +0.000 C 
ATOM      7  C   UNL     1       3.762   5.023  17.390  0.00  0.00    +0.000 C 
ATOM      8  C   UNL     1       3.551   3.831  18.337  0.00  0.00    +0.000 C 
ATOM      9  C   UNL     1       2.458   4.149  19.373  0.00  0.00    +0.000 C 
ATOM     10  C   UNL     1       2.704   5.480  20.090  0.00  0.00    +0.000 C 
ATOM     11  N   UNL     1       1.569   8.087  20.261  0.00  0.00    +0.000 NA
ENDROOT
BRANCH   1  16
ATOM     12  C   UNL     1      -0.736  12.104  21.908  0.00  0.00    +0.000 A 
ATOM     13  C   UNL     1      -1.182  11.435  23.053  0.00  0.00    +0.000 A 
ATOM     14  C   UNL     1      -0.879  10.082  23.240  0.00  0.00    +0.000 A 
ATOM     15  C   UNL     1      -0.153   9.386  22.270  0.00  0.00    +0.000 A 
ATOM     16  C   UNL     1       0.304  10.048  21.126  0.00  0.00    +0.000 A 
ATOM     17  C   UNL     1       0.059  11.422  20.990  0.00  0.00    +0.000 A 
BRANCH  12  21
ATOM     18  C   UNL     1      -2.349  15.386  20.821  0.00  0.00    +0.000 C 
ATOM     19  N   UNL     1      -2.155  13.953  20.963  0.00  0.00    +0.000 N 
ATOM     20  C   UNL     1      -3.237  13.093  20.502  0.00  0.00    +0.000 C 
ATOM     21  C   UNL     1      -1.057  13.547  21.738  0.00  0.00    +0.000 C 
ATOM     22  O   UNL     1      -0.328  14.358  22.308  0.00  0.00    +0.000 OA
ENDBRANCH  12  21
ENDBRANCH   1  16
BRANCH   8  23
ATOM     23  C   UNL     1       4.872   3.426  18.982  0.00  0.00    +0.000 C 
ATOM     24  N   UNL     1       4.844   2.305  19.757  0.00  0.00    +0.000 N 
ATOM     25  O   UNL     1       5.937   4.001  18.795  0.00  0.00    +0.000 OA
ATOM     26  H   UNL     1       4.032   1.718  19.869  0.00  0.00    +0.000 HD
ATOM     27  H   UNL     1       5.728   1.986  20.138  0.00  0.00    +0.000 HD
ENDBRANCH   8  23
TORSDOF 3
ENDMDL
MODEL 2
REMARK VINA RESULT:      -8.0      0.830      1.110
REMARK  Name = 
REMARK  5 active torsions:
REMARK  status: ('A' for Active; 'I' for Inactive)
REMARK    1  A    between atoms: C_1  and  N_2
REMARK    2  A    between atoms: N_2  and  C_3
REMARK    3  A    between atoms: C_4  and  C_6
REMARK    4  A    between atoms: C_10  and  C_11
REMARK    5  A    between atoms: C_18  and  C_19
REMARK                            x       y       z     vdW  Elec       q    Type
REMARK                         _______ _______ _______ _____ _____    ______ ____
ROOT
ATOM      1  C   UNL     1       0.945   9.292  20.024  0.00  0.00    +0.000 A 
ATOM      2  C   UNL     1       1.132   9.801  18.755  0.00  0.00    +0.000 A 
ATOM      3  S   UNL     1       2.105   8.748  17.843  0.00  0.00    +0.000 S 
ATOM      4  C   UNL     1       2.188   7.648  19.185  0.00  0.00    +0.000 A 
ATOM      5  N   UNL     1       2.852   6.464  19.107  0.00  0.00    +0.000 N 
ATOM      6  C   UNL     1       4.013   6.267  18.249  0.00  0.00    +0.000 C 
ATOM      7  C   UNL     1       3.800   4.976  17.457  0.00  0.00    +0.000 C 
ATOM      8  C   UNL     1       3.548   3.784  18.394  0.00  0.00    +0.000 C 
ATOM      9  C   UNL     1       2.414   4.104  19.384  0.00  0.00    +0.000 C 
ATOM     10  C   UNL     1       2.631   5.434  20.111  0.00  0.00    +0.000 C 
ATOM     11  N   UNL     1       1.495   8.043  20.236  0.00  0.00    +0.000 NA
ENDROOT
BRANCH   1  16
ATOM     12  C   UNL     1      -1.201  11.900  21.660  0.00  0.00    +0.000 A 
ATOM     13  C   UNL     1      -1.378  11.349  22.934  0.00  0.00    +0.000 A 
ATOM     14  C   UNL     1      -0.763  10.139  23.269  0.00  0.00    +0.000 A 
ATOM     15  C   UNL     1       0.009   9.460  22.322  0.00  0.00    +0.000 A 
ATOM     16  C   UNL     1       0.198  10.005  21.049  0.00  0.00    +0.000 A 
ATOM     17  C   UNL     1      -0.361  11.257  20.753  0.00  0.00    +0.000 A 
BRANCH  12  21
ATOM     18  C   UNL     1      -2.026  15.617  21.412  0.00  0.00    +0.000 C 
ATOM     19  N   UNL     1      -1.283  14.412  21.741  0.00  0.00    +0.000 N 
ATOM     20  C   UNL     1       0.076  14.592  22.237  0.00  0.00    +0.000 C 
ATOM     21  C   UNL     1      -1.853  13.196  21.331  0.00  0.00    +0.000 C 
ATOM     22  O   UNL     1      -2.899  13.154  20.685  0.00  0.00    +0.000 OA
ENDBRANCH  12  21
ENDBRANCH   1  16
BRANCH   8  23
ATOM     23  C   UNL     1       4.841   3.377  19.093  0.00  0.00    +0.000 C 
ATOM     24  N   UNL     1       4.824   2.173  19.733  0.00  0.00    +0.000 N 
ATOM     25  O   UNL     1       5.879   4.025  19.057  0.00  0.00    +0.000 OA
ATOM     26  H   UNL     1       4.044   1.535  19.713  0.00  0.00    +0.000 HD
ATOM     27  H   UNL     1       5.696   1.858  20.145  0.00  0.00    +0.000 HD
ENDBRANCH   8  23
TORSDOF 3
ENDMDL
MODEL 3
REMARK VINA RESULT:      -7.9      1.154      1.201
REMARK  Name = 
REMARK  5 active torsions:
REMARK  status: ('A' for Active; 'I' for Inactive)
REMARK    1  A    between atoms: C_1  and  N_2
REMARK    2  A    between atoms: N_2  and  C_3
REMARK    3  A    between atoms: C_4  and  C_6
REMARK    4  A    between atoms: C_10  and  C_11
REMARK    5  A    between atoms: C_18  and  C_19
REMARK                            x       y       z     vdW  Elec       q    Type
REMARK                         _______ _______ _______ _____ _____    ______ ____
ROOT
ATOM      1  C   UNL     1       1.070   9.023  20.391  0.00  0.00    +0.000 A 
ATOM      2  C   UNL     1       1.451   9.386  19.116  0.00  0.00    +0.000 A 
ATOM      3  S   UNL     1       2.282   8.107  18.368  0.00  0.00    +0.000 S 
ATOM      4  C   UNL     1       2.051   7.121  19.780  0.00  0.00    +0.000 A 
ATOM      5  N   UNL     1       2.488   5.835  19.840  0.00  0.00    +0.000 N 
ATOM      6  C   UNL     1       3.657   5.364  19.109  0.00  0.00    +0.000 C 
ATOM      7  C   UNL     1       3.273   4.074  18.385  0.00  0.00    +0.000 C 
ATOM      8  C   UNL     1       2.729   3.025  19.368  0.00  0.00    +0.000 C 
ATOM      9  C   UNL     1       1.598   3.621  20.224  0.00  0.00    +0.000 C 
ATOM     10  C   UNL     1       1.999   4.944  20.882  0.00  0.00    +0.000 C 
ATOM     11  N   UNL     1       1.360   7.716  20.733  0.00  0.00    +0.000 NA
ENDROOT
BRANCH   1  16
ATOM     12  C   UNL     1      -0.342  12.205  21.792  0.00  0.00    +0.000 A 
ATOM     13  C   UNL     1      -1.036  11.727  22.910  0.00  0.00    +0.000 A 
ATOM     14  C   UNL     1      -1.010  10.365  23.225  0.00  0.00    +0.000 A 
ATOM     15  C   UNL     1      -0.315   9.470  22.408  0.00  0.00    +0.000 A 
ATOM     16  C   UNL     1       0.388   9.937  21.293  0.00  0.00    +0.000 A 
ATOM     17  C   UNL     1       0.417  11.315  21.035  0.00  0.00    +0.000 A 
BRANCH  12  21
ATOM     18  C   UNL     1      -1.336  15.642  20.468  0.00  0.00    +0.000 C 
ATOM     19  N   UNL     1      -1.431  14.221  20.756  0.00  0.00    +0.000 N 
ATOM     20  C   UNL     1      -2.709  13.577  20.478  0.00  0.00    +0.000 C 
ATOM     21  C   UNL     1      -0.371  13.660  21.486  0.00  0.00    +0.000 C 
ATOM     22  O   UNL     1       0.564  14.343  21.904  0.00  0.00    +0.000 OA
ENDBRANCH  12  21
ENDBRANCH   1  16
BRANCH   8  23
ATOM     23  C   UNL     1       3.863   2.449  20.210  0.00  0.00    +0.000 C 
ATOM     24  N   UNL     1       5.056   2.278  19.574  0.00  0.00    +0.000 N 
ATOM     25  O   UNL     1       3.777   2.201  21.406  0.00  0.00    +0.000 OA
ATOM     26  H   UNL     1       5.234   2.562  18.624  0.00  0.00    +0.000 HD
ATOM     27  H   UNL     1       5.837   1.960  20.138  0.00  0.00    +0.000 HD
ENDBRANCH   8  23
TORSDOF 3
ENDMDL
MODEL 4
REMARK VINA RESULT:      -7.9      1.415      1.667
REMARK  Name = 
REMARK  5 active torsions:
REMARK  status: ('A' for Active; 'I' for Inactive)
REMARK    1  A    between atoms: C_1  and  N_2
REMARK    2  A    between atoms: N_2  and  C_3
REMARK    3  A    between atoms: C_4  and  C_6
REMARK    4  A    between atoms: C_10  and  C_11
REMARK    5  A    between atoms: C_18  and  C_19
REMARK                            x       y       z     vdW  Elec       q    Type
REMARK                         _______ _______ _______ _____ _____    ______ ____
ROOT
ATOM      1  C   UNL     1       1.028   8.966  20.319  0.00  0.00    +0.000 A 
ATOM      2  C   UNL     1       1.476   9.331  19.067  0.00  0.00    +0.000 A 
ATOM      3  S   UNL     1       2.353   8.056  18.366  0.00  0.00    +0.000 S 
ATOM      4  C   UNL     1       2.049   7.068  19.763  0.00  0.00    +0.000 A 
ATOM      5  N   UNL     1       2.488   5.784  19.847  0.00  0.00    +0.000 N 
ATOM      6  C   UNL     1       3.698   5.320  19.182  0.00  0.00    +0.000 C 
ATOM      7  C   UNL     1       3.361   4.028  18.437  0.00  0.00    +0.000 C 
ATOM      8  C   UNL     1       2.769   2.976  19.389  0.00  0.00    +0.000 C 
ATOM      9  C   UNL     1       1.588   3.566  20.181  0.00  0.00    +0.000 C 
ATOM     10  C   UNL     1       1.946   4.892  20.861  0.00  0.00    +0.000 C 
ATOM     11  N   UNL     1       1.304   7.660  20.676  0.00  0.00    +0.000 NA
ENDROOT
BRANCH   1  16
ATOM     12  C   UNL     1      -0.840  12.012  21.464  0.00  0.00    +0.000 A 
ATOM     13  C   UNL     1      -1.253  11.616  22.741  0.00  0.00    +0.000 A 
ATOM     14  C   UNL     1      -0.888  10.363  23.241  0.00  0.00    +0.000 A 
ATOM     15  C   UNL     1      -0.132   9.488  22.456  0.00  0.00    +0.000 A 
ATOM     16  C   UNL     1       0.292   9.877  21.182  0.00  0.00    +0.000 A 
ATOM     17  C   UNL     1      -0.016  11.166  20.725  0.00  0.00    +0.000 A 
BRANCH  12  21
ATOM     18  C   UNL     1      -0.951  15.761  20.764  0.00  0.00    +0.000 C 
ATOM     19  N   UNL     1      -0.456  14.490  21.263  0.00  0.00    +0.000 N 
ATOM     20  C   UNL     1       0.894  14.478  21.813  0.00  0.00    +0.000 C 
ATOM     21  C   UNL     1      -1.228  13.357  20.959  0.00  0.00    +0.000 C 
ATOM     22  O   UNL     1      -2.240  13.428  20.264  0.00  0.00    +0.000 OA
ENDBRANCH  12  21
ENDBRANCH   1  16
BRANCH   8  23
ATOM     23  C   UNL     1       3.857   2.406  20.292  0.00  0.00    +0.000 C 
ATOM     24  N   UNL     1       5.072   2.198  19.712  0.00  0.00    +0.000 N 
ATOM     25  O   UNL     1       3.717   2.190  21.490  0.00  0.00    +0.000 OA
ATOM     26  H   UNL     1       5.294   2.453  18.762  0.00  0.00    +0.000 HD
ATOM     27  H   UNL     1       5.824   1.883  20.316  0.00  0.00    +0.000 HD
ENDBRANCH   8  23
TORSDOF 3
ENDMDL
MODEL 5
REMARK VINA RESULT:      -7.6      2.958      3.845
REMARK  Name = 
REMARK  5 active torsions:
REMARK  status: ('A' for Active; 'I' for Inactive)
REMARK    1  A    between atoms: C_1  and  N_2
REMARK    2  A    between atoms: N_2  and  C_3
REMARK    3  A    between atoms: C_4  and  C_6
REMARK    4  A    between atoms: C_10  and  C_11
REMARK    5  A    between atoms: C_18  and  C_19
REMARK                            x       y       z     vdW  Elec       q    Type
REMARK                         _______ _______ _______ _____ _____    ______ ____
ROOT
ATOM      1  C   UNL     1       2.184   6.927  19.883  0.00  0.00    +0.000 A 
ATOM      2  C   UNL     1       1.945   5.664  20.385  0.00  0.00    +0.000 A 
ATOM      3  S   UNL     1       2.814   4.508  19.494  0.00  0.00    +0.000 S 
ATOM      4  C   UNL     1       3.495   5.767  18.509  0.00  0.00    +0.000 A 
ATOM      5  N   UNL     1       4.393   5.505  17.522  0.00  0.00    +0.000 N 
ATOM      6  C   UNL     1       4.402   4.252  16.778  0.00  0.00    +0.000 C 
ATOM      7  C   UNL     1       5.838   3.727  16.756  0.00  0.00    +0.000 C 
ATOM      8  C   UNL     1       6.803   4.770  16.169  0.00  0.00    +0.000 C 
ATOM      9  C   UNL     1       6.642   6.121  16.889  0.00  0.00    +0.000 C 
ATOM     10  C   UNL     1       5.183   6.583  16.946  0.00  0.00    +0.000 C 
ATOM     11  N   UNL     1       3.113   6.979  18.861  0.00  0.00    +0.000 NA
ENDROOT
BRANCH   1  16
ATOM     12  C   UNL     1       0.422  10.238  19.988  0.00  0.00    +0.000 A 
ATOM     13  C   UNL     1       0.135  10.352  21.354  0.00  0.00    +0.000 A 
ATOM     14  C   UNL     1       0.552   9.359  22.245  0.00  0.00    +0.000 A 
ATOM     15  C   UNL     1       1.233   8.234  21.773  0.00  0.00    +0.000 A 
ATOM     16  C   UNL     1       1.531   8.114  20.412  0.00  0.00    +0.000 A 
ATOM     17  C   UNL     1       1.175   9.154  19.542  0.00  0.00    +0.000 A 
BRANCH  12  21
ATOM     18  C   UNL     1       0.039  13.577  18.184  0.00  0.00    +0.000 C 
ATOM     19  N   UNL     1       0.578  12.584  19.097  0.00  0.00    +0.000 N 
ATOM     20  C   UNL     1       1.822  12.922  19.778  0.00  0.00    +0.000 C 
ATOM     21  C   UNL     1      -0.018  11.314  19.061  0.00  0.00    +0.000 C 
ATOM     22  O   UNL     1      -0.915  11.040  18.263  0.00  0.00    +0.000 OA
ENDBRANCH  12  21
ENDBRANCH   1  16
BRANCH   8  23
ATOM     23  C   UNL     1       6.609   4.882  14.661  0.00  0.00    +0.000 C 
ATOM     24  N   UNL     1       7.612   5.494  13.970  0.00  0.00    +0.000 N 
ATOM     25  O   UNL     1       5.659   4.409  14.049  0.00  0.00    +0.000 OA
ATOM     26  H   UNL     1       8.473   5.810  14.388  0.00  0.00    +0.000 HD
ATOM     27  H   UNL     1       7.529   5.516  12.959  0.00  0.00    +0.000 HD
ENDBRANCH   8  23
TORSDOF 3
ENDMDL
MODEL 6
REMARK VINA RESULT:      -7.5      1.979      9.041
REMARK  Name = 
REMARK  5 active torsions:
REMARK  status: ('A' for Active; 'I' for Inactive)
REMARK    1  A    between atoms: C_1  and  N_2
REMARK    2  A    between atoms: N_2  and  C_3
REMARK    3  A    between atoms: C_4  and  C_6
REMARK    4  A    between atoms: C_10  and  C_11
REMARK    5  A    between atoms: C_18  and  C_19
REMARK                            x       y       z     vdW  Elec       q    Type
REMARK                         _______ _______ _______ _____ _____    ______ ____
ROOT
ATOM      1  C   UNL     1       1.799   8.054  19.392  0.00  0.00    +0.000 A 
ATOM      2  C   UNL     1       2.057   8.840  18.288  0.00  0.00    +0.000 A 
ATOM      3  S   UNL     1       1.124  10.258  18.352  0.00  0.00    +0.000 S 
ATOM      4  C   UNL     1       0.455   9.760  19.876  0.00  0.00    +0.000 A 
ATOM      5  N   UNL     1      -0.426  10.534  20.564  0.00  0.00    +0.000 N 
ATOM      6  C   UNL     1      -1.349  11.450  19.908  0.00  0.00    +0.000 C 
ATOM      7  C   UNL     1      -1.254  12.803  20.614  0.00  0.00    +0.000 C 
ATOM      8  C   UNL     1      -1.528  12.665  22.120  0.00  0.00    +0.000 C 
ATOM      9  C   UNL     1      -0.633  11.574  22.736  0.00  0.00    +0.000 C 
ATOM     10  C   UNL     1      -0.707  10.253  21.964  0.00  0.00    +0.000 C 
ATOM     11  N   UNL     1       0.938   8.614  20.316  0.00  0.00    +0.000 NA
ENDROOT
BRANCH   1  16
ATOM     12  C   UNL     1       4.382   5.331  19.390  0.00  0.00    +0.000 A 
ATOM     13  C   UNL     1       3.700   4.306  20.056  0.00  0.00    +0.000 A 
ATOM     14  C   UNL     1       2.379   4.497  20.475  0.00  0.00    +0.000 A 
ATOM     15  C   UNL     1       1.744   5.721  20.254  0.00  0.00    +0.000 A 
ATOM     16  C   UNL     1       2.413   6.749  19.582  0.00  0.00    +0.000 A 
ATOM     17  C   UNL     1       3.709   6.516  19.101  0.00  0.00    +0.000 A 
BRANCH  12  21
ATOM     18  C   UNL     1       7.452   4.462  17.299  0.00  0.00    +0.000 C 
ATOM     19  N   UNL     1       6.057   4.711  17.620  0.00  0.00    +0.000 N 
ATOM     20  C   UNL     1       5.124   4.769  16.502  0.00  0.00    +0.000 C 
ATOM     21  C   UNL     1       5.781   5.100  18.940  0.00  0.00    +0.000 C 
ATOM     22  O   UNL     1       6.675   5.272  19.768  0.00  0.00    +0.000 OA
ENDBRANCH  12  21
ENDBRANCH   1  16
BRANCH   8  23
ATOM     23  C   UNL     1      -3.012  12.417  22.369  0.00  0.00    +0.000 C 
ATOM     24  N   UNL     1      -3.346  11.970  23.612  0.00  0.00    +0.000 N 
ATOM     25  O   UNL     1      -3.897  12.650  21.555  0.00  0.00    +0.000 OA
ATOM     26  H   UNL     1      -2.687  11.860  24.367  0.00  0.00    +0.000 HD
ATOM     27  H   UNL     1      -4.335  11.864  23.813  0.00  0.00    +0.000 HD
ENDBRANCH   8  23
TORSDOF 3
ENDMDL
MODEL 7
REMARK VINA RESULT:      -7.5      1.803      2.479
REMARK  Name = 
REMARK  5 active torsions:
REMARK  status: ('A' for Active; 'I' for Inactive)
REMARK    1  A    between atoms: C_1  and  N_2
REMARK    2  A    between atoms: N_2  and  C_3
REMARK    3  A    between atoms: C_4  and  C_6
REMARK    4  A    between atoms: C_10  and  C_11
REMARK    5  A    between atoms: C_18  and  C_19
REMARK                            x       y       z     vdW  Elec       q    Type
REMARK                         _______ _______ _______ _____ _____    ______ ____
ROOT
ATOM      1  C   UNL     1       1.615   9.378  19.077  0.00  0.00    +0.000 A 
ATOM      2  C   UNL     1       2.202   9.321  17.830  0.00  0.00    +0.000 A 
ATOM      3  S   UNL     1       2.832   7.768  17.553  0.00  0.00    +0.000 S 
ATOM      4  C   UNL     1       2.248   7.244  19.103  0.00  0.00    +0.000 A 
ATOM      5  N   UNL     1       2.403   5.966  19.538  0.00  0.00    +0.000 N 
ATOM      6  C   UNL     1       3.525   5.128  19.137  0.00  0.00    +0.000 C 
ATOM      7  C   UNL     1       2.970   3.775  18.690  0.00  0.00    +0.000 C 
ATOM      8  C   UNL     1       2.116   3.132  19.794  0.00  0.00    +0.000 C 
ATOM      9  C   UNL     1       1.041   4.116  20.290  0.00  0.00    +0.000 C 
ATOM     10  C   UNL     1       1.628   5.479  20.669  0.00  0.00    +0.000 C 
ATOM     11  N   UNL     1       1.591   8.178  19.763  0.00  0.00    +0.000 NA
ENDROOT
BRANCH   1  16
ATOM     12  C   UNL     1      -0.328  11.681  21.314  0.00  0.00    +0.000 A 
ATOM     13  C   UNL     1       0.016  12.931  20.784  0.00  0.00    +0.000 A 
ATOM     14  C   UNL     1       0.857  13.016  19.671  0.00  0.00    +0.000 A 
ATOM     15  C   UNL     1       1.381  11.854  19.098  0.00  0.00    +0.000 A 
ATOM     16  C   UNL     1       1.038  10.600  19.614  0.00  0.00    +0.000 A 
ATOM     17  C   UNL     1       0.132  10.528  20.682  0.00  0.00    +0.000 A 
BRANCH  12  21
ATOM     18  C   UNL     1      -3.274  12.168  23.687  0.00  0.00    +0.000 C 
ATOM     19  N   UNL     1      -2.487  12.252  22.469  0.00  0.00    +0.000 N 
ATOM     20  C   UNL     1      -3.160  12.770  21.285  0.00  0.00    +0.000 C 
ATOM     21  C   UNL     1      -1.237  11.615  22.489  0.00  0.00    +0.000 C 
ATOM     22  O   UNL     1      -0.849  10.976  23.467  0.00  0.00    +0.000 OA
ENDBRANCH  12  21
ENDBRANCH   1  16
BRANCH   8  23
ATOM     23  C   UNL     1       3.006   2.617  20.920  0.00  0.00    +0.000 C 
ATOM     24  N   UNL     1       4.257   2.214  20.560  0.00  0.00    +0.000 N 
ATOM     25  O   UNL     1       2.688   2.606  22.102  0.00  0.00    +0.000 OA
ATOM     26  H   UNL     1       4.629   2.296  19.626  0.00  0.00    +0.000 HD
ATOM     27  H   UNL     1       4.884   1.933  21.306  0.00  0.00    +0.000 HD
ENDBRANCH   8  23
TORSDOF 3
ENDMDL
MODEL 8
REMARK VINA RESULT:      -7.5      2.003      9.124
REMARK  Name = 
REMARK  5 active torsions:
REMARK  status: ('A' for Active; 'I' for Inactive)
REMARK    1  A    between atoms: C_1  and  N_2
REMARK    2  A    between atoms: N_2  and  C_3
REMARK    3  A    between atoms: C_4  and  C_6
REMARK    4  A    between atoms: C_10  and  C_11
REMARK    5  A    between atoms: C_18  and  C_19
REMARK                            x       y       z     vdW  Elec       q    Type
REMARK                         _______ _______ _______ _____ _____    ______ ____
ROOT
ATOM      1  C   UNL     1       1.852   8.019  19.304  0.00  0.00    +0.000 A 
ATOM      2  C   UNL     1       2.211   8.862  18.273  0.00  0.00    +0.000 A 
ATOM      3  S   UNL     1       1.345  10.319  18.383  0.00  0.00    +0.000 S 
ATOM      4  C   UNL     1       0.567   9.758  19.831  0.00  0.00    +0.000 A 
ATOM      5  N   UNL     1      -0.314  10.529  20.521  0.00  0.00    +0.000 N 
ATOM      6  C   UNL     1      -1.153  11.534  19.881  0.00  0.00    +0.000 C 
ATOM      7  C   UNL     1      -1.033  12.830  20.683  0.00  0.00    +0.000 C 
ATOM      8  C   UNL     1      -1.400  12.607  22.159  0.00  0.00    +0.000 C 
ATOM      9  C   UNL     1      -0.596  11.433  22.745  0.00  0.00    +0.000 C 
ATOM     10  C   UNL     1      -0.690  10.172  21.881  0.00  0.00    +0.000 C 
ATOM     11  N   UNL     1       0.967   8.562  20.216  0.00  0.00    +0.000 NA
ENDROOT
BRANCH   1  16
ATOM     12  C   UNL     1       4.024   5.012  18.738  0.00  0.00    +0.000 A 
ATOM     13  C   UNL     1       3.569   4.152  19.744  0.00  0.00    +0.000 A 
ATOM     14  C   UNL     1       2.524   4.545  20.586  0.00  0.00    +0.000 A 
ATOM     15  C   UNL     1       1.948   5.810  20.444  0.00  0.00    +0.000 A 
ATOM     16  C   UNL     1       2.390   6.674  19.437  0.00  0.00    +0.000 A 
ATOM     17  C   UNL     1       3.386   6.236  18.552  0.00  0.00    +0.000 A 
BRANCH  12  21
ATOM     18  C   UNL     1       7.442   4.524  17.114  0.00  0.00    +0.000 C 
ATOM     19  N   UNL     1       6.450   4.975  18.075  0.00  0.00    +0.000 N 
ATOM     20  C   UNL     1       6.950   5.592  19.297  0.00  0.00    +0.000 C 
ATOM     21  C   UNL     1       5.127   4.566  17.845  0.00  0.00    +0.000 C 
ATOM     22  O   UNL     1       4.830   3.824  16.909  0.00  0.00    +0.000 OA
ENDBRANCH  12  21
ENDBRANCH   1  16
BRANCH   8  23
ATOM     23  C   UNL     1      -2.906  12.421  22.308  0.00  0.00    +0.000 C 
ATOM     24  N   UNL     1      -3.339  11.980  23.523  0.00  0.00    +0.000 N 
ATOM     25  O   UNL     1      -3.726  12.698  21.441  0.00  0.00    +0.000 OA
ATOM     26  H   UNL     1      -2.736  11.836  24.318  0.00  0.00    +0.000 HD
ATOM     27  H   UNL     1      -4.342  11.915  23.659  0.00  0.00    +0.000 HD
ENDBRANCH   8  23
TORSDOF 3
ENDMDL
MODEL 9
REMARK VINA RESULT:      -7.5      3.064      3.924
REMARK  Name = 
REMARK  5 active torsions:
REMARK  status: ('A' for Active; 'I' for Inactive)
REMARK    1  A    between atoms: C_1  and  N_2
REMARK    2  A    between atoms: N_2  and  C_3
REMARK    3  A    between atoms: C_4  and  C_6
REMARK    4  A    between atoms: C_10  and  C_11
REMARK    5  A    between atoms: C_18  and  C_19
REMARK                            x       y       z     vdW  Elec       q    Type
REMARK                         _______ _______ _______ _____ _____    ______ ____
ROOT
ATOM      1  C   UNL     1       1.626   9.017  18.849  0.00  0.00    +0.000 A 
ATOM      2  C   UNL     1       1.345   8.214  19.936  0.00  0.00    +0.000 A 
ATOM      3  S   UNL     1       2.246   6.777  19.848  0.00  0.00    +0.000 S 
ATOM      4  C   UNL     1       2.995   7.326  18.379  0.00  0.00    +0.000 A 
ATOM      5  N   UNL     1       3.941   6.593  17.735  0.00  0.00    +0.000 N 
ATOM      6  C   UNL     1       3.976   5.137  17.779  0.00  0.00    +0.000 C 
ATOM      7  C   UNL     1       5.404   4.708  18.116  0.00  0.00    +0.000 C 
ATOM      8  C   UNL     1       6.412   5.293  17.113  0.00  0.00    +0.000 C 
ATOM      9  C   UNL     1       6.229   6.817  16.989  0.00  0.00    +0.000 C 
ATOM     10  C   UNL     1       4.774   7.210  16.714  0.00  0.00    +0.000 C 
ATOM     11  N   UNL     1       2.609   8.531  18.008  0.00  0.00    +0.000 NA
ENDROOT
BRANCH   1  16
ATOM     12  C   UNL     1      -1.117  11.533  18.376  0.00  0.00    +0.000 A 
ATOM     13  C   UNL     1      -0.390  12.728  18.346  0.00  0.00    +0.000 A 
ATOM     14  C   UNL     1       1.004  12.706  18.445  0.00  0.00    +0.000 A 
ATOM     15  C   UNL     1       1.676  11.491  18.602  0.00  0.00    +0.000 A 
ATOM     16  C   UNL     1       0.960  10.290  18.626  0.00  0.00    +0.000 A 
ATOM     17  C   UNL     1      -0.430  10.323  18.448  0.00  0.00    +0.000 A 
BRANCH  12  21
ATOM     18  C   UNL     1      -4.675  11.467  17.000  0.00  0.00    +0.000 C 
ATOM     19  N   UNL     1      -3.227  11.347  17.020  0.00  0.00    +0.000 N 
ATOM     20  C   UNL     1      -2.598  10.767  15.840  0.00  0.00    +0.000 C 
ATOM     21  C   UNL     1      -2.599  11.580  18.254  0.00  0.00    +0.000 C 
ATOM     22  O   UNL     1      -3.242  11.824  19.274  0.00  0.00    +0.000 OA
ENDBRANCH  12  21
ENDBRANCH   1  16
BRANCH   8  23
ATOM     23  C   UNL     1       6.301   4.577  15.772  0.00  0.00    +0.000 C 
ATOM     24  N   UNL     1       6.827   5.230  14.697  0.00  0.00    +0.000 N 
ATOM     25  O   UNL     1       5.836   3.454  15.625  0.00  0.00    +0.000 OA
ATOM     26  H   UNL     1       7.323   6.105  14.757  0.00  0.00    +0.000 HD
ATOM     27  H   UNL     1       6.821   4.737  13.810  0.00  0.00    +0.000 HD
ENDBRANCH   8  23
TORSDOF 3
ENDMDL
