MODEL 1
REMARK VINA RESULT:      -8.8      0.000      0.000
REMARK  Name = 
REMARK  6 active torsions:
REMARK  status: ('A' for Active; 'I' for Inactive)
REMARK    1  A    between atoms: C_1  and  C_2
REMARK    2  A    between atoms: C_8  and  C_9
REMARK    3  A    between atoms: C_9  and  N_10
REMARK    4  A    between atoms: N_10  and  C_11
REMARK    5  A    between atoms: C_11  and  C_12
REMARK    6  A    between atoms: C_24  and  O_25
REMARK                            x       y       z     vdW  Elec       q    Type
REMARK                         _______ _______ _______ _____ _____    ______ ____
ROOT
ATOM      1  C   UNL     1       5.025   6.081  17.960  0.00  0.00    +0.000 C 
ENDROOT
BRANCH   1   9
ATOM      2  C   UNL     1       8.710   5.755  12.569  0.00  0.00    +0.000 C 
ATOM      3  C   UNL     1       7.534   4.932  13.022  0.00  0.00    +0.000 A 
ATOM      4  C   UNL     1       6.860   4.149  12.064  0.00  0.00    +0.000 A 
ATOM      5  C   UNL     1       5.702   3.463  12.403  0.00  0.00    +0.000 A 
ATOM      6  C   UNL     1       5.174   3.611  13.681  0.00  0.00    +0.000 A 
ATOM      7  C   UNL     1       5.814   4.428  14.626  0.00  0.00    +0.000 A 
ATOM      8  C   UNL     1       5.208   4.705  15.858  0.00  0.00    +0.000 A 
ATOM      9  C   UNL     1       5.823   5.540  16.796  0.00  0.00    +0.000 A 
ATOM     10  C   UNL     1       7.107   5.959  16.477  0.00  0.00    +0.000 A 
ATOM     11  N   UNL     1       7.698   5.767  15.278  0.00  0.00    +0.000 NA
ATOM     12  C   UNL     1       7.044   5.052  14.335  0.00  0.00    +0.000 A 
BRANCH  10  13
ATOM     13  O   UNL     1       7.873   6.653  17.367  0.00  0.00    +0.000 OA
ATOM     14  H   UNL     1       8.419   5.997  17.828  0.00  0.00    +0.000 HD
ENDBRANCH  10  13
ENDBRANCH   1   9
BRANCH   1  15
ATOM     15  N   UNL     1       3.875   5.363  18.540  0.00  0.00    +0.000 N 
ATOM     16  C   UNL     1       4.026   4.150  19.195  0.00  0.00    +0.000 C 
ATOM     17  O   UNL     1       5.103   3.555  19.182  0.00  0.00    +0.000 OA
ATOM     18  N   UNL     1       2.988   3.586  19.913  0.00  0.00    +0.000 N 
ATOM     19  C   UNL     1       1.580   3.908  20.140  0.00  0.00    +0.000 C 
ATOM     20  C   UNL     1       1.343   3.481  21.573  0.00  0.00    +0.000 C 
ATOM     21  C   UNL     1       2.134   2.189  21.666  0.00  0.00    +0.000 C 
ATOM     22  C   UNL     1       3.304   2.397  20.706  0.00  0.00    +0.000 C 
BRANCH  15  23
ATOM     23  C   UNL     1       2.552   5.892  18.230  0.00  0.00    +0.000 C 
BRANCH  23  24
ATOM     24  C   UNL     1       2.234   7.318  18.509  0.00  0.00    +0.000 A 
ATOM     25  C   UNL     1       1.981   8.413  17.710  0.00  0.00    +0.000 A 
ATOM     26  C   UNL     1       1.422   9.403  18.557  0.00  0.00    +0.000 A 
ATOM     27  C   UNL     1       1.402   8.863  19.821  0.00  0.00    +0.000 A 
ATOM     28  O   UNL     1       1.910   7.606  19.805  0.00  0.00    +0.000 OA
ENDBRANCH  23  24
ENDBRANCH  15  23
ENDBRANCH   1  15
TORSDOF 5
ENDMDL
MODEL 2
REMARK VINA RESULT:      -8.1      2.254      7.901
REMARK  Name = 
REMARK  6 active torsions:
REMARK  status: ('A' for Active; 'I' for Inactive)
REMARK    1  A    between atoms: C_1  and  C_2
REMARK    2  A    between atoms: C_8  and  C_9
REMARK    3  A    between atoms: C_9  and  N_10
REMARK    4  A    between atoms: N_10  and  C_11
REMARK    5  A    between atoms: C_11  and  C_12
REMARK    6  A    between atoms: C_24  and  O_25
REMARK                            x       y       z     vdW  Elec       q    Type
REMARK                         _______ _______ _______ _____ _____    ______ ____
ROOT
ATOM      1  C   UNL     1       3.274   6.889  19.641  0.00  0.00    +0.000 C 
ENDROOT
BRANCH   1   9
ATOM      2  C   UNL     1      -0.406  12.290  19.449  0.00  0.00    +0.000 C 
ATOM      3  C   UNL     1      -0.375  11.141  20.420  0.00  0.00    +0.000 A 
ATOM      4  C   UNL     1      -0.981  11.316  21.680  0.00  0.00    +0.000 A 
ATOM      5  C   UNL     1      -0.881  10.332  22.653  0.00  0.00    +0.000 A 
ATOM      6  C   UNL     1      -0.118   9.198  22.397  0.00  0.00    +0.000 A 
ATOM      7  C   UNL     1       0.529   9.038  21.161  0.00  0.00    +0.000 A 
ATOM      8  C   UNL     1       1.421   7.979  20.953  0.00  0.00    +0.000 A 
ATOM      9  C   UNL     1       2.092   7.826  19.736  0.00  0.00    +0.000 A 
ATOM     10  C   UNL     1       1.719   8.705  18.729  0.00  0.00    +0.000 A 
ATOM     11  N   UNL     1       0.912   9.774  18.908  0.00  0.00    +0.000 NA
ATOM     12  C   UNL     1       0.357   9.977  20.123  0.00  0.00    +0.000 A 
BRANCH  10  13
ATOM     13  O   UNL     1       2.186   8.571  17.455  0.00  0.00    +0.000 OA
ATOM     14  H   UNL     1       1.834   7.730  17.122  0.00  0.00    +0.000 HD
ENDBRANCH  10  13
ENDBRANCH   1   9
BRANCH   1  15
ATOM     15  N   UNL     1       3.484   5.984  18.495  0.00  0.00    +0.000 N 
ATOM     16  C   UNL     1       4.316   6.325  17.439  0.00  0.00    +0.000 C 
ATOM     17  O   UNL     1       4.788   7.457  17.347  0.00  0.00    +0.000 OA
ATOM     18  N   UNL     1       4.672   5.398  16.477  0.00  0.00    +0.000 N 
ATOM     19  C   UNL     1       4.313   4.013  16.179  0.00  0.00    +0.000 C 
ATOM     20  C   UNL     1       5.602   3.416  15.656  0.00  0.00    +0.000 C 
ATOM     21  C   UNL     1       6.167   4.541  14.808  0.00  0.00    +0.000 C 
ATOM     22  C   UNL     1       5.688   5.812  15.508  0.00  0.00    +0.000 C 
BRANCH  15  23
ATOM     23  C   UNL     1       2.634   4.802  18.434  0.00  0.00    +0.000 C 
BRANCH  23  24
ATOM     24  C   UNL     1       2.223   4.112  19.686  0.00  0.00    +0.000 A 
ATOM     25  C   UNL     1       1.002   3.826  20.261  0.00  0.00    +0.000 A 
ATOM     26  C   UNL     1       1.255   2.866  21.273  0.00  0.00    +0.000 A 
ATOM     27  C   UNL     1       2.613   2.654  21.274  0.00  0.00    +0.000 A 
ATOM     28  O   UNL     1       3.210   3.420  20.328  0.00  0.00    +0.000 OA
ENDBRANCH  23  24
ENDBRANCH  15  23
ENDBRANCH   1  15
TORSDOF 5
ENDMDL
MODEL 3
REMARK VINA RESULT:      -7.8      2.025      7.177
REMARK  Name = 
REMARK  6 active torsions:
REMARK  status: ('A' for Active; 'I' for Inactive)
REMARK    1  A    between atoms: C_1  and  C_2
REMARK    2  A    between atoms: C_8  and  C_9
REMARK    3  A    between atoms: C_9  and  N_10
REMARK    4  A    between atoms: N_10  and  C_11
REMARK    5  A    between atoms: C_11  and  C_12
REMARK    6  A    between atoms: C_24  and  O_25
REMARK                            x       y       z     vdW  Elec       q    Type
REMARK                         _______ _______ _______ _____ _____    ______ ____
ROOT
ATOM      1  C   UNL     1       3.387   4.508  18.681  0.00  0.00    +0.000 C 
ENDROOT
BRANCH   1   9
ATOM      2  C   UNL     1      -0.239   9.212  21.413  0.00  0.00    +0.000 C 
ATOM      3  C   UNL     1       0.689   9.233  20.228  0.00  0.00    +0.000 A 
ATOM      4  C   UNL     1       0.589  10.306  19.321  0.00  0.00    +0.000 A 
ATOM      5  C   UNL     1       1.338  10.315  18.154  0.00  0.00    +0.000 A 
ATOM      6  C   UNL     1       2.141   9.220  17.853  0.00  0.00    +0.000 A 
ATOM      7  C   UNL     1       2.209   8.124  18.730  0.00  0.00    +0.000 A 
ATOM      8  C   UNL     1       2.889   6.956  18.362  0.00  0.00    +0.000 A 
ATOM      9  C   UNL     1       2.939   5.850  19.214  0.00  0.00    +0.000 A 
ATOM     10  C   UNL     1       2.390   6.036  20.475  0.00  0.00    +0.000 A 
ATOM     11  N   UNL     1       1.673   7.120  20.844  0.00  0.00    +0.000 NA
ATOM     12  C   UNL     1       1.535   8.140  19.967  0.00  0.00    +0.000 A 
BRANCH  10  13
ATOM     13  O   UNL     1       2.504   5.089  21.450  0.00  0.00    +0.000 OA
ATOM     14  H   UNL     1       1.610   4.944  21.796  0.00  0.00    +0.000 HD
ENDBRANCH  10  13
ENDBRANCH   1   9
BRANCH   1  15
ATOM     15  N   UNL     1       4.576   4.348  17.823  0.00  0.00    +0.000 N 
ATOM     16  C   UNL     1       4.472   3.946  16.500  0.00  0.00    +0.000 C 
ATOM     17  O   UNL     1       3.398   3.562  16.039  0.00  0.00    +0.000 OA
ATOM     18  N   UNL     1       5.558   3.998  15.644  0.00  0.00    +0.000 N 
ATOM     19  C   UNL     1       6.976   4.323  15.779  0.00  0.00    +0.000 C 
ATOM     20  C   UNL     1       7.311   5.007  14.471  0.00  0.00    +0.000 C 
ATOM     21  C   UNL     1       6.531   4.186  13.460  0.00  0.00    +0.000 C 
ATOM     22  C   UNL     1       5.298   3.717  14.232  0.00  0.00    +0.000 C 
BRANCH  15  23
ATOM     23  C   UNL     1       5.873   4.450  18.480  0.00  0.00    +0.000 C 
BRANCH  23  24
ATOM     24  C   UNL     1       6.616   5.738  18.470  0.00  0.00    +0.000 A 
ATOM     25  C   UNL     1       7.842   6.136  18.962  0.00  0.00    +0.000 A 
ATOM     26  C   UNL     1       8.130   7.383  18.352  0.00  0.00    +0.000 A 
ATOM     27  C   UNL     1       7.050   7.681  17.556  0.00  0.00    +0.000 A 
ATOM     28  O   UNL     1       6.118   6.699  17.637  0.00  0.00    +0.000 OA
ENDBRANCH  23  24
ENDBRANCH  15  23
ENDBRANCH   1  15
TORSDOF 5
ENDMDL
MODEL 4
REMARK VINA RESULT:      -7.7      2.978      8.062
REMARK  Name = 
REMARK  6 active torsions:
REMARK  status: ('A' for Active; 'I' for Inactive)
REMARK    1  A    between atoms: C_1  and  C_2
REMARK    2  A    between atoms: C_8  and  C_9
REMARK    3  A    between atoms: C_9  and  N_10
REMARK    4  A    between atoms: N_10  and  C_11
REMARK    5  A    between atoms: C_11  and  C_12
REMARK    6  A    between atoms: C_24  and  O_25
REMARK                            x       y       z     vdW  Elec       q    Type
REMARK                         _______ _______ _______ _____ _____    ______ ____
ROOT
ATOM      1  C   UNL     1       1.915   7.220  18.552  0.00  0.00    +0.000 C 
ENDROOT
BRANCH   1   9
ATOM      2  C   UNL     1      -0.908  11.602  22.497  0.00  0.00    +0.000 C 
ATOM      3  C   UNL     1      -0.237  11.755  21.159  0.00  0.00    +0.000 A 
ATOM      4  C   UNL     1      -0.476  12.933  20.423  0.00  0.00    +0.000 A 
ATOM      5  C   UNL     1       0.024  13.074  19.137  0.00  0.00    +0.000 A 
ATOM      6  C   UNL     1       0.708  12.013  18.553  0.00  0.00    +0.000 A 
ATOM      7  C   UNL     1       0.908  10.818  19.263  0.00  0.00    +0.000 A 
ATOM      8  C   UNL     1       1.456   9.695  18.630  0.00  0.00    +0.000 A 
ATOM      9  C   UNL     1       1.634   8.491  19.319  0.00  0.00    +0.000 A 
ATOM     10  C   UNL     1       1.356   8.530  20.678  0.00  0.00    +0.000 A 
ATOM     11  N   UNL     1       0.770   9.570  21.309  0.00  0.00    +0.000 NA
ATOM     12  C   UNL     1       0.498  10.691  20.605  0.00  0.00    +0.000 A 
BRANCH  10  13
ATOM     13  O   UNL     1       1.628   7.469  21.492  0.00  0.00    +0.000 OA
ATOM     14  H   UNL     1       0.925   6.819  21.338  0.00  0.00    +0.000 HD
ENDBRANCH  10  13
ENDBRANCH   1   9
BRANCH   1  15
ATOM     15  N   UNL     1       3.160   6.447  18.717  0.00  0.00    +0.000 N 
ATOM     16  C   UNL     1       4.238   6.608  17.859  0.00  0.00    +0.000 C 
ATOM     17  O   UNL     1       4.137   7.290  16.839  0.00  0.00    +0.000 OA
ATOM     18  N   UNL     1       5.469   6.042  18.136  0.00  0.00    +0.000 N 
ATOM     19  C   UNL     1       5.998   5.148  19.164  0.00  0.00    +0.000 C 
ATOM     20  C   UNL     1       7.411   5.647  19.376  0.00  0.00    +0.000 C 
ATOM     21  C   UNL     1       7.860   5.977  17.965  0.00  0.00    +0.000 C 
ATOM     22  C   UNL     1       6.579   6.417  17.258  0.00  0.00    +0.000 C 
BRANCH  15  23
ATOM     23  C   UNL     1       3.137   5.376  19.704  0.00  0.00    +0.000 C 
BRANCH  23  24
ATOM     24  C   UNL     1       2.372   4.128  19.435  0.00  0.00    +0.000 A 
ATOM     25  C   UNL     1       1.119   3.681  19.798  0.00  0.00    +0.000 A 
ATOM     26  C   UNL     1       0.836   2.570  18.964  0.00  0.00    +0.000 A 
ATOM     27  C   UNL     1       1.945   2.390  18.172  0.00  0.00    +0.000 A 
ATOM     28  O   UNL     1       2.889   3.318  18.464  0.00  0.00    +0.000 OA
ENDBRANCH  23  24
ENDBRANCH  15  23
ENDBRANCH   1  15
TORSDOF 5
ENDMDL
MODEL 5
REMARK VINA RESULT:      -7.6      3.070      7.940
REMARK  Name = 
REMARK  6 active torsions:
REMARK  status: ('A' for Active; 'I' for Inactive)
REMARK    1  A    between atoms: C_1  and  C_2
REMARK    2  A    between atoms: C_8  and  C_9
REMARK    3  A    between atoms: C_9  and  N_10
REMARK    4  A    between atoms: N_10  and  C_11
REMARK    5  A    between atoms: C_11  and  C_12
REMARK    6  A    between atoms: C_24  and  O_25
REMARK                            x       y       z     vdW  Elec       q    Type
REMARK                         _______ _______ _______ _____ _____    ______ ____
ROOT
ATOM      1  C   UNL     1       1.831   6.836  18.218  0.00  0.00    +0.000 C 
ENDROOT
BRANCH   1   9
ATOM      2  C   UNL     1      -0.714  10.735  22.808  0.00  0.00    +0.000 C 
ATOM      3  C   UNL     1      -0.252  11.020  21.404  0.00  0.00    +0.000 A 
ATOM      4  C   UNL     1      -0.678  12.215  20.791  0.00  0.00    +0.000 A 
ATOM      5  C   UNL     1      -0.378  12.472  19.462  0.00  0.00    +0.000 A 
ATOM      6  C   UNL     1       0.291  11.507  18.717  0.00  0.00    +0.000 A 
ATOM      7  C   UNL     1       0.677  10.292  19.308  0.00  0.00    +0.000 A 
ATOM      8  C   UNL     1       1.210   9.256  18.530  0.00  0.00    +0.000 A 
ATOM      9  C   UNL     1       1.571   8.033  19.102  0.00  0.00    +0.000 A 
ATOM     10  C   UNL     1       1.487   7.969  20.486  0.00  0.00    +0.000 A 
ATOM     11  N   UNL     1       0.922   8.919  21.263  0.00  0.00    +0.000 NA
ATOM     12  C   UNL     1       0.472  10.054  20.682  0.00  0.00    +0.000 A 
BRANCH  10  13
ATOM     13  O   UNL     1       1.948   6.889  21.179  0.00  0.00    +0.000 OA
ATOM     14  H   UNL     1       1.164   6.406  21.487  0.00  0.00    +0.000 HD
ENDBRANCH  10  13
ENDBRANCH   1   9
BRANCH   1  15
ATOM     15  N   UNL     1       3.143   6.165  18.150  0.00  0.00    +0.000 N 
ATOM     16  C   UNL     1       4.272   6.816  17.677  0.00  0.00    +0.000 C 
ATOM     17  O   UNL     1       4.188   7.927  17.155  0.00  0.00    +0.000 OA
ATOM     18  N   UNL     1       5.531   6.259  17.808  0.00  0.00    +0.000 N 
ATOM     19  C   UNL     1       6.064   4.988  18.293  0.00  0.00    +0.000 C 
ATOM     20  C   UNL     1       7.372   5.377  18.948  0.00  0.00    +0.000 C 
ATOM     21  C   UNL     1       7.916   6.429  18.000  0.00  0.00    +0.000 C 
ATOM     22  C   UNL     1       6.667   7.103  17.434  0.00  0.00    +0.000 C 
BRANCH  15  23
ATOM     23  C   UNL     1       3.158   4.733  18.424  0.00  0.00    +0.000 C 
BRANCH  23  24
ATOM     24  C   UNL     1       2.338   4.177  19.534  0.00  0.00    +0.000 A 
ATOM     25  C   UNL     1       1.157   3.466  19.584  0.00  0.00    +0.000 A 
ATOM     26  C   UNL     1       1.064   2.942  20.898  0.00  0.00    +0.000 A 
ATOM     27  C   UNL     1       2.173   3.393  21.573  0.00  0.00    +0.000 A 
ATOM     28  O   UNL     1       2.941   4.159  20.759  0.00  0.00    +0.000 OA
ENDBRANCH  23  24
ENDBRANCH  15  23
ENDBRANCH   1  15
TORSDOF 5
ENDMDL
MODEL 6
REMARK VINA RESULT:      -7.5      2.940      7.887
REMARK  Name = 
REMARK  6 active torsions:
REMARK  status: ('A' for Active; 'I' for Inactive)
REMARK    1  A    between atoms: C_1  and  C_2
REMARK    2  A    between atoms: C_8  and  C_9
REMARK    3  A    between atoms: C_9  and  N_10
REMARK    4  A    between atoms: N_10  and  C_11
REMARK    5  A    between atoms: C_11  and  C_12
REMARK    6  A    between atoms: C_24  and  O_25
REMARK                            x       y       z     vdW  Elec       q    Type
REMARK                         _______ _______ _______ _____ _____    ______ ____
ROOT
ATOM      1  C   UNL     1       1.926   7.771  18.154  0.00  0.00    +0.000 C 
ENDROOT
BRANCH   1   9
ATOM      2  C   UNL     1      -0.823  12.875  21.177  0.00  0.00    +0.000 C 
ATOM      3  C   UNL     1       0.283  12.799  20.158  0.00  0.00    +0.000 A 
ATOM      4  C   UNL     1       0.629  13.973  19.461  0.00  0.00    +0.000 A 
ATOM      5  C   UNL     1       1.558  13.934  18.432  0.00  0.00    +0.000 A 
ATOM      6  C   UNL     1       2.097  12.710  18.048  0.00  0.00    +0.000 A 
ATOM      7  C   UNL     1       1.720  11.528  18.707  0.00  0.00    +0.000 A 
ATOM      8  C   UNL     1       2.136  10.280  18.228  0.00  0.00    +0.000 A 
ATOM      9  C   UNL     1       1.744   9.095  18.859  0.00  0.00    +0.000 A 
ATOM     10  C   UNL     1       1.037   9.250  20.043  0.00  0.00    +0.000 A 
ATOM     11  N   UNL     1       0.565  10.429  20.502  0.00  0.00    +0.000 NA
ATOM     12  C   UNL     1       0.856  11.559  19.820  0.00  0.00    +0.000 A 
BRANCH  10  13
ATOM     13  O   UNL     1       0.724   8.183  20.832  0.00  0.00    +0.000 OA
ATOM     14  H   UNL     1       1.529   7.964  21.328  0.00  0.00    +0.000 HD
ENDBRANCH  10  13
ENDBRANCH   1   9
BRANCH   1  15
ATOM     15  N   UNL     1       3.030   6.845  18.468  0.00  0.00    +0.000 N 
ATOM     16  C   UNL     1       4.132   6.714  17.637  0.00  0.00    +0.000 C 
ATOM     17  O   UNL     1       4.157   7.253  16.531  0.00  0.00    +0.000 OA
ATOM     18  N   UNL     1       5.253   6.009  18.034  0.00  0.00    +0.000 N 
ATOM     19  C   UNL     1       5.618   5.196  19.193  0.00  0.00    +0.000 C 
ATOM     20  C   UNL     1       7.089   5.494  19.388  0.00  0.00    +0.000 C 
ATOM     21  C   UNL     1       7.606   5.548  17.962  0.00  0.00    +0.000 C 
ATOM     22  C   UNL     1       6.421   6.078  17.156  0.00  0.00    +0.000 C 
BRANCH  15  23
ATOM     23  C   UNL     1       2.822   5.940  19.591  0.00  0.00    +0.000 C 
BRANCH  23  24
ATOM     24  C   UNL     1       1.944   4.749  19.437  0.00  0.00    +0.000 A 
ATOM     25  C   UNL     1       1.539   3.996  18.354  0.00  0.00    +0.000 A 
ATOM     26  C   UNL     1       0.982   2.805  18.884  0.00  0.00    +0.000 A 
ATOM     27  C   UNL     1       1.051   2.922  20.252  0.00  0.00    +0.000 A 
ATOM     28  O   UNL     1       1.615   4.105  20.596  0.00  0.00    +0.000 OA
ENDBRANCH  23  24
ENDBRANCH  15  23
ENDBRANCH   1  15
TORSDOF 5
ENDMDL
MODEL 7
REMARK VINA RESULT:      -7.5      2.935      7.824
REMARK  Name = 
REMARK  6 active torsions:
REMARK  status: ('A' for Active; 'I' for Inactive)
REMARK    1  A    between atoms: C_1  and  C_2
REMARK    2  A    between atoms: C_8  and  C_9
REMARK    3  A    between atoms: C_9  and  N_10
REMARK    4  A    between atoms: N_10  and  C_11
REMARK    5  A    between atoms: C_11  and  C_12
REMARK    6  A    between atoms: C_24  and  O_25
REMARK                            x       y       z     vdW  Elec       q    Type
REMARK                         _______ _______ _______ _____ _____    ______ ____
ROOT
ATOM      1  C   UNL     1       2.528   8.172  17.543  0.00  0.00    +0.000 C 
ENDROOT
BRANCH   1   9
ATOM      2  C   UNL     1       0.614  12.943  21.583  0.00  0.00    +0.000 C 
ATOM      3  C   UNL     1       0.230  11.490  21.507  0.00  0.00    +0.000 A 
ATOM      4  C   UNL     1      -0.395  10.906  22.626  0.00  0.00    +0.000 A 
ATOM      5  C   UNL     1      -0.665   9.545  22.653  0.00  0.00    +0.000 A 
ATOM      6  C   UNL     1      -0.249   8.749  21.592  0.00  0.00    +0.000 A 
ATOM      7  C   UNL     1       0.419   9.316  20.494  0.00  0.00    +0.000 A 
ATOM      8  C   UNL     1       0.976   8.503  19.499  0.00  0.00    +0.000 A 
ATOM      9  C   UNL     1       1.667   9.056  18.417  0.00  0.00    +0.000 A 
ATOM     10  C   UNL     1       1.648  10.440  18.335  0.00  0.00    +0.000 A 
ATOM     11  N   UNL     1       1.178  11.257  19.302  0.00  0.00    +0.000 NA
ATOM     12  C   UNL     1       0.611  10.709  20.400  0.00  0.00    +0.000 A 
BRANCH  10  13
ATOM     13  O   UNL     1       2.156  11.098  17.253  0.00  0.00    +0.000 OA
ATOM     14  H   UNL     1       1.549  11.833  17.070  0.00  0.00    +0.000 HD
ENDBRANCH  10  13
ENDBRANCH   1   9
BRANCH   1  15
ATOM     15  N   UNL     1       3.445   7.157  18.094  0.00  0.00    +0.000 N 
ATOM     16  C   UNL     1       4.549   6.710  17.385  0.00  0.00    +0.000 C 
ATOM     17  O   UNL     1       4.717   7.030  16.209  0.00  0.00    +0.000 OA
ATOM     18  N   UNL     1       5.517   5.921  17.981  0.00  0.00    +0.000 N 
ATOM     19  C   UNL     1       5.684   5.283  19.285  0.00  0.00    +0.000 C 
ATOM     20  C   UNL     1       7.173   5.378  19.540  0.00  0.00    +0.000 C 
ATOM     21  C   UNL     1       7.760   5.095  18.169  0.00  0.00    +0.000 C 
ATOM     22  C   UNL     1       6.721   5.649  17.196  0.00  0.00    +0.000 C 
BRANCH  15  23
ATOM     23  C   UNL     1       3.035   6.512  19.335  0.00  0.00    +0.000 C 
BRANCH  23  24
ATOM     24  C   UNL     1       2.151   5.316  19.298  0.00  0.00    +0.000 A 
ATOM     25  C   UNL     1       1.825   4.401  18.318  0.00  0.00    +0.000 A 
ATOM     26  C   UNL     1       1.201   3.314  18.981  0.00  0.00    +0.000 A 
ATOM     27  C   UNL     1       1.156   3.649  20.313  0.00  0.00    +0.000 A 
ATOM     28  O   UNL     1       1.712   4.870  20.512  0.00  0.00    +0.000 OA
ENDBRANCH  23  24
ENDBRANCH  15  23
ENDBRANCH   1  15
TORSDOF 5
ENDMDL
MODEL 8
REMARK VINA RESULT:      -7.5      3.269      7.593
REMARK  Name = 
REMARK  6 active torsions:
REMARK  status: ('A' for Active; 'I' for Inactive)
REMARK    1  A    between atoms: C_1  and  C_2
REMARK    2  A    between atoms: C_8  and  C_9
REMARK    3  A    between atoms: C_9  and  N_10
REMARK    4  A    between atoms: N_10  and  C_11
REMARK    5  A    between atoms: C_11  and  C_12
REMARK    6  A    between atoms: C_24  and  O_25
REMARK                            x       y       z     vdW  Elec       q    Type
REMARK                         _______ _______ _______ _____ _____    ______ ____
ROOT
ATOM      1  C   UNL     1       2.968   7.427  18.220  0.00  0.00    +0.000 C 
ENDROOT
BRANCH   1   9
ATOM      2  C   UNL     1       0.200  12.703  20.913  0.00  0.00    +0.000 C 
ATOM      3  C   UNL     1       0.117  11.243  21.271  0.00  0.00    +0.000 A 
ATOM      4  C   UNL     1      -0.358  10.897  22.551  0.00  0.00    +0.000 A 
ATOM      5  C   UNL     1      -0.346   9.575  22.974  0.00  0.00    +0.000 A 
ATOM      6  C   UNL     1       0.203   8.602  22.146  0.00  0.00    +0.000 A 
ATOM      7  C   UNL     1       0.723   8.947  20.888  0.00  0.00    +0.000 A 
ATOM      8  C   UNL     1       1.416   8.005  20.118  0.00  0.00    +0.000 A 
ATOM      9  C   UNL     1       1.962   8.345  18.877  0.00  0.00    +0.000 A 
ATOM     10  C   UNL     1       1.661   9.619  18.416  0.00  0.00    +0.000 A 
ATOM     11  N   UNL     1       1.053  10.574  19.152  0.00  0.00    +0.000 NA
ATOM     12  C   UNL     1       0.628  10.265  20.398  0.00  0.00    +0.000 A 
BRANCH  10  13
ATOM     13  O   UNL     1       2.006  10.023  17.160  0.00  0.00    +0.000 OA
ATOM     14  H   UNL     1       1.231  10.481  16.798  0.00  0.00    +0.000 HD
ENDBRANCH  10  13
ENDBRANCH   1   9
BRANCH   1  15
ATOM     15  N   UNL     1       3.201   6.044  18.675  0.00  0.00    +0.000 N 
ATOM     16  C   UNL     1       2.280   5.034  18.440  0.00  0.00    +0.000 C 
ATOM     17  O   UNL     1       1.168   5.287  17.978  0.00  0.00    +0.000 OA
ATOM     18  N   UNL     1       2.591   3.707  18.680  0.00  0.00    +0.000 N 
ATOM     19  C   UNL     1       3.726   2.990  19.256  0.00  0.00    +0.000 C 
ATOM     20  C   UNL     1       3.790   1.714  18.443  0.00  0.00    +0.000 C 
ATOM     21  C   UNL     1       2.325   1.359  18.271  0.00  0.00    +0.000 C 
ATOM     22  C   UNL     1       1.614   2.711  18.236  0.00  0.00    +0.000 C 
BRANCH  15  23
ATOM     23  C   UNL     1       4.351   5.828  19.544  0.00  0.00    +0.000 C 
BRANCH  23  24
ATOM     24  C   UNL     1       5.722   5.781  18.970  0.00  0.00    +0.000 A 
ATOM     25  C   UNL     1       6.280   6.237  17.793  0.00  0.00    +0.000 A 
ATOM     26  C   UNL     1       7.685   6.187  17.973  0.00  0.00    +0.000 A 
ATOM     27  C   UNL     1       7.895   5.673  19.230  0.00  0.00    +0.000 A 
ATOM     28  O   UNL     1       6.711   5.406  19.835  0.00  0.00    +0.000 OA
ENDBRANCH  23  24
ENDBRANCH  15  23
ENDBRANCH   1  15
TORSDOF 5
ENDMDL
MODEL 9
REMARK VINA RESULT:      -7.4      2.990      8.213
REMARK  Name = 
REMARK  6 active torsions:
REMARK  status: ('A' for Active; 'I' for Inactive)
REMARK    1  A    between atoms: C_1  and  C_2
REMARK    2  A    between atoms: C_8  and  C_9
REMARK    3  A    between atoms: C_9  and  N_10
REMARK    4  A    between atoms: N_10  and  C_11
REMARK    5  A    between atoms: C_11  and  C_12
REMARK    6  A    between atoms: C_24  and  O_25
REMARK                            x       y       z     vdW  Elec       q    Type
REMARK                         _______ _______ _______ _____ _____    ______ ____
ROOT
ATOM      1  C   UNL     1       2.257   8.290  17.922  0.00  0.00    +0.000 C 
ENDROOT
BRANCH   1   9
ATOM      2  C   UNL     1      -1.730  12.267  21.243  0.00  0.00    +0.000 C 
ATOM      3  C   UNL     1      -0.979  11.033  21.665  0.00  0.00    +0.000 A 
ATOM      4  C   UNL     1      -0.802  10.797  23.042  0.00  0.00    +0.000 A 
ATOM      5  C   UNL     1      -0.020   9.739  23.482  0.00  0.00    +0.000 A 
ATOM      6  C   UNL     1       0.645   8.951  22.548  0.00  0.00    +0.000 A 
ATOM      7  C   UNL     1       0.511   9.210  21.174  0.00  0.00    +0.000 A 
ATOM      8  C   UNL     1       1.296   8.524  20.239  0.00  0.00    +0.000 A 
ATOM      9  C   UNL     1       1.193   8.793  18.871  0.00  0.00    +0.000 A 
ATOM     10  C   UNL     1       0.187   9.676  18.506  0.00  0.00    +0.000 A 
ATOM     11  N   UNL     1      -0.546  10.402  19.378  0.00  0.00    +0.000 NA
ATOM     12  C   UNL     1      -0.357  10.215  20.704  0.00  0.00    +0.000 A 
BRANCH  10  13
ATOM     13  O   UNL     1      -0.118   9.910  17.197  0.00  0.00    +0.000 OA
ATOM     14  H   UNL     1       0.434   9.306  16.676  0.00  0.00    +0.000 HD
ENDBRANCH  10  13
ENDBRANCH   1   9
BRANCH   1  15
ATOM     15  N   UNL     1       3.207   7.222  18.284  0.00  0.00    +0.000 N 
ATOM     16  C   UNL     1       4.317   6.937  17.504  0.00  0.00    +0.000 C 
ATOM     17  O   UNL     1       4.466   7.464  16.401  0.00  0.00    +0.000 OA
ATOM     18  N   UNL     1       5.311   6.085  17.949  0.00  0.00    +0.000 N 
ATOM     19  C   UNL     1       5.507   5.234  19.121  0.00  0.00    +0.000 C 
ATOM     20  C   UNL     1       6.995   5.326  19.383  0.00  0.00    +0.000 C 
ATOM     21  C   UNL     1       7.578   5.304  17.982  0.00  0.00    +0.000 C 
ATOM     22  C   UNL     1       6.516   5.990  17.124  0.00  0.00    +0.000 C 
BRANCH  15  23
ATOM     23  C   UNL     1       2.825   6.358  19.394  0.00  0.00    +0.000 C 
BRANCH  23  24
ATOM     24  C   UNL     1       2.001   5.144  19.146  0.00  0.00    +0.000 A 
ATOM     25  C   UNL     1       1.772   4.356  18.037  0.00  0.00    +0.000 A 
ATOM     26  C   UNL     1       1.165   3.167  18.512  0.00  0.00    +0.000 A 
ATOM     27  C   UNL     1       1.030   3.319  19.871  0.00  0.00    +0.000 A 
ATOM     28  O   UNL     1       1.517   4.523  20.262  0.00  0.00    +0.000 OA
ENDBRANCH  23  24
ENDBRANCH  15  23
ENDBRANCH   1  15
TORSDOF 5
ENDMDL
