MODEL 1
REMARK VINA RESULT:      -7.8      0.000      0.000
REMARK  Name = 
REMARK  4 active torsions:
REMARK  status: ('A' for Active; 'I' for Inactive)
REMARK    1  A    between atoms: C_1  and  C_2
REMARK    2  A    between atoms: C_5  and  C_6
REMARK    3  A    between atoms: C_14  and  C_15
REMARK    4  A    between atoms: C_15  and  N_16
REMARK                            x       y       z     vdW  Elec       q    Type
REMARK                         _______ _______ _______ _____ _____    ______ ____
ROOT
ATOM      1  C   UNL     1       4.480   4.677  17.345  0.00  0.00    +0.000 A 
ATOM      2  C   UNL     1       3.431   5.602  17.502  0.00  0.00    +0.000 A 
ATOM      3  C   UNL     1       2.589   5.566  18.618  0.00  0.00    +0.000 A 
ATOM      4  C   UNL     1       2.769   4.582  19.592  0.00  0.00    +0.000 A 
ATOM      5  C   UNL     1       1.922   4.557  20.794  0.00  0.00    +0.000 A 
ATOM      6  O   UNL     1       1.043   5.393  20.974  0.00  0.00    +0.000 OA
ATOM      7  N   UNL     1       2.189   3.560  21.700  0.00  0.00    +0.000 N 
ATOM      8  N   UNL     1       3.100   2.560  21.547  0.00  0.00    +0.000 NA
ATOM      9  C   UNL     1       3.853   2.569  20.484  0.00  0.00    +0.000 A 
ATOM     10  C   UNL     1       3.766   3.626  19.445  0.00  0.00    +0.000 A 
ATOM     11  C   UNL     1       4.626   3.688  18.338  0.00  0.00    +0.000 A 
ATOM     12  H   UNL     1       1.620   3.531  22.541  0.00  0.00    +0.000 HD
ENDROOT
BRANCH   1  17
ATOM     13  C   UNL     1       8.125   5.136  12.903  0.00  0.00    +0.000 C 
ATOM     14  C   UNL     1       7.163   4.973  14.040  0.00  0.00    +0.000 A 
ATOM     15  C   UNL     1       6.037   4.171  13.916  0.00  0.00    +0.000 A 
ATOM     16  C   UNL     1       5.160   4.064  14.996  0.00  0.00    +0.000 A 
ATOM     17  C   UNL     1       5.406   4.747  16.194  0.00  0.00    +0.000 A 
ATOM     18  C   UNL     1       6.575   5.516  16.211  0.00  0.00    +0.000 A 
ATOM     19  N   UNL     1       7.443   5.647  15.176  0.00  0.00    +0.000 NA
ENDBRANCH   1  17
BRANCH   9  20
ATOM     20  C   UNL     1       4.838   1.414  20.316  0.00  0.00    +0.000 C 
BRANCH  20  21
ATOM     21  N   UNL     1       5.571   1.199  21.567  0.00  0.00    +0.000 NA
ATOM     22  H   UNL     1       5.083   1.690  22.320  0.00  0.00    +0.000 HD
ATOM     23  H   UNL     1       6.484   1.651  21.497  0.00  0.00    +0.000 HD
ENDBRANCH  20  21
ENDBRANCH   9  20
TORSDOF 3
ENDMDL
MODEL 2
REMARK VINA RESULT:      -7.6      3.661      6.314
REMARK  Name = 
REMARK  4 active torsions:
REMARK  status: ('A' for Active; 'I' for Inactive)
REMARK    1  A    between atoms: C_1  and  C_2
REMARK    2  A    between atoms: C_5  and  C_6
REMARK    3  A    between atoms: C_14  and  C_15
REMARK    4  A    between atoms: C_15  and  N_16
REMARK                            x       y       z     vdW  Elec       q    Type
REMARK                         _______ _______ _______ _____ _____    ______ ____
ROOT
ATOM      1  C   UNL     1       2.437   6.854  19.183  0.00  0.00    +0.000 A 
ATOM      2  C   UNL     1       3.371   7.022  18.144  0.00  0.00    +0.000 A 
ATOM      3  C   UNL     1       3.995   5.925  17.540  0.00  0.00    +0.000 A 
ATOM      4  C   UNL     1       3.709   4.634  17.984  0.00  0.00    +0.000 A 
ATOM      5  C   UNL     1       4.320   3.466  17.331  0.00  0.00    +0.000 A 
ATOM      6  O   UNL     1       5.091   3.595  16.385  0.00  0.00    +0.000 OA
ATOM      7  N   UNL     1       3.963   2.238  17.831  0.00  0.00    +0.000 N 
ATOM      8  N   UNL     1       3.168   2.013  18.912  0.00  0.00    +0.000 NA
ATOM      9  C   UNL     1       2.624   3.039  19.502  0.00  0.00    +0.000 A 
ATOM     10  C   UNL     1       2.825   4.435  19.037  0.00  0.00    +0.000 A 
ATOM     11  C   UNL     1       2.181   5.538  19.617  0.00  0.00    +0.000 A 
ATOM     12  H   UNL     1       4.368   1.420  17.386  0.00  0.00    +0.000 HD
ENDROOT
BRANCH   1  17
ATOM     13  C   UNL     1      -0.190  11.471  21.420  0.00  0.00    +0.000 C 
ATOM     14  C   UNL     1       0.471  10.244  20.873  0.00  0.00    +0.000 A 
ATOM     15  C   UNL     1       0.699   9.135  21.676  0.00  0.00    +0.000 A 
ATOM     16  C   UNL     1       1.334   8.020  21.127  0.00  0.00    +0.000 A 
ATOM     17  C   UNL     1       1.735   8.008  19.785  0.00  0.00    +0.000 A 
ATOM     18  C   UNL     1       1.445   9.174  19.067  0.00  0.00    +0.000 A 
ATOM     19  N   UNL     1       0.837  10.277  19.574  0.00  0.00    +0.000 NA
ENDBRANCH   1  17
BRANCH   9  20
ATOM     20  C   UNL     1       1.770   2.763  20.738  0.00  0.00    +0.000 C 
BRANCH  20  21
ATOM     21  N   UNL     1       2.629   2.640  21.920  0.00  0.00    +0.000 NA
ATOM     22  H   UNL     1       3.174   1.779  21.839  0.00  0.00    +0.000 HD
ATOM     23  H   UNL     1       2.041   2.511  22.743  0.00  0.00    +0.000 HD
ENDBRANCH  20  21
ENDBRANCH   9  20
TORSDOF 3
ENDMDL
MODEL 3
REMARK VINA RESULT:      -7.5      3.753      6.311
REMARK  Name = 
REMARK  4 active torsions:
REMARK  status: ('A' for Active; 'I' for Inactive)
REMARK    1  A    between atoms: C_1  and  C_2
REMARK    2  A    between atoms: C_5  and  C_6
REMARK    3  A    between atoms: C_14  and  C_15
REMARK    4  A    between atoms: C_15  and  N_16
REMARK                            x       y       z     vdW  Elec       q    Type
REMARK                         _______ _______ _______ _____ _____    ______ ____
ROOT
ATOM      1  C   UNL     1       2.441   7.485  18.771  0.00  0.00    +0.000 A 
ATOM      2  C   UNL     1       3.386   7.543  17.729  0.00  0.00    +0.000 A 
ATOM      3  C   UNL     1       4.173   6.436  17.396  0.00  0.00    +0.000 A 
ATOM      4  C   UNL     1       4.043   5.250  18.120  0.00  0.00    +0.000 A 
ATOM      5  C   UNL     1       4.830   4.062  17.755  0.00  0.00    +0.000 A 
ATOM      6  O   UNL     1       5.613   4.080  16.810  0.00  0.00    +0.000 OA
ATOM      7  N   UNL     1       4.619   2.940  18.517  0.00  0.00    +0.000 N 
ATOM      8  N   UNL     1       3.818   2.855  19.614  0.00  0.00    +0.000 NA
ATOM      9  C   UNL     1       3.120   3.902  19.951  0.00  0.00    +0.000 A 
ATOM     10  C   UNL     1       3.153   5.172  19.183  0.00  0.00    +0.000 A 
ATOM     11  C   UNL     1       2.346   6.278  19.491  0.00  0.00    +0.000 A 
ATOM     12  H   UNL     1       5.146   2.106  18.274  0.00  0.00    +0.000 HD
ENDROOT
BRANCH   1  17
ATOM     13  C   UNL     1      -1.043  11.865  20.147  0.00  0.00    +0.000 C 
ATOM     14  C   UNL     1      -0.122  10.752  19.750  0.00  0.00    +0.000 A 
ATOM     15  C   UNL     1       0.267  10.582  18.429  0.00  0.00    +0.000 A 
ATOM     16  C   UNL     1       1.111   9.520  18.103  0.00  0.00    +0.000 A 
ATOM     17  C   UNL     1       1.570   8.636  19.089  0.00  0.00    +0.000 A 
ATOM     18  C   UNL     1       1.125   8.910  20.386  0.00  0.00    +0.000 A 
ATOM     19  N   UNL     1       0.297   9.928  20.734  0.00  0.00    +0.000 NA
ENDBRANCH   1  17
BRANCH   9  20
ATOM     20  C   UNL     1       2.262   3.795  21.210  0.00  0.00    +0.000 C 
BRANCH  20  21
ATOM     21  N   UNL     1       2.627   2.588  21.960  0.00  0.00    +0.000 NA
ATOM     22  H   UNL     1       2.028   1.819  21.652  0.00  0.00    +0.000 HD
ATOM     23  H   UNL     1       2.400   2.731  22.944  0.00  0.00    +0.000 HD
ENDBRANCH  20  21
ENDBRANCH   9  20
TORSDOF 3
ENDMDL
MODEL 4
REMARK VINA RESULT:      -7.5      3.712      6.634
REMARK  Name = 
REMARK  4 active torsions:
REMARK  status: ('A' for Active; 'I' for Inactive)
REMARK    1  A    between atoms: C_1  and  C_2
REMARK    2  A    between atoms: C_5  and  C_6
REMARK    3  A    between atoms: C_14  and  C_15
REMARK    4  A    between atoms: C_15  and  N_16
REMARK                            x       y       z     vdW  Elec       q    Type
REMARK                         _______ _______ _______ _____ _____    ______ ____
ROOT
ATOM      1  C   UNL     1       2.253   7.227  19.491  0.00  0.00    +0.000 A 
ATOM      2  C   UNL     1       2.963   7.416  18.291  0.00  0.00    +0.000 A 
ATOM      3  C   UNL     1       3.602   6.352  17.646  0.00  0.00    +0.000 A 
ATOM      4  C   UNL     1       3.561   5.076  18.207  0.00  0.00    +0.000 A 
ATOM      5  C   UNL     1       4.188   3.936  17.520  0.00  0.00    +0.000 A 
ATOM      6  O   UNL     1       4.759   4.076  16.443  0.00  0.00    +0.000 OA
ATOM      7  N   UNL     1       4.079   2.719  18.146  0.00  0.00    +0.000 N 
ATOM      8  N   UNL     1       3.521   2.491  19.366  0.00  0.00    +0.000 NA
ATOM      9  C   UNL     1       2.966   3.493  19.987  0.00  0.00    +0.000 A 
ATOM     10  C   UNL     1       2.908   4.862  19.415  0.00  0.00    +0.000 A 
ATOM     11  C   UNL     1       2.244   5.929  20.039  0.00  0.00    +0.000 A 
ATOM     12  H   UNL     1       4.499   1.919  17.682  0.00  0.00    +0.000 HD
ENDROOT
BRANCH   1  17
ATOM     13  C   UNL     1      -0.641  11.433  22.166  0.00  0.00    +0.000 C 
ATOM     14  C   UNL     1       0.123  10.372  21.435  0.00  0.00    +0.000 A 
ATOM     15  C   UNL     1       0.334  10.455  20.066  0.00  0.00    +0.000 A 
ATOM     16  C   UNL     1       1.036   9.434  19.426  0.00  0.00    +0.000 A 
ATOM     17  C   UNL     1       1.531   8.339  20.145  0.00  0.00    +0.000 A 
ATOM     18  C   UNL     1       1.271   8.364  21.520  0.00  0.00    +0.000 A 
ATOM     19  N   UNL     1       0.584   9.337  22.171  0.00  0.00    +0.000 NA
ENDBRANCH   1  17
BRANCH   9  20
ATOM     20  C   UNL     1       2.384   3.221  21.372  0.00  0.00    +0.000 C 
BRANCH  20  21
ATOM     21  N   UNL     1       0.981   2.811  21.250  0.00  0.00    +0.000 NA
ATOM     22  H   UNL     1       0.933   1.988  20.646  0.00  0.00    +0.000 HD
ATOM     23  H   UNL     1       0.466   3.541  20.756  0.00  0.00    +0.000 HD
ENDBRANCH  20  21
ENDBRANCH   9  20
TORSDOF 3
ENDMDL
MODEL 5
REMARK VINA RESULT:      -7.4      3.887      6.338
REMARK  Name = 
REMARK  4 active torsions:
REMARK  status: ('A' for Active; 'I' for Inactive)
REMARK    1  A    between atoms: C_1  and  C_2
REMARK    2  A    between atoms: C_5  and  C_6
REMARK    3  A    between atoms: C_14  and  C_15
REMARK    4  A    between atoms: C_15  and  N_16
REMARK                            x       y       z     vdW  Elec       q    Type
REMARK                         _______ _______ _______ _____ _____    ______ ____
ROOT
ATOM      1  C   UNL     1       2.430   7.497  18.847  0.00  0.00    +0.000 A 
ATOM      2  C   UNL     1       3.361   7.555  17.794  0.00  0.00    +0.000 A 
ATOM      3  C   UNL     1       4.130   6.442  17.438  0.00  0.00    +0.000 A 
ATOM      4  C   UNL     1       3.996   5.250  18.151  0.00  0.00    +0.000 A 
ATOM      5  C   UNL     1       4.763   4.057  17.762  0.00  0.00    +0.000 A 
ATOM      6  O   UNL     1       5.534   4.076  16.808  0.00  0.00    +0.000 OA
ATOM      7  N   UNL     1       4.548   2.929  18.515  0.00  0.00    +0.000 N 
ATOM      8  N   UNL     1       3.761   2.841  19.622  0.00  0.00    +0.000 NA
ATOM      9  C   UNL     1       3.081   3.893  19.980  0.00  0.00    +0.000 A 
ATOM     10  C   UNL     1       3.118   5.171  19.225  0.00  0.00    +0.000 A 
ATOM     11  C   UNL     1       2.329   6.283  19.556  0.00  0.00    +0.000 A 
ATOM     12  H   UNL     1       5.062   2.092  18.256  0.00  0.00    +0.000 HD
ENDROOT
BRANCH   1  17
ATOM     13  C   UNL     1      -0.793  12.120  20.056  0.00  0.00    +0.000 C 
ATOM     14  C   UNL     1       0.023  10.895  19.780  0.00  0.00    +0.000 A 
ATOM     15  C   UNL     1       0.307   9.981  20.785  0.00  0.00    +0.000 A 
ATOM     16  C   UNL     1       1.087   8.864  20.485  0.00  0.00    +0.000 A 
ATOM     17  C   UNL     1       1.577   8.655  19.189  0.00  0.00    +0.000 A 
ATOM     18  C   UNL     1       1.220   9.632  18.254  0.00  0.00    +0.000 A 
ATOM     19  N   UNL     1       0.471  10.734  18.516  0.00  0.00    +0.000 NA
ENDBRANCH   1  17
BRANCH   9  20
ATOM     20  C   UNL     1       2.238   3.782  21.249  0.00  0.00    +0.000 C 
BRANCH  20  21
ATOM     21  N   UNL     1       2.599   2.564  21.981  0.00  0.00    +0.000 NA
ATOM     22  H   UNL     1       1.825   1.900  21.912  0.00  0.00    +0.000 HD
ATOM     23  H   UNL     1       2.677   2.787  22.974  0.00  0.00    +0.000 HD
ENDBRANCH  20  21
ENDBRANCH   9  20
TORSDOF 3
ENDMDL
MODEL 6
REMARK VINA RESULT:      -7.4      4.103      7.141
REMARK  Name = 
REMARK  4 active torsions:
REMARK  status: ('A' for Active; 'I' for Inactive)
REMARK    1  A    between atoms: C_1  and  C_2
REMARK    2  A    between atoms: C_5  and  C_6
REMARK    3  A    between atoms: C_14  and  C_15
REMARK    4  A    between atoms: C_15  and  N_16
REMARK                            x       y       z     vdW  Elec       q    Type
REMARK                         _______ _______ _______ _____ _____    ______ ____
ROOT
ATOM      1  C   UNL     1       1.794   7.713  19.921  0.00  0.00    +0.000 A 
ATOM      2  C   UNL     1       2.446   8.031  18.715  0.00  0.00    +0.000 A 
ATOM      3  C   UNL     1       3.129   7.059  17.976  0.00  0.00    +0.000 A 
ATOM      4  C   UNL     1       3.190   5.747  18.446  0.00  0.00    +0.000 A 
ATOM      5  C   UNL     1       3.864   4.702  17.660  0.00  0.00    +0.000 A 
ATOM      6  O   UNL     1       4.385   4.953  16.578  0.00  0.00    +0.000 OA
ATOM      7  N   UNL     1       3.856   3.440  18.201  0.00  0.00    +0.000 N 
ATOM      8  N   UNL     1       3.357   3.092  19.418  0.00  0.00    +0.000 NA
ATOM      9  C   UNL     1       2.762   4.009  20.126  0.00  0.00    +0.000 A 
ATOM     10  C   UNL     1       2.595   5.408  19.655  0.00  0.00    +0.000 A 
ATOM     11  C   UNL     1       1.887   6.382  20.375  0.00  0.00    +0.000 A 
ATOM     12  H   UNL     1       4.308   2.703  17.668  0.00  0.00    +0.000 HD
ENDROOT
BRANCH   1  17
ATOM     13  C   UNL     1      -1.128  11.801  22.744  0.00  0.00    +0.000 C 
ATOM     14  C   UNL     1      -0.380  10.706  22.046  0.00  0.00    +0.000 A 
ATOM     15  C   UNL     1       0.119   9.619  22.749  0.00  0.00    +0.000 A 
ATOM     16  C   UNL     1       0.825   8.633  22.058  0.00  0.00    +0.000 A 
ATOM     17  C   UNL     1       1.026   8.726  20.675  0.00  0.00    +0.000 A 
ATOM     18  C   UNL     1       0.469   9.857  20.068  0.00  0.00    +0.000 A 
ATOM     19  N   UNL     1      -0.214  10.838  20.712  0.00  0.00    +0.000 NA
ENDBRANCH   1  17
BRANCH   9  20
ATOM     20  C   UNL     1       2.248   3.604  21.506  0.00  0.00    +0.000 C 
BRANCH  20  21
ATOM     21  N   UNL     1       1.017   2.819  21.368  0.00  0.00    +0.000 NA
ATOM     22  H   UNL     1       0.223   3.411  21.622  0.00  0.00    +0.000 HD
ATOM     23  H   UNL     1       1.026   2.067  22.057  0.00  0.00    +0.000 HD
ENDBRANCH  20  21
ENDBRANCH   9  20
TORSDOF 3
ENDMDL
MODEL 7
REMARK VINA RESULT:      -7.3      3.923      6.348
REMARK  Name = 
REMARK  4 active torsions:
REMARK  status: ('A' for Active; 'I' for Inactive)
REMARK    1  A    between atoms: C_1  and  C_2
REMARK    2  A    between atoms: C_5  and  C_6
REMARK    3  A    between atoms: C_14  and  C_15
REMARK    4  A    between atoms: C_15  and  N_16
REMARK                            x       y       z     vdW  Elec       q    Type
REMARK                         _______ _______ _______ _____ _____    ______ ____
ROOT
ATOM      1  C   UNL     1       2.756   7.156  18.290  0.00  0.00    +0.000 A 
ATOM      2  C   UNL     1       3.903   7.424  17.520  0.00  0.00    +0.000 A 
ATOM      3  C   UNL     1       4.687   6.392  16.995  0.00  0.00    +0.000 A 
ATOM      4  C   UNL     1       4.347   5.063  17.252  0.00  0.00    +0.000 A 
ATOM      5  C   UNL     1       5.133   3.964  16.671  0.00  0.00    +0.000 A 
ATOM      6  O   UNL     1       6.100   4.184  15.948  0.00  0.00    +0.000 OA
ATOM      7  N   UNL     1       4.708   2.694  16.970  0.00  0.00    +0.000 N 
ATOM      8  N   UNL     1       3.688   2.366  17.809  0.00  0.00    +0.000 NA
ATOM      9  C   UNL     1       2.988   3.330  18.335  0.00  0.00    +0.000 A 
ATOM     10  C   UNL     1       3.247   4.764  18.046  0.00  0.00    +0.000 A 
ATOM     11  C   UNL     1       2.449   5.804  18.544  0.00  0.00    +0.000 A 
ATOM     12  H   UNL     1       5.233   1.922  16.570  0.00  0.00    +0.000 HD
ENDROOT
BRANCH   1  17
ATOM     13  C   UNL     1      -0.514  11.522  20.153  0.00  0.00    +0.000 C 
ATOM     14  C   UNL     1       0.320  10.360  19.706  0.00  0.00    +0.000 A 
ATOM     15  C   UNL     1       0.736   9.389  20.607  0.00  0.00    +0.000 A 
ATOM     16  C   UNL     1       1.526   8.335  20.148  0.00  0.00    +0.000 A 
ATOM     17  C   UNL     1       1.896   8.245  18.800  0.00  0.00    +0.000 A 
ATOM     18  C   UNL     1       1.411   9.271  17.981  0.00  0.00    +0.000 A 
ATOM     19  N   UNL     1       0.649  10.314  18.397  0.00  0.00    +0.000 NA
ENDBRANCH   1  17
BRANCH   9  20
ATOM     20  C   UNL     1       1.876   2.938  19.306  0.00  0.00    +0.000 C 
BRANCH  20  21
ATOM     21  N   UNL     1       0.705   2.468  18.559  0.00  0.00    +0.000 NA
ATOM     22  H   UNL     1       1.028   1.956  17.735  0.00  0.00    +0.000 HD
ATOM     23  H   UNL     1       0.200   3.276  18.195  0.00  0.00    +0.000 HD
ENDBRANCH  20  21
ENDBRANCH   9  20
TORSDOF 3
ENDMDL
MODEL 8
REMARK VINA RESULT:      -7.3      1.976      2.927
REMARK  Name = 
REMARK  4 active torsions:
REMARK  status: ('A' for Active; 'I' for Inactive)
REMARK    1  A    between atoms: C_1  and  C_2
REMARK    2  A    between atoms: C_5  and  C_6
REMARK    3  A    between atoms: C_14  and  C_15
REMARK    4  A    between atoms: C_15  and  N_16
REMARK                            x       y       z     vdW  Elec       q    Type
REMARK                         _______ _______ _______ _____ _____    ______ ____
ROOT
ATOM      1  C   UNL     1       4.462   3.949  16.994  0.00  0.00    +0.000 A 
ATOM      2  C   UNL     1       4.147   2.607  17.276  0.00  0.00    +0.000 A 
ATOM      3  C   UNL     1       3.189   2.269  18.237  0.00  0.00    +0.000 A 
ATOM      4  C   UNL     1       2.540   3.276  18.953  0.00  0.00    +0.000 A 
ATOM      5  C   UNL     1       1.497   2.942  19.935  0.00  0.00    +0.000 A 
ATOM      6  O   UNL     1       1.170   1.779  20.148  0.00  0.00    +0.000 OA
ATOM      7  N   UNL     1       0.907   4.004  20.575  0.00  0.00    +0.000 N 
ATOM      8  N   UNL     1       1.254   5.313  20.443  0.00  0.00    +0.000 NA
ATOM      9  C   UNL     1       2.180   5.622  19.580  0.00  0.00    +0.000 A 
ATOM     10  C   UNL     1       2.859   4.610  18.731  0.00  0.00    +0.000 A 
ATOM     11  C   UNL     1       3.800   4.941  17.745  0.00  0.00    +0.000 A 
ATOM     12  H   UNL     1       0.178   3.793  21.250  0.00  0.00    +0.000 HD
ENDROOT
BRANCH   1  17
ATOM     13  C   UNL     1       8.260   5.535  12.959  0.00  0.00    +0.000 C 
ATOM     14  C   UNL     1       7.266   5.080  13.983  0.00  0.00    +0.000 A 
ATOM     15  C   UNL     1       6.282   4.155  13.665  0.00  0.00    +0.000 A 
ATOM     16  C   UNL     1       5.367   3.775  14.647  0.00  0.00    +0.000 A 
ATOM     17  C   UNL     1       5.435   4.309  15.940  0.00  0.00    +0.000 A 
ATOM     18  C   UNL     1       6.473   5.223  16.152  0.00  0.00    +0.000 A 
ATOM     19  N   UNL     1       7.372   5.620  15.216  0.00  0.00    +0.000 NA
ENDBRANCH   1  17
BRANCH   9  20
ATOM     20  C   UNL     1       2.580   7.092  19.480  0.00  0.00    +0.000 C 
BRANCH  20  21
ATOM     21  N   UNL     1       1.971   7.849  20.578  0.00  0.00    +0.000 NA
ATOM     22  H   UNL     1       0.960   7.700  20.556  0.00  0.00    +0.000 HD
ATOM     23  H   UNL     1       2.102   8.846  20.403  0.00  0.00    +0.000 HD
ENDBRANCH  20  21
ENDBRANCH   9  20
TORSDOF 3
ENDMDL
MODEL 9
REMARK VINA RESULT:      -7.3      3.757      6.905
REMARK  Name = 
REMARK  4 active torsions:
REMARK  status: ('A' for Active; 'I' for Inactive)
REMARK    1  A    between atoms: C_1  and  C_2
REMARK    2  A    between atoms: C_5  and  C_6
REMARK    3  A    between atoms: C_14  and  C_15
REMARK    4  A    between atoms: C_15  and  N_16
REMARK                            x       y       z     vdW  Elec       q    Type
REMARK                         _______ _______ _______ _____ _____    ______ ____
ROOT
ATOM      1  C   UNL     1       2.115   6.854  19.926  0.00  0.00    +0.000 A 
ATOM      2  C   UNL     1       1.782   5.658  20.589  0.00  0.00    +0.000 A 
ATOM      3  C   UNL     1       2.380   4.442  20.244  0.00  0.00    +0.000 A 
ATOM      4  C   UNL     1       3.312   4.397  19.207  0.00  0.00    +0.000 A 
ATOM      5  C   UNL     1       3.985   3.136  18.860  0.00  0.00    +0.000 A 
ATOM      6  O   UNL     1       3.749   2.098  19.470  0.00  0.00    +0.000 OA
ATOM      7  N   UNL     1       4.897   3.200  17.836  0.00  0.00    +0.000 N 
ATOM      8  N   UNL     1       5.170   4.292  17.071  0.00  0.00    +0.000 NA
ATOM      9  C   UNL     1       4.577   5.414  17.365  0.00  0.00    +0.000 A 
ATOM     10  C   UNL     1       3.631   5.551  18.501  0.00  0.00    +0.000 A 
ATOM     11  C   UNL     1       3.049   6.772  18.873  0.00  0.00    +0.000 A 
ATOM     12  H   UNL     1       5.379   2.340  17.588  0.00  0.00    +0.000 HD
ENDROOT
BRANCH   1  17
ATOM     13  C   UNL     1      -0.073  11.992  21.351  0.00  0.00    +0.000 C 
ATOM     14  C   UNL     1       0.473  10.637  21.020  0.00  0.00    +0.000 A 
ATOM     15  C   UNL     1       0.640   9.673  22.003  0.00  0.00    +0.000 A 
ATOM     16  C   UNL     1       1.170   8.431  21.651  0.00  0.00    +0.000 A 
ATOM     17  C   UNL     1       1.525   8.149  20.325  0.00  0.00    +0.000 A 
ATOM     18  C   UNL     1       1.302   9.189  19.416  0.00  0.00    +0.000 A 
ATOM     19  N   UNL     1       0.798  10.411  19.729  0.00  0.00    +0.000 NA
ENDBRANCH   1  17
BRANCH   9  20
ATOM     20  C   UNL     1       4.868   6.614  16.467  0.00  0.00    +0.000 C 
BRANCH  20  21
ATOM     21  N   UNL     1       5.570   6.172  15.257  0.00  0.00    +0.000 NA
ATOM     22  H   UNL     1       4.996   5.471  14.784  0.00  0.00    +0.000 HD
ATOM     23  H   UNL     1       6.423   5.684  15.531  0.00  0.00    +0.000 HD
ENDBRANCH  20  21
ENDBRANCH   9  20
TORSDOF 3
ENDMDL
