MODEL 1
REMARK VINA RESULT:      -8.2      0.000      0.000
REMARK  Name = 
REMARK  8 active torsions:
REMARK  status: ('A' for Active; 'I' for Inactive)
REMARK    1  A    between atoms: C_1  and  C_2
REMARK    2  A    between atoms: C_2  and  N_3
REMARK    3  A    between atoms: C_2  and  C_12
REMARK    4  A    between atoms: N_3  and  C_4
REMARK    5  A    between atoms: C_14  and  C_15
REMARK    6  A    between atoms: N_17  and  C_18
REMARK    7  A    between atoms: N_17  and  C_19
REMARK    8  A    between atoms: C_25  and  N_26
REMARK                            x       y       z     vdW  Elec       q    Type
REMARK                         _______ _______ _______ _____ _____    ______ ____
ROOT
ATOM      1  C   UNL     1      -0.351  12.259  20.249  0.00  0.00    +0.000 A 
ATOM      2  C   UNL     1      -1.086  13.149  21.074  0.00  0.00    +0.000 A 
ATOM      3  C   UNL     1      -1.392  12.863  22.422  0.00  0.00    +0.000 A 
ATOM      4  C   UNL     1      -0.959  11.651  22.942  0.00  0.00    +0.000 A 
ATOM      5  C   UNL     1      -0.158  10.804  22.165  0.00  0.00    +0.000 A 
ATOM      6  C   UNL     1       0.341   9.565  22.764  0.00  0.00    +0.000 A 
ATOM      7  O   UNL     1       0.188   9.304  23.948  0.00  0.00    +0.000 OA
ATOM      8  C   UNL     1       1.027   8.638  21.866  0.00  0.00    +0.000 A 
ATOM      9  C   UNL     1       1.242   8.955  20.577  0.00  0.00    +0.000 A 
ATOM     10  O   UNL     1       0.869  10.199  20.056  0.00  0.00    +0.000 OA
ATOM     11  C   UNL     1       0.142  11.078  20.828  0.00  0.00    +0.000 A 
ENDROOT
BRANCH   9  12
ATOM     12  N   UNL     1       1.825   8.063  19.675  0.00  0.00    +0.000 N 
ATOM     13  C   UNL     1       2.009   6.627  19.979  0.00  0.00    +0.000 C 
ATOM     14  C   UNL     1       3.340   6.128  19.393  0.00  0.00    +0.000 C 
ATOM     15  O   UNL     1       3.423   6.373  17.979  0.00  0.00    +0.000 OA
ATOM     16  C   UNL     1       3.310   7.779  17.716  0.00  0.00    +0.000 C 
ATOM     17  C   UNL     1       1.975   8.339  18.226  0.00  0.00    +0.000 C 
ENDBRANCH   9  12
BRANCH   3  18
ATOM     18  C   UNL     1      -2.306  13.800  23.143  0.00  0.00    +0.000 C 
ATOM     19  O   UNL     1      -1.747  14.559  23.943  0.00  0.00    +0.000 OA
ATOM     20  N   UNL     1      -3.691  13.843  22.955  0.00  0.00    +0.000 N 
ATOM     21  C   UNL     1      -4.538  12.942  22.178  0.00  0.00    +0.000 C 
ATOM     22  C   UNL     1      -4.439  14.831  23.725  0.00  0.00    +0.000 C 
ENDBRANCH   3  18
BRANCH   1  24
ATOM     23  C   UNL     1       1.250  12.845  18.435  0.00  0.00    +0.000 C 
ATOM     24  C   UNL     1      -0.224  12.543  18.746  0.00  0.00    +0.000 C 
BRANCH  24  25
ATOM     25  N   UNL     1      -0.702  11.378  17.985  0.00  0.00    +0.000 N 
ATOM     26  H   UNL     1      -0.339  10.505  18.361  0.00  0.00    +0.000 HD
BRANCH  25  27
ATOM     27  C   UNL     1      -2.035  11.243  17.580  0.00  0.00    +0.000 A 
ATOM     28  C   UNL     1      -3.135  11.651  18.341  0.00  0.00    +0.000 A 
ATOM     29  C   UNL     1      -4.441  11.566  17.839  0.00  0.00    +0.000 A 
ATOM     30 CL   UNL     1      -5.762  12.084  18.816  0.00  0.00    +0.000 Cl
ATOM     31  C   UNL     1      -4.684  11.078  16.563  0.00  0.00    +0.000 A 
ATOM     32  C   UNL     1      -3.600  10.694  15.784  0.00  0.00    +0.000 A 
ATOM     33 CL   UNL     1      -3.874  10.091  14.193  0.00  0.00    +0.000 Cl
ATOM     34  C   UNL     1      -2.294  10.795  16.273  0.00  0.00    +0.000 A 
ENDBRANCH  25  27
ENDBRANCH  24  25
ENDBRANCH   1  24
TORSDOF 5
ENDMDL
MODEL 2
REMARK VINA RESULT:      -8.2      0.156      1.570
REMARK  Name = 
REMARK  8 active torsions:
REMARK  status: ('A' for Active; 'I' for Inactive)
REMARK    1  A    between atoms: C_1  and  C_2
REMARK    2  A    between atoms: C_2  and  N_3
REMARK    3  A    between atoms: C_2  and  C_12
REMARK    4  A    between atoms: N_3  and  C_4
REMARK    5  A    between atoms: C_14  and  C_15
REMARK    6  A    between atoms: N_17  and  C_18
REMARK    7  A    between atoms: N_17  and  C_19
REMARK    8  A    between atoms: C_25  and  N_26
REMARK                            x       y       z     vdW  Elec       q    Type
REMARK                         _______ _______ _______ _____ _____    ______ ____
ROOT
ATOM      1  C   UNL     1      -0.406  12.395  20.298  0.00  0.00    +0.000 A 
ATOM      2  C   UNL     1      -1.134  13.279  21.135  0.00  0.00    +0.000 A 
ATOM      3  C   UNL     1      -1.447  12.975  22.478  0.00  0.00    +0.000 A 
ATOM      4  C   UNL     1      -1.026  11.750  22.979  0.00  0.00    +0.000 A 
ATOM      5  C   UNL     1      -0.231  10.908  22.191  0.00  0.00    +0.000 A 
ATOM      6  C   UNL     1       0.254   9.655  22.771  0.00  0.00    +0.000 A 
ATOM      7  O   UNL     1       0.096   9.377  23.951  0.00  0.00    +0.000 OA
ATOM      8  C   UNL     1       0.934   8.736  21.861  0.00  0.00    +0.000 A 
ATOM      9  C   UNL     1       1.156   9.071  20.577  0.00  0.00    +0.000 A 
ATOM     10  O   UNL     1       0.796  10.327  20.075  0.00  0.00    +0.000 OA
ATOM     11  C   UNL     1       0.075  11.200  20.860  0.00  0.00    +0.000 A 
ENDROOT
BRANCH   9  12
ATOM     12  N   UNL     1       1.732   8.188  19.662  0.00  0.00    +0.000 N 
ATOM     13  C   UNL     1       1.940   6.754  19.960  0.00  0.00    +0.000 C 
ATOM     14  C   UNL     1       3.266   6.273  19.348  0.00  0.00    +0.000 C 
ATOM     15  O   UNL     1       3.319   6.521  17.933  0.00  0.00    +0.000 OA
ATOM     16  C   UNL     1       3.183   7.926  17.675  0.00  0.00    +0.000 C 
ATOM     17  C   UNL     1       1.851   8.468  18.211  0.00  0.00    +0.000 C 
ENDBRANCH   9  12
BRANCH   3  18
ATOM     18  C   UNL     1      -2.353  13.908  23.211  0.00  0.00    +0.000 C 
ATOM     19  O   UNL     1      -1.779  14.725  23.940  0.00  0.00    +0.000 OA
ATOM     20  N   UNL     1      -3.748  13.889  23.108  0.00  0.00    +0.000 N 
ATOM     21  C   UNL     1      -4.601  12.920  22.427  0.00  0.00    +0.000 C 
ATOM     22  C   UNL     1      -4.489  14.882  23.878  0.00  0.00    +0.000 C 
ENDBRANCH   3  18
BRANCH   1  24
ATOM     23  C   UNL     1       1.196  13.053  18.509  0.00  0.00    +0.000 C 
ATOM     24  C   UNL     1      -0.272  12.702  18.800  0.00  0.00    +0.000 C 
BRANCH  24  25
ATOM     25  N   UNL     1      -0.705  11.532  18.020  0.00  0.00    +0.000 N 
ATOM     26  H   UNL     1      -0.388  10.660  18.436  0.00  0.00    +0.000 HD
BRANCH  25  27
ATOM     27  C   UNL     1      -2.002  11.411  17.510  0.00  0.00    +0.000 A 
ATOM     28  C   UNL     1      -2.309  10.891  16.248  0.00  0.00    +0.000 A 
ATOM     29  C   UNL     1      -3.635  10.717  15.833  0.00  0.00    +0.000 A 
ATOM     30 CL   UNL     1      -3.959  10.071  14.269  0.00  0.00    +0.000 Cl
ATOM     31  C   UNL     1      -4.693  11.052  16.667  0.00  0.00    +0.000 A 
ATOM     32  C   UNL     1      -4.407  11.544  17.934  0.00  0.00    +0.000 A 
ATOM     33 CL   UNL     1      -5.702  11.961  18.991  0.00  0.00    +0.000 Cl
ATOM     34  C   UNL     1      -3.084  11.701  18.359  0.00  0.00    +0.000 A 
ENDBRANCH  25  27
ENDBRANCH  24  25
ENDBRANCH   1  24
TORSDOF 5
ENDMDL
MODEL 3
REMARK VINA RESULT:      -8.1      2.539      3.890
REMARK  Name = 
REMARK  8 active torsions:
REMARK  status: ('A' for Active; 'I' for Inactive)
REMARK    1  A    between atoms: C_1  and  C_2
REMARK    2  A    between atoms: C_2  and  N_3
REMARK    3  A    between atoms: C_2  and  C_12
REMARK    4  A    between atoms: N_3  and  C_4
REMARK    5  A    between atoms: C_14  and  C_15
REMARK    6  A    between atoms: N_17  and  C_18
REMARK    7  A    between atoms: N_17  and  C_19
REMARK    8  A    between atoms: C_25  and  N_26
REMARK                            x       y       z     vdW  Elec       q    Type
REMARK                         _______ _______ _______ _____ _____    ______ ____
ROOT
ATOM      1  C   UNL     1      -1.162  11.443  19.946  0.00  0.00    +0.000 A 
ATOM      2  C   UNL     1      -1.987  12.265  20.757  0.00  0.00    +0.000 A 
ATOM      3  C   UNL     1      -2.025  12.157  22.164  0.00  0.00    +0.000 A 
ATOM      4  C   UNL     1      -1.222  11.194  22.761  0.00  0.00    +0.000 A 
ATOM      5  C   UNL     1      -0.338  10.438  21.980  0.00  0.00    +0.000 A 
ATOM      6  C   UNL     1       0.544   9.480  22.646  0.00  0.00    +0.000 A 
ATOM      7  O   UNL     1       0.625   9.404  23.864  0.00  0.00    +0.000 OA
ATOM      8  C   UNL     1       1.323   8.599  21.779  0.00  0.00    +0.000 A 
ATOM      9  C   UNL     1       1.273   8.725  20.441  0.00  0.00    +0.000 A 
ATOM     10  O   UNL     1       0.520   9.732  19.827  0.00  0.00    +0.000 OA
ATOM     11  C   UNL     1      -0.303  10.535  20.587  0.00  0.00    +0.000 A 
ENDROOT
BRANCH   9  12
ATOM     12  N   UNL     1       1.944   7.853  19.582  0.00  0.00    +0.000 N 
ATOM     13  C   UNL     1       2.173   6.429  19.910  0.00  0.00    +0.000 C 
ATOM     14  C   UNL     1       3.555   5.984  19.404  0.00  0.00    +0.000 C 
ATOM     15  O   UNL     1       3.706   6.221  17.995  0.00  0.00    +0.000 OA
ATOM     16  C   UNL     1       3.547   7.618  17.711  0.00  0.00    +0.000 C 
ATOM     17  C   UNL     1       2.162   8.123  18.140  0.00  0.00    +0.000 C 
ENDBRANCH   9  12
BRANCH   3  18
ATOM     18  C   UNL     1      -3.047  12.961  22.898  0.00  0.00    +0.000 C 
ATOM     19  O   UNL     1      -4.191  12.493  22.877  0.00  0.00    +0.000 OA
ATOM     20  N   UNL     1      -2.770  14.158  23.568  0.00  0.00    +0.000 N 
ATOM     21  C   UNL     1      -1.532  14.934  23.580  0.00  0.00    +0.000 C 
ATOM     22  C   UNL     1      -3.878  14.813  24.253  0.00  0.00    +0.000 C 
ENDBRANCH   3  18
BRANCH   1  24
ATOM     23  C   UNL     1      -2.706  10.929  18.062  0.00  0.00    +0.000 C 
ATOM     24  C   UNL     1      -1.316  11.480  18.420  0.00  0.00    +0.000 C 
BRANCH  24  25
ATOM     25  N   UNL     1      -1.152  12.862  17.944  0.00  0.00    +0.000 N 
ATOM     26  H   UNL     1      -2.033  13.370  17.941  0.00  0.00    +0.000 HD
BRANCH  25  27
ATOM     27  C   UNL     1      -0.096  13.678  18.365  0.00  0.00    +0.000 A 
ATOM     28  C   UNL     1       1.257  13.374  18.182  0.00  0.00    +0.000 A 
ATOM     29  C   UNL     1       2.264  14.276  18.550  0.00  0.00    +0.000 A 
ATOM     30 CL   UNL     1       3.916  13.854  18.301  0.00  0.00    +0.000 Cl
ATOM     31  C   UNL     1       1.949  15.508  19.106  0.00  0.00    +0.000 A 
ATOM     32  C   UNL     1       0.610  15.837  19.270  0.00  0.00    +0.000 A 
ATOM     33 CL   UNL     1       0.191  17.363  19.952  0.00  0.00    +0.000 Cl
ATOM     34  C   UNL     1      -0.399  14.948  18.886  0.00  0.00    +0.000 A 
ENDBRANCH  25  27
ENDBRANCH  24  25
ENDBRANCH   1  24
TORSDOF 5
ENDMDL
MODEL 4
REMARK VINA RESULT:      -7.9      2.538      3.633
REMARK  Name = 
REMARK  8 active torsions:
REMARK  status: ('A' for Active; 'I' for Inactive)
REMARK    1  A    between atoms: C_1  and  C_2
REMARK    2  A    between atoms: C_2  and  N_3
REMARK    3  A    between atoms: C_2  and  C_12
REMARK    4  A    between atoms: N_3  and  C_4
REMARK    5  A    between atoms: C_14  and  C_15
REMARK    6  A    between atoms: N_17  and  C_18
REMARK    7  A    between atoms: N_17  and  C_19
REMARK    8  A    between atoms: C_25  and  N_26
REMARK                            x       y       z     vdW  Elec       q    Type
REMARK                         _______ _______ _______ _____ _____    ______ ____
ROOT
ATOM      1  C   UNL     1      -1.134  11.473  20.092  0.00  0.00    +0.000 A 
ATOM      2  C   UNL     1      -1.946  12.288  20.923  0.00  0.00    +0.000 A 
ATOM      3  C   UNL     1      -1.981  12.152  22.327  0.00  0.00    +0.000 A 
ATOM      4  C   UNL     1      -1.189  11.167  22.902  0.00  0.00    +0.000 A 
ATOM      5  C   UNL     1      -0.317  10.416  22.103  0.00  0.00    +0.000 A 
ATOM      6  C   UNL     1       0.555   9.432  22.746  0.00  0.00    +0.000 A 
ATOM      7  O   UNL     1       0.638   9.330  23.962  0.00  0.00    +0.000 OA
ATOM      8  C   UNL     1       1.319   8.560  21.858  0.00  0.00    +0.000 A 
ATOM      9  C   UNL     1       1.267   8.714  20.523  0.00  0.00    +0.000 A 
ATOM     10  O   UNL     1       0.525   9.743  19.933  0.00  0.00    +0.000 OA
ATOM     11  C   UNL     1      -0.285  10.541  20.711  0.00  0.00    +0.000 A 
ENDROOT
BRANCH   9  12
ATOM     12  N   UNL     1       1.924   7.851  19.643  0.00  0.00    +0.000 N 
ATOM     13  C   UNL     1       2.141   6.419  19.945  0.00  0.00    +0.000 C 
ATOM     14  C   UNL     1       3.515   5.970  19.421  0.00  0.00    +0.000 C 
ATOM     15  O   UNL     1       3.660   6.232  18.016  0.00  0.00    +0.000 OA
ATOM     16  C   UNL     1       3.512   7.635  17.758  0.00  0.00    +0.000 C 
ATOM     17  C   UNL     1       2.135   8.146  18.206  0.00  0.00    +0.000 C 
ENDBRANCH   9  12
BRANCH   3  18
ATOM     18  C   UNL     1      -2.990  12.954  23.081  0.00  0.00    +0.000 C 
ATOM     19  O   UNL     1      -4.075  12.389  23.261  0.00  0.00    +0.000 OA
ATOM     20  N   UNL     1      -2.763  14.249  23.561  0.00  0.00    +0.000 N 
ATOM     21  C   UNL     1      -1.619  15.124  23.323  0.00  0.00    +0.000 C 
ATOM     22  C   UNL     1      -3.848  14.889  24.295  0.00  0.00    +0.000 C 
ENDBRANCH   3  18
BRANCH   1  24
ATOM     23  C   UNL     1      -2.600  10.830  18.185  0.00  0.00    +0.000 C 
ATOM     24  C   UNL     1      -1.293  11.543  18.568  0.00  0.00    +0.000 C 
BRANCH  24  25
ATOM     25  N   UNL     1      -1.309  12.952  18.141  0.00  0.00    +0.000 N 
ATOM     26  H   UNL     1      -2.224  13.376  18.271  0.00  0.00    +0.000 HD
BRANCH  25  27
ATOM     27  C   UNL     1      -0.283  13.845  18.467  0.00  0.00    +0.000 A 
ATOM     28  C   UNL     1      -0.479  15.070  19.114  0.00  0.00    +0.000 A 
ATOM     29  C   UNL     1       0.602  15.878  19.489  0.00  0.00    +0.000 A 
ATOM     30 CL   UNL     1       0.308  17.377  20.285  0.00  0.00    +0.000 Cl
ATOM     31  C   UNL     1       1.909  15.484  19.234  0.00  0.00    +0.000 A 
ATOM     32  C   UNL     1       2.123  14.258  18.618  0.00  0.00    +0.000 A 
ATOM     33 CL   UNL     1       3.735  13.743  18.296  0.00  0.00    +0.000 Cl
ATOM     34  C   UNL     1       1.047  13.440  18.259  0.00  0.00    +0.000 A 
ENDBRANCH  25  27
ENDBRANCH  24  25
ENDBRANCH   1  24
TORSDOF 5
ENDMDL
MODEL 5
REMARK VINA RESULT:      -7.9      0.807      1.914
REMARK  Name = 
REMARK  8 active torsions:
REMARK  status: ('A' for Active; 'I' for Inactive)
REMARK    1  A    between atoms: C_1  and  C_2
REMARK    2  A    between atoms: C_2  and  N_3
REMARK    3  A    between atoms: C_2  and  C_12
REMARK    4  A    between atoms: N_3  and  C_4
REMARK    5  A    between atoms: C_14  and  C_15
REMARK    6  A    between atoms: N_17  and  C_18
REMARK    7  A    between atoms: N_17  and  C_19
REMARK    8  A    between atoms: C_25  and  N_26
REMARK                            x       y       z     vdW  Elec       q    Type
REMARK                         _______ _______ _______ _____ _____    ______ ____
ROOT
ATOM      1  C   UNL     1      -0.380  12.343  20.265  0.00  0.00    +0.000 A 
ATOM      2  C   UNL     1      -1.105  13.245  21.086  0.00  0.00    +0.000 A 
ATOM      3  C   UNL     1      -1.420  12.966  22.434  0.00  0.00    +0.000 A 
ATOM      4  C   UNL     1      -1.004  11.750  22.958  0.00  0.00    +0.000 A 
ATOM      5  C   UNL     1      -0.212  10.890  22.186  0.00  0.00    +0.000 A 
ATOM      6  C   UNL     1       0.268   9.646  22.789  0.00  0.00    +0.000 A 
ATOM      7  O   UNL     1       0.107   9.390  23.974  0.00  0.00    +0.000 OA
ATOM      8  C   UNL     1       0.944   8.708  21.895  0.00  0.00    +0.000 A 
ATOM      9  C   UNL     1       1.168   9.018  20.607  0.00  0.00    +0.000 A 
ATOM     10  O   UNL     1       0.814  10.266  20.081  0.00  0.00    +0.000 OA
ATOM     11  C   UNL     1       0.096  11.157  20.849  0.00  0.00    +0.000 A 
ENDROOT
BRANCH   9  12
ATOM     12  N   UNL     1       1.742   8.117  19.708  0.00  0.00    +0.000 N 
ATOM     13  C   UNL     1       1.903   6.679  20.015  0.00  0.00    +0.000 C 
ATOM     14  C   UNL     1       3.230   6.159  19.436  0.00  0.00    +0.000 C 
ATOM     15  O   UNL     1       3.323   6.401  18.022  0.00  0.00    +0.000 OA
ATOM     16  C   UNL     1       3.232   7.808  17.757  0.00  0.00    +0.000 C 
ATOM     17  C   UNL     1       1.903   8.388  18.259  0.00  0.00    +0.000 C 
ENDBRANCH   9  12
BRANCH   3  18
ATOM     18  C   UNL     1      -2.323  13.917  23.150  0.00  0.00    +0.000 C 
ATOM     19  O   UNL     1      -3.512  13.582  23.179  0.00  0.00    +0.000 OA
ATOM     20  N   UNL     1      -1.892  15.104  23.752  0.00  0.00    +0.000 N 
ATOM     21  C   UNL     1      -0.575  15.733  23.696  0.00  0.00    +0.000 C 
ATOM     22  C   UNL     1      -2.899  15.914  24.428  0.00  0.00    +0.000 C 
ENDBRANCH   3  18
BRANCH   1  24
ATOM     23  C   UNL     1       1.230  12.939  18.462  0.00  0.00    +0.000 C 
ATOM     24  C   UNL     1      -0.244  12.622  18.763  0.00  0.00    +0.000 C 
BRANCH  24  25
ATOM     25  N   UNL     1      -0.702  11.448  18.003  0.00  0.00    +0.000 N 
ATOM     26  H   UNL     1      -0.422  10.577  18.446  0.00  0.00    +0.000 HD
BRANCH  25  27
ATOM     27  C   UNL     1      -1.994  11.358  17.473  0.00  0.00    +0.000 A 
ATOM     28  C   UNL     1      -2.293  10.847  16.205  0.00  0.00    +0.000 A 
ATOM     29  C   UNL     1      -3.616  10.705  15.769  0.00  0.00    +0.000 A 
ATOM     30 CL   UNL     1      -3.931  10.069  14.199  0.00  0.00    +0.000 Cl
ATOM     31  C   UNL     1      -4.679  11.063  16.587  0.00  0.00    +0.000 A 
ATOM     32  C   UNL     1      -4.401  11.546  17.860  0.00  0.00    +0.000 A 
ATOM     33 CL   UNL     1      -5.703  11.991  18.898  0.00  0.00    +0.000 Cl
ATOM     34  C   UNL     1      -3.082  11.672  18.306  0.00  0.00    +0.000 A 
ENDBRANCH  25  27
ENDBRANCH  24  25
ENDBRANCH   1  24
TORSDOF 5
ENDMDL
MODEL 6
REMARK VINA RESULT:      -7.8      2.513      3.851
REMARK  Name = 
REMARK  8 active torsions:
REMARK  status: ('A' for Active; 'I' for Inactive)
REMARK    1  A    between atoms: C_1  and  C_2
REMARK    2  A    between atoms: C_2  and  N_3
REMARK    3  A    between atoms: C_2  and  C_12
REMARK    4  A    between atoms: N_3  and  C_4
REMARK    5  A    between atoms: C_14  and  C_15
REMARK    6  A    between atoms: N_17  and  C_18
REMARK    7  A    between atoms: N_17  and  C_19
REMARK    8  A    between atoms: C_25  and  N_26
REMARK                            x       y       z     vdW  Elec       q    Type
REMARK                         _______ _______ _______ _____ _____    ______ ____
ROOT
ATOM      1  C   UNL     1      -1.146  11.602  19.933  0.00  0.00    +0.000 A 
ATOM      2  C   UNL     1      -1.960  12.450  20.728  0.00  0.00    +0.000 A 
ATOM      3  C   UNL     1      -2.025  12.347  22.134  0.00  0.00    +0.000 A 
ATOM      4  C   UNL     1      -1.262  11.362  22.747  0.00  0.00    +0.000 A 
ATOM      5  C   UNL     1      -0.388  10.577  21.983  0.00  0.00    +0.000 A 
ATOM      6  C   UNL     1       0.453   9.594  22.666  0.00  0.00    +0.000 A 
ATOM      7  O   UNL     1       0.511   9.518  23.885  0.00  0.00    +0.000 OA
ATOM      8  C   UNL     1       1.219   8.688  21.814  0.00  0.00    +0.000 A 
ATOM      9  C   UNL     1       1.197   8.812  20.475  0.00  0.00    +0.000 A 
ATOM     10  O   UNL     1       0.485   9.840  19.847  0.00  0.00    +0.000 OA
ATOM     11  C   UNL     1      -0.326  10.669  20.590  0.00  0.00    +0.000 A 
ENDROOT
BRANCH   9  12
ATOM     12  N   UNL     1       1.855   7.917  19.629  0.00  0.00    +0.000 N 
ATOM     13  C   UNL     1       2.057   6.494  19.976  0.00  0.00    +0.000 C 
ATOM     14  C   UNL     1       3.434   6.018  19.481  0.00  0.00    +0.000 C 
ATOM     15  O   UNL     1       3.594   6.236  18.069  0.00  0.00    +0.000 OA
ATOM     16  C   UNL     1       3.461   7.632  17.768  0.00  0.00    +0.000 C 
ATOM     17  C   UNL     1       2.083   8.167  18.185  0.00  0.00    +0.000 C 
ENDBRANCH   9  12
BRANCH   3  18
ATOM     18  C   UNL     1      -3.034  13.184  22.849  0.00  0.00    +0.000 C 
ATOM     19  O   UNL     1      -2.604  13.789  23.837  0.00  0.00    +0.000 OA
ATOM     20  N   UNL     1      -4.374  13.298  22.461  0.00  0.00    +0.000 N 
ATOM     21  C   UNL     1      -5.093  12.557  21.428  0.00  0.00    +0.000 C 
ATOM     22  C   UNL     1      -5.228  14.172  23.256  0.00  0.00    +0.000 C 
ENDBRANCH   3  18
BRANCH   1  24
ATOM     23  C   UNL     1      -2.669  11.121  18.023  0.00  0.00    +0.000 C 
ATOM     24  C   UNL     1      -1.273  11.639  18.404  0.00  0.00    +0.000 C 
BRANCH  24  25
ATOM     25  N   UNL     1      -1.068  13.017  17.929  0.00  0.00    +0.000 N 
ATOM     26  H   UNL     1      -1.936  13.545  17.912  0.00  0.00    +0.000 HD
BRANCH  25  27
ATOM     27  C   UNL     1       0.001  13.808  18.366  0.00  0.00    +0.000 A 
ATOM     28  C   UNL     1       1.349  13.483  18.182  0.00  0.00    +0.000 A 
ATOM     29  C   UNL     1       2.370  14.362  18.567  0.00  0.00    +0.000 A 
ATOM     30 CL   UNL     1       4.015  13.916  18.316  0.00  0.00    +0.000 Cl
ATOM     31  C   UNL     1       2.075  15.590  19.142  0.00  0.00    +0.000 A 
ATOM     32  C   UNL     1       0.741  15.940  19.308  0.00  0.00    +0.000 A 
ATOM     33 CL   UNL     1       0.347  17.461  20.013  0.00  0.00    +0.000 Cl
ATOM     34  C   UNL     1      -0.281  15.074  18.907  0.00  0.00    +0.000 A 
ENDBRANCH  25  27
ENDBRANCH  24  25
ENDBRANCH   1  24
TORSDOF 5
ENDMDL
MODEL 7
REMARK VINA RESULT:      -7.6      2.851      7.340
REMARK  Name = 
REMARK  8 active torsions:
REMARK  status: ('A' for Active; 'I' for Inactive)
REMARK    1  A    between atoms: C_1  and  C_2
REMARK    2  A    between atoms: C_2  and  N_3
REMARK    3  A    between atoms: C_2  and  C_12
REMARK    4  A    between atoms: N_3  and  C_4
REMARK    5  A    between atoms: C_14  and  C_15
REMARK    6  A    between atoms: N_17  and  C_18
REMARK    7  A    between atoms: N_17  and  C_19
REMARK    8  A    between atoms: C_25  and  N_26
REMARK                            x       y       z     vdW  Elec       q    Type
REMARK                         _______ _______ _______ _____ _____    ______ ____
ROOT
ATOM      1  C   UNL     1      -0.640  11.010  18.942  0.00  0.00    +0.000 A 
ATOM      2  C   UNL     1       0.272  10.096  18.354  0.00  0.00    +0.000 A 
ATOM      3  C   UNL     1       1.052   9.199  19.115  0.00  0.00    +0.000 A 
ATOM      4  C   UNL     1       0.915   9.233  20.496  0.00  0.00    +0.000 A 
ATOM      5  C   UNL     1      -0.046  10.067  21.083  0.00  0.00    +0.000 A 
ATOM      6  C   UNL     1      -0.214  10.031  22.537  0.00  0.00    +0.000 A 
ATOM      7  O   UNL     1       0.363   9.214  23.241  0.00  0.00    +0.000 OA
ATOM      8  C   UNL     1      -1.104  11.035  23.115  0.00  0.00    +0.000 A 
ATOM      9  C   UNL     1      -1.780  11.894  22.331  0.00  0.00    +0.000 A 
ATOM     10  O   UNL     1      -1.702  11.828  20.935  0.00  0.00    +0.000 OA
ATOM     11  C   UNL     1      -0.814  10.963  20.335  0.00  0.00    +0.000 A 
ENDROOT
BRANCH   9  12
ATOM     12  N   UNL     1      -2.578  12.914  22.852  0.00  0.00    +0.000 N 
ATOM     13  C   UNL     1      -2.016  14.073  23.580  0.00  0.00    +0.000 C 
ATOM     14  C   UNL     1      -2.943  14.470  24.741  0.00  0.00    +0.000 C 
ATOM     15  O   UNL     1      -4.279  14.742  24.285  0.00  0.00    +0.000 OA
ATOM     16  C   UNL     1      -4.826  13.581  23.643  0.00  0.00    +0.000 C 
ATOM     17  C   UNL     1      -3.980  13.157  22.435  0.00  0.00    +0.000 C 
ENDBRANCH   9  12
BRANCH   3  18
ATOM     18  C   UNL     1       2.092   8.399  18.401  0.00  0.00    +0.000 C 
ATOM     19  O   UNL     1       2.495   8.896  17.344  0.00  0.00    +0.000 OA
ATOM     20  N   UNL     1       2.593   7.176  18.861  0.00  0.00    +0.000 N 
ATOM     21  C   UNL     1       2.142   6.370  19.991  0.00  0.00    +0.000 C 
ATOM     22  C   UNL     1       3.621   6.530  18.053  0.00  0.00    +0.000 C 
ENDBRANCH   3  18
BRANCH   1  24
ATOM     23  C   UNL     1      -2.751  11.647  17.786  0.00  0.00    +0.000 C 
ATOM     24  C   UNL     1      -1.306  12.085  18.074  0.00  0.00    +0.000 C 
BRANCH  24  25
ATOM     25  N   UNL     1      -1.272  13.376  18.781  0.00  0.00    +0.000 N 
ATOM     26  H   UNL     1      -1.655  13.303  19.721  0.00  0.00    +0.000 HD
BRANCH  25  27
ATOM     27  C   UNL     1      -0.154  14.217  18.750  0.00  0.00    +0.000 A 
ATOM     28  C   UNL     1       1.162  13.774  18.583  0.00  0.00    +0.000 A 
ATOM     29  C   UNL     1       2.227  14.677  18.474  0.00  0.00    +0.000 A 
ATOM     30 CL   UNL     1       3.830  14.080  18.267  0.00  0.00    +0.000 Cl
ATOM     31  C   UNL     1       2.009  16.047  18.523  0.00  0.00    +0.000 A 
ATOM     32  C   UNL     1       0.705  16.505  18.661  0.00  0.00    +0.000 A 
ATOM     33 CL   UNL     1       0.405  18.200  18.718  0.00  0.00    +0.000 Cl
ATOM     34  C   UNL     1      -0.363  15.607  18.751  0.00  0.00    +0.000 A 
ENDBRANCH  25  27
ENDBRANCH  24  25
ENDBRANCH   1  24
TORSDOF 5
ENDMDL
MODEL 8
REMARK VINA RESULT:      -7.6      2.864      7.248
REMARK  Name = 
REMARK  8 active torsions:
REMARK  status: ('A' for Active; 'I' for Inactive)
REMARK    1  A    between atoms: C_1  and  C_2
REMARK    2  A    between atoms: C_2  and  N_3
REMARK    3  A    between atoms: C_2  and  C_12
REMARK    4  A    between atoms: N_3  and  C_4
REMARK    5  A    between atoms: C_14  and  C_15
REMARK    6  A    between atoms: N_17  and  C_18
REMARK    7  A    between atoms: N_17  and  C_19
REMARK    8  A    between atoms: C_25  and  N_26
REMARK                            x       y       z     vdW  Elec       q    Type
REMARK                         _______ _______ _______ _____ _____    ______ ____
ROOT
ATOM      1  C   UNL     1      -0.652  11.037  18.979  0.00  0.00    +0.000 A 
ATOM      2  C   UNL     1       0.257  10.117  18.395  0.00  0.00    +0.000 A 
ATOM      3  C   UNL     1       1.029   9.217  19.160  0.00  0.00    +0.000 A 
ATOM      4  C   UNL     1       0.890   9.254  20.540  0.00  0.00    +0.000 A 
ATOM      5  C   UNL     1      -0.067  10.095  21.124  0.00  0.00    +0.000 A 
ATOM      6  C   UNL     1      -0.239  10.063  22.577  0.00  0.00    +0.000 A 
ATOM      7  O   UNL     1       0.332   9.244  23.284  0.00  0.00    +0.000 OA
ATOM      8  C   UNL     1      -1.124  11.074  23.151  0.00  0.00    +0.000 A 
ATOM      9  C   UNL     1      -1.793  11.935  22.364  0.00  0.00    +0.000 A 
ATOM     10  O   UNL     1      -1.713  11.866  20.969  0.00  0.00    +0.000 OA
ATOM     11  C   UNL     1      -0.828  10.994  20.372  0.00  0.00    +0.000 A 
ENDROOT
BRANCH   9  12
ATOM     12  N   UNL     1      -2.586  12.960  22.882  0.00  0.00    +0.000 N 
ATOM     13  C   UNL     1      -2.030  14.067  23.691  0.00  0.00    +0.000 C 
ATOM     14  C   UNL     1      -3.011  14.449  24.812  0.00  0.00    +0.000 C 
ATOM     15  O   UNL     1      -4.307  14.788  24.291  0.00  0.00    +0.000 OA
ATOM     16  C   UNL     1      -4.853  13.675  23.569  0.00  0.00    +0.000 C 
ATOM     17  C   UNL     1      -3.951  13.271  22.394  0.00  0.00    +0.000 C 
ENDBRANCH   9  12
BRANCH   3  18
ATOM     18  C   UNL     1       2.066   8.409  18.449  0.00  0.00    +0.000 C 
ATOM     19  O   UNL     1       2.476   8.903  17.393  0.00  0.00    +0.000 OA
ATOM     20  N   UNL     1       2.557   7.183  18.911  0.00  0.00    +0.000 N 
ATOM     21  C   UNL     1       2.096   6.380  20.039  0.00  0.00    +0.000 C 
ATOM     22  C   UNL     1       3.583   6.529  18.107  0.00  0.00    +0.000 C 
ENDBRANCH   3  18
BRANCH   1  24
ATOM     23  C   UNL     1      -2.754  11.681  17.811  0.00  0.00    +0.000 C 
ATOM     24  C   UNL     1      -1.310  12.115  18.108  0.00  0.00    +0.000 C 
BRANCH  24  25
ATOM     25  N   UNL     1      -1.276  13.405  18.816  0.00  0.00    +0.000 N 
ATOM     26  H   UNL     1      -1.549  13.310  19.791  0.00  0.00    +0.000 HD
BRANCH  25  27
ATOM     27  C   UNL     1      -0.221  14.312  18.670  0.00  0.00    +0.000 A 
ATOM     28  C   UNL     1      -0.359  15.702  18.745  0.00  0.00    +0.000 A 
ATOM     29  C   UNL     1       0.753  16.551  18.675  0.00  0.00    +0.000 A 
ATOM     30 CL   UNL     1       0.529  18.256  18.775  0.00  0.00    +0.000 Cl
ATOM     31  C   UNL     1       2.035  16.037  18.533  0.00  0.00    +0.000 A 
ATOM     32  C   UNL     1       2.193  14.658  18.484  0.00  0.00    +0.000 A 
ATOM     33 CL   UNL     1       3.774  13.993  18.315  0.00  0.00    +0.000 Cl
ATOM     34  C   UNL     1       1.087  13.807  18.573  0.00  0.00    +0.000 A 
ENDBRANCH  25  27
ENDBRANCH  24  25
ENDBRANCH   1  24
TORSDOF 5
ENDMDL
MODEL 9
REMARK VINA RESULT:      -7.5      3.087      7.929
REMARK  Name = 
REMARK  8 active torsions:
REMARK  status: ('A' for Active; 'I' for Inactive)
REMARK    1  A    between atoms: C_1  and  C_2
REMARK    2  A    between atoms: C_2  and  N_3
REMARK    3  A    between atoms: C_2  and  C_12
REMARK    4  A    between atoms: N_3  and  C_4
REMARK    5  A    between atoms: C_14  and  C_15
REMARK    6  A    between atoms: N_17  and  C_18
REMARK    7  A    between atoms: N_17  and  C_19
REMARK    8  A    between atoms: C_25  and  N_26
REMARK                            x       y       z     vdW  Elec       q    Type
REMARK                         _______ _______ _______ _____ _____    ______ ____
ROOT
ATOM      1  C   UNL     1      -0.547  10.563  20.351  0.00  0.00    +0.000 A 
ATOM      2  C   UNL     1       0.598   9.856  19.900  0.00  0.00    +0.000 A 
ATOM      3  C   UNL     1       0.765   9.450  18.559  0.00  0.00    +0.000 A 
ATOM      4  C   UNL     1      -0.248   9.752  17.659  0.00  0.00    +0.000 A 
ATOM      5  C   UNL     1      -1.342  10.524  18.072  0.00  0.00    +0.000 A 
ATOM      6  C   UNL     1      -2.360  10.885  17.084  0.00  0.00    +0.000 A 
ATOM      7  O   UNL     1      -2.229  10.642  15.893  0.00  0.00    +0.000 OA
ATOM      8  C   UNL     1      -3.560  11.544  17.596  0.00  0.00    +0.000 A 
ATOM      9  C   UNL     1      -3.674  11.859  18.898  0.00  0.00    +0.000 A 
ATOM     10  O   UNL     1      -2.634  11.620  19.804  0.00  0.00    +0.000 OA
ATOM     11  C   UNL     1      -1.516  10.923  19.399  0.00  0.00    +0.000 A 
ENDROOT
BRANCH   9  12
ATOM     12  N   UNL     1      -4.835  12.419  19.434  0.00  0.00    +0.000 N 
ATOM     13  C   UNL     1      -4.856  13.114  20.739  0.00  0.00    +0.000 C 
ATOM     14  C   UNL     1      -6.168  12.809  21.481  0.00  0.00    +0.000 C 
ATOM     15  O   UNL     1      -7.318  13.155  20.691  0.00  0.00    +0.000 OA
ATOM     16  C   UNL     1      -7.309  12.417  19.460  0.00  0.00    +0.000 C 
ATOM     17  C   UNL     1      -6.049  12.715  18.636  0.00  0.00    +0.000 C 
ENDBRANCH   9  12
BRANCH   3  18
ATOM     18  C   UNL     1       1.932   8.575  18.236  0.00  0.00    +0.000 C 
ATOM     19  O   UNL     1       2.507   8.845  17.175  0.00  0.00    +0.000 OA
ATOM     20  N   UNL     1       2.370   7.522  19.045  0.00  0.00    +0.000 N 
ATOM     21  C   UNL     1       1.742   6.964  20.240  0.00  0.00    +0.000 C 
ATOM     22  C   UNL     1       3.539   6.775  18.596  0.00  0.00    +0.000 C 
ENDBRANCH   3  18
BRANCH   1  24
ATOM     23  C   UNL     1       0.223   9.896  22.622  0.00  0.00    +0.000 C 
ATOM     24  C   UNL     1      -0.753  10.800  21.853  0.00  0.00    +0.000 C 
BRANCH  24  25
ATOM     25  N   UNL     1      -0.521  12.220  22.160  0.00  0.00    +0.000 N 
ATOM     26  H   UNL     1      -0.301  12.758  21.326  0.00  0.00    +0.000 HD
BRANCH  25  27
ATOM     27  C   UNL     1      -1.346  12.943  23.029  0.00  0.00    +0.000 A 
ATOM     28  C   UNL     1      -1.122  14.271  23.407  0.00  0.00    +0.000 A 
ATOM     29  C   UNL     1      -2.036  14.964  24.212  0.00  0.00    +0.000 A 
ATOM     30 CL   UNL     1      -1.715  16.600  24.648  0.00  0.00    +0.000 Cl
ATOM     31  C   UNL     1      -3.199  14.353  24.659  0.00  0.00    +0.000 A 
ATOM     32  C   UNL     1      -3.450  13.043  24.271  0.00  0.00    +0.000 A 
ATOM     33 CL   UNL     1      -4.890  12.263  24.806  0.00  0.00    +0.000 Cl
ATOM     34  C   UNL     1      -2.551  12.354  23.451  0.00  0.00    +0.000 A 
ENDBRANCH  25  27
ENDBRANCH  24  25
ENDBRANCH   1  24
TORSDOF 5
ENDMDL
