MODEL 1
REMARK VINA RESULT:      -9.0      0.000      0.000
REMARK  Name = 
REMARK  5 active torsions:
REMARK  status: ('A' for Active; 'I' for Inactive)
REMARK    1  A    between atoms: C_1  and  N_2
REMARK    2  A    between atoms: N_2  and  C_3
REMARK    3  A    between atoms: C_3  and  C_4
REMARK    4  A    between atoms: C_18  and  C_20
REMARK    5  A    between atoms: N_24  and  C_25
REMARK                            x       y       z     vdW  Elec       q    Type
REMARK                         _______ _______ _______ _____ _____    ______ ____
ROOT
ATOM      1  C   UNL     1       2.259   6.676  20.446  0.00  0.00    +0.000 C 
ATOM      2  N   UNL     1       2.007   7.503  19.272  0.00  0.00    +0.000 N 
ATOM      3  C   UNL     1       1.453   8.767  19.487  0.00  0.00    +0.000 C 
ATOM      4  O   UNL     1       1.230   9.172  20.630  0.00  0.00    +0.000 OA
ENDROOT
BRANCH   3   5
ATOM      5  C   UNL     1       1.089   9.630  18.278  0.00  0.00    +0.000 C 
ATOM      6  C   UNL     1       2.003  10.835  18.200  0.00  0.00    +0.000 C 
ATOM      7  C   UNL     1       1.187  11.940  18.821  0.00  0.00    +0.000 C 
ATOM      8  O   UNL     1       1.667  12.979  19.243  0.00  0.00    +0.000 OA
ATOM      9  N   UNL     1      -0.157  11.598  18.725  0.00  0.00    +0.000 N 
ATOM     10  C   UNL     1      -0.323  10.209  18.371  0.00  0.00    +0.000 C 
BRANCH   9  11
ATOM     11  C   UNL     1      -1.249  12.409  19.270  0.00  0.00    +0.000 C 
ATOM     12  C   UNL     1      -2.637  11.918  18.853  0.00  0.00    +0.000 C 
ATOM     13  C   UNL     1      -3.594  12.554  19.848  0.00  0.00    +0.000 C 
ATOM     14  C   UNL     1      -2.799  12.726  21.135  0.00  0.00    +0.000 C 
ATOM     15  C   UNL     1      -1.350  12.376  20.802  0.00  0.00    +0.000 C 
ENDBRANCH   9  11
ENDBRANCH   3   5
BRANCH   2  16
ATOM     16  C   UNL     1       2.370   6.931  17.979  0.00  0.00    +0.000 C 
BRANCH  16  17
ATOM     17  C   UNL     1       3.362   5.755  17.921  0.00  0.00    +0.000 A 
ATOM     18  C   UNL     1       4.788   5.953  17.788  0.00  0.00    +0.000 A 
ATOM     19  C   UNL     1       5.436   7.077  17.223  0.00  0.00    +0.000 A 
ATOM     20  C   UNL     1       6.793   7.345  17.396  0.00  0.00    +0.000 A 
ATOM     21  C   UNL     1       7.579   6.438  18.074  0.00  0.00    +0.000 A 
ATOM     22  C   UNL     1       7.025   5.217  18.446  0.00  0.00    +0.000 A 
ATOM     23  C   UNL     1       5.654   4.950  18.255  0.00  0.00    +0.000 A 
ATOM     24  C   UNL     1       5.153   3.672  18.511  0.00  0.00    +0.000 A 
ATOM     25  C   UNL     1       3.788   3.387  18.422  0.00  0.00    +0.000 A 
ATOM     26  C   UNL     1       3.356   2.055  18.545  0.00  0.00    +0.000 A 
ATOM     27  C   UNL     1       2.003   1.738  18.570  0.00  0.00    +0.000 A 
ATOM     28  C   UNL     1       1.071   2.762  18.546  0.00  0.00    +0.000 A 
ATOM     29  C   UNL     1       1.493   4.089  18.400  0.00  0.00    +0.000 A 
ATOM     30  C   UNL     1       2.862   4.441  18.246  0.00  0.00    +0.000 A 
ENDBRANCH  16  17
ENDBRANCH   2  16
TORSDOF 4
ENDMDL
MODEL 2
REMARK VINA RESULT:      -8.6      1.124      1.490
REMARK  Name = 
REMARK  5 active torsions:
REMARK  status: ('A' for Active; 'I' for Inactive)
REMARK    1  A    between atoms: C_1  and  N_2
REMARK    2  A    between atoms: N_2  and  C_3
REMARK    3  A    between atoms: C_3  and  C_4
REMARK    4  A    between atoms: C_18  and  C_20
REMARK    5  A    between atoms: N_24  and  C_25
REMARK                            x       y       z     vdW  Elec       q    Type
REMARK                         _______ _______ _______ _____ _____    ______ ____
ROOT
ATOM      1  C   UNL     1       2.157   6.683  20.390  0.00  0.00    +0.000 C 
ATOM      2  N   UNL     1       2.067   7.565  19.233  0.00  0.00    +0.000 N 
ATOM      3  C   UNL     1       1.607   8.864  19.452  0.00  0.00    +0.000 C 
ATOM      4  O   UNL     1       1.332   9.252  20.590  0.00  0.00    +0.000 OA
ENDROOT
BRANCH   3   5
ATOM      5  C   UNL     1       1.411   9.792  18.253  0.00  0.00    +0.000 C 
ATOM      6  C   UNL     1       1.580  11.237  18.675  0.00  0.00    +0.000 C 
ATOM      7  C   UNL     1       0.164  11.719  18.863  0.00  0.00    +0.000 C 
ATOM      8  O   UNL     1      -0.132  12.714  19.504  0.00  0.00    +0.000 OA
ATOM      9  N   UNL     1      -0.678  10.906  18.113  0.00  0.00    +0.000 N 
ATOM     10  C   UNL     1       0.000   9.712  17.670  0.00  0.00    +0.000 C 
BRANCH   9  11
ATOM     11  C   UNL     1      -2.137  11.039  18.088  0.00  0.00    +0.000 C 
ATOM     12  C   UNL     1      -2.674  11.610  16.774  0.00  0.00    +0.000 C 
ATOM     13  C   UNL     1      -4.148  11.242  16.759  0.00  0.00    +0.000 C 
ATOM     14  C   UNL     1      -4.261   9.949  17.556  0.00  0.00    +0.000 C 
ATOM     15  C   UNL     1      -2.890   9.704  18.183  0.00  0.00    +0.000 C 
ENDBRANCH   9  11
ENDBRANCH   3   5
BRANCH   2  16
ATOM     16  C   UNL     1       2.479   7.003  17.949  0.00  0.00    +0.000 C 
BRANCH  16  17
ATOM     17  C   UNL     1       3.473   5.828  17.919  0.00  0.00    +0.000 A 
ATOM     18  C   UNL     1       4.901   6.025  17.826  0.00  0.00    +0.000 A 
ATOM     19  C   UNL     1       5.565   7.149  17.279  0.00  0.00    +0.000 A 
ATOM     20  C   UNL     1       6.917   7.418  17.491  0.00  0.00    +0.000 A 
ATOM     21  C   UNL     1       7.683   6.510  18.191  0.00  0.00    +0.000 A 
ATOM     22  C   UNL     1       7.120   5.289  18.547  0.00  0.00    +0.000 A 
ATOM     23  C   UNL     1       5.755   5.022  18.317  0.00  0.00    +0.000 A 
ATOM     24  C   UNL     1       5.246   3.744  18.559  0.00  0.00    +0.000 A 
ATOM     25  C   UNL     1       3.885   3.459  18.432  0.00  0.00    +0.000 A 
ATOM     26  C   UNL     1       3.450   2.127  18.542  0.00  0.00    +0.000 A 
ATOM     27  C   UNL     1       2.096   1.810  18.529  0.00  0.00    +0.000 A 
ATOM     28  C   UNL     1       1.165   2.834  18.479  0.00  0.00    +0.000 A 
ATOM     29  C   UNL     1       1.591   4.161  18.345  0.00  0.00    +0.000 A 
ATOM     30  C   UNL     1       2.964   4.513  18.230  0.00  0.00    +0.000 A 
ENDBRANCH  16  17
ENDBRANCH   2  16
TORSDOF 4
ENDMDL
MODEL 3
REMARK VINA RESULT:      -8.6      0.606      3.401
REMARK  Name = 
REMARK  5 active torsions:
REMARK  status: ('A' for Active; 'I' for Inactive)
REMARK    1  A    between atoms: C_1  and  N_2
REMARK    2  A    between atoms: N_2  and  C_3
REMARK    3  A    between atoms: C_3  and  C_4
REMARK    4  A    between atoms: C_18  and  C_20
REMARK    5  A    between atoms: N_24  and  C_25
REMARK                            x       y       z     vdW  Elec       q    Type
REMARK                         _______ _______ _______ _____ _____    ______ ____
ROOT
ATOM      1  C   UNL     1       2.198   6.967  20.695  0.00  0.00    +0.000 C 
ATOM      2  N   UNL     1       1.920   7.713  19.474  0.00  0.00    +0.000 N 
ATOM      3  C   UNL     1       1.357   8.983  19.613  0.00  0.00    +0.000 C 
ATOM      4  O   UNL     1       1.147   9.460  20.731  0.00  0.00    +0.000 OA
ENDROOT
BRANCH   3   5
ATOM      5  C   UNL     1       0.967   9.761  18.357  0.00  0.00    +0.000 C 
ATOM      6  C   UNL     1       1.802  11.019  18.238  0.00  0.00    +0.000 C 
ATOM      7  C   UNL     1       0.902  12.096  18.787  0.00  0.00    +0.000 C 
ATOM      8  O   UNL     1       1.303  13.183  19.168  0.00  0.00    +0.000 OA
ATOM      9  N   UNL     1      -0.415  11.662  18.680  0.00  0.00    +0.000 N 
ATOM     10  C   UNL     1      -0.482  10.250  18.392  0.00  0.00    +0.000 C 
BRANCH   9  11
ATOM     11  C   UNL     1      -1.570  12.424  19.162  0.00  0.00    +0.000 C 
ATOM     12  C   UNL     1      -2.913  11.819  18.747  0.00  0.00    +0.000 C 
ATOM     13  C   UNL     1      -3.931  12.439  19.689  0.00  0.00    +0.000 C 
ATOM     14  C   UNL     1      -3.177  12.731  20.980  0.00  0.00    +0.000 C 
ATOM     15  C   UNL     1      -1.701  12.463  20.691  0.00  0.00    +0.000 C 
ENDBRANCH   9  11
ENDBRANCH   3   5
BRANCH   2  16
ATOM     16  C   UNL     1       2.270   7.060  18.215  0.00  0.00    +0.000 C 
BRANCH  16  17
ATOM     17  C   UNL     1       3.125   5.780  18.237  0.00  0.00    +0.000 A 
ATOM     18  C   UNL     1       2.559   4.478  18.505  0.00  0.00    +0.000 A 
ATOM     19  C   UNL     1       1.375   4.204  19.230  0.00  0.00    +0.000 A 
ATOM     20  C   UNL     1       0.724   2.971  19.196  0.00  0.00    +0.000 A 
ATOM     21  C   UNL     1       1.292   1.928  18.498  0.00  0.00    +0.000 A 
ATOM     22  C   UNL     1       2.566   2.093  17.963  0.00  0.00    +0.000 A 
ATOM     23  C   UNL     1       3.221   3.340  18.013  0.00  0.00    +0.000 A 
ATOM     24  C   UNL     1       4.548   3.445  17.591  0.00  0.00    +0.000 A 
ATOM     25  C   UNL     1       5.207   4.676  17.540  0.00  0.00    +0.000 A 
ATOM     26  C   UNL     1       6.583   4.706  17.251  0.00  0.00    +0.000 A 
ATOM     27  C   UNL     1       7.255   5.911  17.084  0.00  0.00    +0.000 A 
ATOM     28  C   UNL     1       6.539   7.095  17.133  0.00  0.00    +0.000 A 
ATOM     29  C   UNL     1       5.174   7.074  17.444  0.00  0.00    +0.000 A 
ATOM     30  C   UNL     1       4.478   5.870  17.743  0.00  0.00    +0.000 A 
ENDBRANCH  16  17
ENDBRANCH   2  16
TORSDOF 4
ENDMDL
MODEL 4
REMARK VINA RESULT:      -8.5      0.965      1.289
REMARK  Name = 
REMARK  5 active torsions:
REMARK  status: ('A' for Active; 'I' for Inactive)
REMARK    1  A    between atoms: C_1  and  N_2
REMARK    2  A    between atoms: N_2  and  C_3
REMARK    3  A    between atoms: C_3  and  C_4
REMARK    4  A    between atoms: C_18  and  C_20
REMARK    5  A    between atoms: N_24  and  C_25
REMARK                            x       y       z     vdW  Elec       q    Type
REMARK                         _______ _______ _______ _____ _____    ______ ____
ROOT
ATOM      1  C   UNL     1       2.283   6.742  20.412  0.00  0.00    +0.000 C 
ATOM      2  N   UNL     1       2.030   7.567  19.238  0.00  0.00    +0.000 N 
ATOM      3  C   UNL     1       1.458   8.823  19.449  0.00  0.00    +0.000 C 
ATOM      4  O   UNL     1       1.220   9.224  20.590  0.00  0.00    +0.000 OA
ENDROOT
BRANCH   3   5
ATOM      5  C   UNL     1       1.094   9.683  18.238  0.00  0.00    +0.000 C 
ATOM      6  C   UNL     1       2.204  10.669  17.942  0.00  0.00    +0.000 C 
ATOM      7  C   UNL     1       1.724  11.947  18.582  0.00  0.00    +0.000 C 
ATOM      8  O   UNL     1       2.456  12.884  18.852  0.00  0.00    +0.000 OA
ATOM      9  N   UNL     1       0.340  11.884  18.698  0.00  0.00    +0.000 N 
ATOM     10  C   UNL     1      -0.147  10.543  18.479  0.00  0.00    +0.000 C 
BRANCH   9  11
ATOM     11  C   UNL     1      -0.478  12.927  19.322  0.00  0.00    +0.000 C 
ATOM     12  C   UNL     1      -0.171  13.132  20.807  0.00  0.00    +0.000 C 
ATOM     13  C   UNL     1      -0.742  14.500  21.141  0.00  0.00    +0.000 C 
ATOM     14  C   UNL     1      -0.664  15.308  19.853  0.00  0.00    +0.000 C 
ATOM     15  C   UNL     1      -0.241  14.334  18.754  0.00  0.00    +0.000 C 
ENDBRANCH   9  11
ENDBRANCH   3   5
BRANCH   2  16
ATOM     16  C   UNL     1       2.412   7.001  17.947  0.00  0.00    +0.000 C 
BRANCH  16  17
ATOM     17  C   UNL     1       3.403   5.824  17.898  0.00  0.00    +0.000 A 
ATOM     18  C   UNL     1       4.830   6.018  17.786  0.00  0.00    +0.000 A 
ATOM     19  C   UNL     1       5.489   7.143  17.235  0.00  0.00    +0.000 A 
ATOM     20  C   UNL     1       6.844   7.408  17.430  0.00  0.00    +0.000 A 
ATOM     21  C   UNL     1       7.618   6.496  18.115  0.00  0.00    +0.000 A 
ATOM     22  C   UNL     1       7.056   5.274  18.473  0.00  0.00    +0.000 A 
ATOM     23  C   UNL     1       5.688   5.011  18.261  0.00  0.00    +0.000 A 
ATOM     24  C   UNL     1       5.180   3.733  18.503  0.00  0.00    +0.000 A 
ATOM     25  C   UNL     1       3.816   3.452  18.393  0.00  0.00    +0.000 A 
ATOM     26  C   UNL     1       3.380   2.120  18.503  0.00  0.00    +0.000 A 
ATOM     27  C   UNL     1       2.025   1.806  18.507  0.00  0.00    +0.000 A 
ATOM     28  C   UNL     1       1.096   2.832  18.475  0.00  0.00    +0.000 A 
ATOM     29  C   UNL     1       1.523   4.159  18.341  0.00  0.00    +0.000 A 
ATOM     30  C   UNL     1       2.895   4.508  18.209  0.00  0.00    +0.000 A 
ENDBRANCH  16  17
ENDBRANCH   2  16
TORSDOF 4
ENDMDL
MODEL 5
REMARK VINA RESULT:      -8.3      1.357      3.830
REMARK  Name = 
REMARK  5 active torsions:
REMARK  status: ('A' for Active; 'I' for Inactive)
REMARK    1  A    between atoms: C_1  and  N_2
REMARK    2  A    between atoms: N_2  and  C_3
REMARK    3  A    between atoms: C_3  and  C_4
REMARK    4  A    between atoms: C_18  and  C_20
REMARK    5  A    between atoms: N_24  and  C_25
REMARK                            x       y       z     vdW  Elec       q    Type
REMARK                         _______ _______ _______ _____ _____    ______ ____
ROOT
ATOM      1  C   UNL     1       1.968   6.691  20.749  0.00  0.00    +0.000 C 
ATOM      2  N   UNL     1       1.924   7.603  19.613  0.00  0.00    +0.000 N 
ATOM      3  C   UNL     1       1.517   8.916  19.861  0.00  0.00    +0.000 C 
ATOM      4  O   UNL     1       1.249   9.287  21.006  0.00  0.00    +0.000 OA
ENDROOT
BRANCH   3   5
ATOM      5  C   UNL     1       1.371   9.879  18.683  0.00  0.00    +0.000 C 
ATOM      6  C   UNL     1       1.140  11.290  19.185  0.00  0.00    +0.000 C 
ATOM      7  C   UNL     1      -0.354  11.461  19.086  0.00  0.00    +0.000 C 
ATOM      8  O   UNL     1      -0.977  12.321  19.687  0.00  0.00    +0.000 OA
ATOM      9  N   UNL     1      -0.837  10.559  18.145  0.00  0.00    +0.000 N 
ATOM     10  C   UNL     1       0.154   9.564  17.812  0.00  0.00    +0.000 C 
BRANCH   9  11
ATOM     11  C   UNL     1      -2.256  10.398  17.818  0.00  0.00    +0.000 C 
ATOM     12  C   UNL     1      -3.040  11.712  17.846  0.00  0.00    +0.000 C 
ATOM     13  C   UNL     1      -4.307  11.430  17.056  0.00  0.00    +0.000 C 
ATOM     14  C   UNL     1      -3.932  10.363  16.037  0.00  0.00    +0.000 C 
ATOM     15  C   UNL     1      -2.518   9.905  16.388  0.00  0.00    +0.000 C 
ENDBRANCH   9  11
ENDBRANCH   3   5
BRANCH   2  16
ATOM     16  C   UNL     1       2.323   7.055  18.319  0.00  0.00    +0.000 C 
BRANCH  16  17
ATOM     17  C   UNL     1       3.171   5.771  18.268  0.00  0.00    +0.000 A 
ATOM     18  C   UNL     1       2.602   4.461  18.488  0.00  0.00    +0.000 A 
ATOM     19  C   UNL     1       1.429   4.160  19.220  0.00  0.00    +0.000 A 
ATOM     20  C   UNL     1       0.771   2.934  19.142  0.00  0.00    +0.000 A 
ATOM     21  C   UNL     1       1.322   1.920  18.387  0.00  0.00    +0.000 A 
ATOM     22  C   UNL     1       2.587   2.103  17.838  0.00  0.00    +0.000 A 
ATOM     23  C   UNL     1       3.250   3.343  17.933  0.00  0.00    +0.000 A 
ATOM     24  C   UNL     1       4.570   3.461  17.493  0.00  0.00    +0.000 A 
ATOM     25  C   UNL     1       5.234   4.690  17.486  0.00  0.00    +0.000 A 
ATOM     26  C   UNL     1       6.605   4.726  17.175  0.00  0.00    +0.000 A 
ATOM     27  C   UNL     1       7.281   5.934  17.050  0.00  0.00    +0.000 A 
ATOM     28  C   UNL     1       6.572   7.118  17.165  0.00  0.00    +0.000 A 
ATOM     29  C   UNL     1       5.213   7.090  17.499  0.00  0.00    +0.000 A 
ATOM     30  C   UNL     1       4.516   5.877  17.756  0.00  0.00    +0.000 A 
ENDBRANCH  16  17
ENDBRANCH   2  16
TORSDOF 4
ENDMDL
MODEL 6
REMARK VINA RESULT:      -8.2      2.113      8.439
REMARK  Name = 
REMARK  5 active torsions:
REMARK  status: ('A' for Active; 'I' for Inactive)
REMARK    1  A    between atoms: C_1  and  N_2
REMARK    2  A    between atoms: N_2  and  C_3
REMARK    3  A    between atoms: C_3  and  C_4
REMARK    4  A    between atoms: C_18  and  C_20
REMARK    5  A    between atoms: N_24  and  C_25
REMARK                            x       y       z     vdW  Elec       q    Type
REMARK                         _______ _______ _______ _____ _____    ______ ____
ROOT
ATOM      1  C   UNL     1       1.256   9.104  21.047  0.00  0.00    +0.000 C 
ATOM      2  N   UNL     1       1.504   8.710  19.666  0.00  0.00    +0.000 N 
ATOM      3  C   UNL     1       1.882   7.385  19.437  0.00  0.00    +0.000 C 
ATOM      4  O   UNL     1       1.957   6.581  20.368  0.00  0.00    +0.000 OA
ENDROOT
BRANCH   3   5
ATOM      5  C   UNL     1       2.240   6.954  18.015  0.00  0.00    +0.000 C 
ATOM      6  C   UNL     1       2.033   5.463  17.851  0.00  0.00    +0.000 C 
ATOM      7  C   UNL     1       3.418   4.892  18.021  0.00  0.00    +0.000 C 
ATOM      8  O   UNL     1       3.638   3.721  18.283  0.00  0.00    +0.000 OA
ATOM      9  N   UNL     1       4.341   5.890  17.733  0.00  0.00    +0.000 N 
ATOM     10  C   UNL     1       3.714   7.188  17.681  0.00  0.00    +0.000 C 
BRANCH   9  11
ATOM     11  C   UNL     1       5.792   5.720  17.842  0.00  0.00    +0.000 C 
ATOM     12  C   UNL     1       6.580   6.989  17.514  0.00  0.00    +0.000 C 
ATOM     13  C   UNL     1       7.957   6.764  18.115  0.00  0.00    +0.000 C 
ATOM     14  C   UNL     1       7.742   5.850  19.314  0.00  0.00    +0.000 C 
ATOM     15  C   UNL     1       6.282   5.404  19.263  0.00  0.00    +0.000 C 
ENDBRANCH   9  11
ENDBRANCH   3   5
BRANCH   2  16
ATOM     16  C   UNL     1       1.323   9.742  18.649  0.00  0.00    +0.000 C 
BRANCH  16  17
ATOM     17  C   UNL     1       0.368  10.918  18.923  0.00  0.00    +0.000 A 
ATOM     18  C   UNL     1       0.831  12.185  19.441  0.00  0.00    +0.000 A 
ATOM     19  C   UNL     1       2.002  12.409  20.204  0.00  0.00    +0.000 A 
ATOM     20  C   UNL     1       2.550  13.674  20.411  0.00  0.00    +0.000 A 
ATOM     21  C   UNL     1       1.886  14.784  19.932  0.00  0.00    +0.000 A 
ATOM     22  C   UNL     1       0.621  14.621  19.377  0.00  0.00    +0.000 A 
ATOM     23  C   UNL     1       0.070  13.338  19.183  0.00  0.00    +0.000 A 
ATOM     24  C   UNL     1      -1.252  13.207  18.750  0.00  0.00    +0.000 A 
ATOM     25  C   UNL     1      -1.809  11.960  18.459  0.00  0.00    +0.000 A 
ATOM     26  C   UNL     1      -3.182  11.873  18.172  0.00  0.00    +0.000 A 
ATOM     27  C   UNL     1      -3.757  10.671  17.772  0.00  0.00    +0.000 A 
ATOM     28  C   UNL     1      -2.947   9.565  17.587  0.00  0.00    +0.000 A 
ATOM     29  C   UNL     1      -1.582   9.638  17.894  0.00  0.00    +0.000 A 
ATOM     30  C   UNL     1      -0.982  10.814  18.423  0.00  0.00    +0.000 A 
ENDBRANCH  16  17
ENDBRANCH   2  16
TORSDOF 4
ENDMDL
MODEL 7
REMARK VINA RESULT:      -8.2      1.116      3.642
REMARK  Name = 
REMARK  5 active torsions:
REMARK  status: ('A' for Active; 'I' for Inactive)
REMARK    1  A    between atoms: C_1  and  N_2
REMARK    2  A    between atoms: N_2  and  C_3
REMARK    3  A    between atoms: C_3  and  C_4
REMARK    4  A    between atoms: C_18  and  C_20
REMARK    5  A    between atoms: N_24  and  C_25
REMARK                            x       y       z     vdW  Elec       q    Type
REMARK                         _______ _______ _______ _____ _____    ______ ____
ROOT
ATOM      1  C   UNL     1       2.147   6.915  20.715  0.00  0.00    +0.000 C 
ATOM      2  N   UNL     1       1.897   7.678  19.499  0.00  0.00    +0.000 N 
ATOM      3  C   UNL     1       1.353   8.956  19.645  0.00  0.00    +0.000 C 
ATOM      4  O   UNL     1       1.138   9.425  20.765  0.00  0.00    +0.000 OA
ENDROOT
BRANCH   3   5
ATOM      5  C   UNL     1       0.992   9.754  18.393  0.00  0.00    +0.000 C 
ATOM      6  C   UNL     1       2.114  10.706  18.035  0.00  0.00    +0.000 C 
ATOM      7  C   UNL     1       1.658  12.024  18.608  0.00  0.00    +0.000 C 
ATOM      8  O   UNL     1       2.406  12.963  18.822  0.00  0.00    +0.000 OA
ATOM      9  N   UNL     1       0.274  11.989  18.738  0.00  0.00    +0.000 N 
ATOM     10  C   UNL     1      -0.234  10.646  18.596  0.00  0.00    +0.000 C 
BRANCH   9  11
ATOM     11  C   UNL     1      -0.522  13.077  19.311  0.00  0.00    +0.000 C 
ATOM     12  C   UNL     1      -0.259  13.303  20.801  0.00  0.00    +0.000 C 
ATOM     13  C   UNL     1      -0.786  14.699  21.086  0.00  0.00    +0.000 C 
ATOM     14  C   UNL     1      -0.633  15.474  19.784  0.00  0.00    +0.000 C 
ATOM     15  C   UNL     1      -0.211  14.460  18.722  0.00  0.00    +0.000 C 
ENDBRANCH   9  11
ENDBRANCH   3   5
BRANCH   2  16
ATOM     16  C   UNL     1       2.250   7.033  18.237  0.00  0.00    +0.000 C 
BRANCH  16  17
ATOM     17  C   UNL     1       3.112   5.758  18.253  0.00  0.00    +0.000 A 
ATOM     18  C   UNL     1       2.555   4.451  18.517  0.00  0.00    +0.000 A 
ATOM     19  C   UNL     1       1.374   4.167  19.242  0.00  0.00    +0.000 A 
ATOM     20  C   UNL     1       0.731   2.930  19.203  0.00  0.00    +0.000 A 
ATOM     21  C   UNL     1       1.305   1.893  18.500  0.00  0.00    +0.000 A 
ATOM     22  C   UNL     1       2.577   2.068  17.965  0.00  0.00    +0.000 A 
ATOM     23  C   UNL     1       3.225   3.319  18.020  0.00  0.00    +0.000 A 
ATOM     24  C   UNL     1       4.551   3.435  17.597  0.00  0.00    +0.000 A 
ATOM     25  C   UNL     1       5.201   4.670  17.550  0.00  0.00    +0.000 A 
ATOM     26  C   UNL     1       6.576   4.710  17.260  0.00  0.00    +0.000 A 
ATOM     27  C   UNL     1       7.241   5.920  17.097  0.00  0.00    +0.000 A 
ATOM     28  C   UNL     1       6.517   7.099  17.151  0.00  0.00    +0.000 A 
ATOM     29  C   UNL     1       5.153   7.068  17.463  0.00  0.00    +0.000 A 
ATOM     30  C   UNL     1       4.465   5.858  17.759  0.00  0.00    +0.000 A 
ENDBRANCH  16  17
ENDBRANCH   2  16
TORSDOF 4
ENDMDL
MODEL 8
REMARK VINA RESULT:      -8.1      2.010      9.005
REMARK  Name = 
REMARK  5 active torsions:
REMARK  status: ('A' for Active; 'I' for Inactive)
REMARK    1  A    between atoms: C_1  and  N_2
REMARK    2  A    between atoms: N_2  and  C_3
REMARK    3  A    between atoms: C_3  and  C_4
REMARK    4  A    between atoms: C_18  and  C_20
REMARK    5  A    between atoms: N_24  and  C_25
REMARK                            x       y       z     vdW  Elec       q    Type
REMARK                         _______ _______ _______ _____ _____    ______ ____
ROOT
ATOM      1  C   UNL     1       1.237   9.462  20.642  0.00  0.00    +0.000 C 
ATOM      2  N   UNL     1       1.498   8.911  19.318  0.00  0.00    +0.000 N 
ATOM      3  C   UNL     1       1.882   7.570  19.247  0.00  0.00    +0.000 C 
ATOM      4  O   UNL     1       1.952   6.880  20.266  0.00  0.00    +0.000 OA
ENDROOT
BRANCH   3   5
ATOM      5  C   UNL     1       2.252   6.978  17.887  0.00  0.00    +0.000 C 
ATOM      6  C   UNL     1       2.032   5.480  17.890  0.00  0.00    +0.000 C 
ATOM      7  C   UNL     1       3.408   4.919  18.142  0.00  0.00    +0.000 C 
ATOM      8  O   UNL     1       3.613   3.783  18.537  0.00  0.00    +0.000 OA
ATOM      9  N   UNL     1       4.346   5.870  17.756  0.00  0.00    +0.000 N 
ATOM     10  C   UNL     1       3.733   7.160  17.549  0.00  0.00    +0.000 C 
BRANCH   9  11
ATOM     11  C   UNL     1       5.793   5.700  17.903  0.00  0.00    +0.000 C 
ATOM     12  C   UNL     1       6.591   6.963  17.574  0.00  0.00    +0.000 C 
ATOM     13  C   UNL     1       7.952   6.746  18.213  0.00  0.00    +0.000 C 
ATOM     14  C   UNL     1       7.706   5.851  19.420  0.00  0.00    +0.000 C 
ATOM     15  C   UNL     1       6.247   5.405  19.340  0.00  0.00    +0.000 C 
ENDBRANCH   9  11
ENDBRANCH   3   5
BRANCH   2  16
ATOM     16  C   UNL     1       1.322   9.817  18.186  0.00  0.00    +0.000 C 
BRANCH  16  17
ATOM     17  C   UNL     1       0.350  11.004  18.309  0.00  0.00    +0.000 A 
ATOM     18  C   UNL     1      -1.067  10.873  18.059  0.00  0.00    +0.000 A 
ATOM     19  C   UNL     1      -1.695   9.900  17.245  0.00  0.00    +0.000 A 
ATOM     20  C   UNL     1      -3.064   9.636  17.285  0.00  0.00    +0.000 A 
ATOM     21  C   UNL     1      -3.877  10.409  18.086  0.00  0.00    +0.000 A 
ATOM     22  C   UNL     1      -3.331  11.518  18.725  0.00  0.00    +0.000 A 
ATOM     23  C   UNL     1      -1.947  11.784  18.668  0.00  0.00    +0.000 A 
ATOM     24  C   UNL     1      -1.446  12.973  19.202  0.00  0.00    +0.000 A 
ATOM     25  C   UNL     1      -0.075  13.236  19.248  0.00  0.00    +0.000 A 
ATOM     26  C   UNL     1       0.366  14.506  19.659  0.00  0.00    +0.000 A 
ATOM     27  C   UNL     1       1.720  14.778  19.823  0.00  0.00    +0.000 A 
ATOM     28  C   UNL     1       2.639  13.757  19.647  0.00  0.00    +0.000 A 
ATOM     29  C   UNL     1       2.209  12.496  19.215  0.00  0.00    +0.000 A 
ATOM     30  C   UNL     1       0.846  12.216  18.917  0.00  0.00    +0.000 A 
ENDBRANCH  16  17
ENDBRANCH   2  16
TORSDOF 4
ENDMDL
MODEL 9
REMARK VINA RESULT:      -7.9      1.705      4.114
REMARK  Name = 
REMARK  5 active torsions:
REMARK  status: ('A' for Active; 'I' for Inactive)
REMARK    1  A    between atoms: C_1  and  N_2
REMARK    2  A    between atoms: N_2  and  C_3
REMARK    3  A    between atoms: C_3  and  C_4
REMARK    4  A    between atoms: C_18  and  C_20
REMARK    5  A    between atoms: N_24  and  C_25
REMARK                            x       y       z     vdW  Elec       q    Type
REMARK                         _______ _______ _______ _____ _____    ______ ____
ROOT
ATOM      1  C   UNL     1       1.917   7.688  17.266  0.00  0.00    +0.000 C 
ATOM      2  N   UNL     1       2.143   8.035  18.664  0.00  0.00    +0.000 N 
ATOM      3  C   UNL     1       1.399   9.093  19.189  0.00  0.00    +0.000 C 
ATOM      4  O   UNL     1       0.557   9.674  18.501  0.00  0.00    +0.000 OA
ENDROOT
BRANCH   3   5
ATOM      5  C   UNL     1       1.671   9.548  20.623  0.00  0.00    +0.000 C 
ATOM      6  C   UNL     1       1.122   8.536  21.607  0.00  0.00    +0.000 C 
ATOM      7  C   UNL     1      -0.203   9.125  22.020  0.00  0.00    +0.000 C 
ATOM      8  O   UNL     1      -1.096   8.478  22.542  0.00  0.00    +0.000 OA
ATOM      9  N   UNL     1      -0.162  10.496  21.793  0.00  0.00    +0.000 N 
ATOM     10  C   UNL     1       0.965  10.860  20.969  0.00  0.00    +0.000 C 
BRANCH   9  11
ATOM     11  C   UNL     1      -1.292  11.398  22.026  0.00  0.00    +0.000 C 
ATOM     12  C   UNL     1      -0.940  12.599  22.907  0.00  0.00    +0.000 C 
ATOM     13  C   UNL     1      -2.044  13.611  22.651  0.00  0.00    +0.000 C 
ATOM     14  C   UNL     1      -2.516  13.359  21.226  0.00  0.00    +0.000 C 
ATOM     15  C   UNL     1      -1.820  12.082  20.757  0.00  0.00    +0.000 C 
ENDBRANCH   9  11
ENDBRANCH   3   5
BRANCH   2  16
ATOM     16  C   UNL     1       3.126   7.231  19.386  0.00  0.00    +0.000 C 
BRANCH  16  17
ATOM     17  C   UNL     1       3.473   5.820  18.878  0.00  0.00    +0.000 A 
ATOM     18  C   UNL     1       2.631   4.675  19.140  0.00  0.00    +0.000 A 
ATOM     19  C   UNL     1       1.724   4.522  20.216  0.00  0.00    +0.000 A 
ATOM     20  C   UNL     1       0.732   3.543  20.247  0.00  0.00    +0.000 A 
ATOM     21  C   UNL     1       0.670   2.613  19.231  0.00  0.00    +0.000 A 
ATOM     22  C   UNL     1       1.682   2.593  18.277  0.00  0.00    +0.000 A 
ATOM     23  C   UNL     1       2.688   3.580  18.261  0.00  0.00    +0.000 A 
ATOM     24  C   UNL     1       3.765   3.461  17.380  0.00  0.00    +0.000 A 
ATOM     25  C   UNL     1       4.736   4.459  17.268  0.00  0.00    +0.000 A 
ATOM     26  C   UNL     1       5.874   4.223  16.477  0.00  0.00    +0.000 A 
ATOM     27  C   UNL     1       6.811   5.224  16.250  0.00  0.00    +0.000 A 
ATOM     28  C   UNL     1       6.578   6.492  16.754  0.00  0.00    +0.000 A 
ATOM     29  C   UNL     1       5.459   6.729  17.563  0.00  0.00    +0.000 A 
ATOM     30  C   UNL     1       4.545   5.699  17.919  0.00  0.00    +0.000 A 
ENDBRANCH  16  17
ENDBRANCH   2  16
TORSDOF 4
ENDMDL
