MODEL 1
REMARK VINA RESULT:      -7.3      0.000      0.000
REMARK  Name = 
REMARK  17 active torsions:
REMARK  status: ('A' for Active; 'I' for Inactive)
REMARK    1  A    between atoms: C_1  and  C_2
REMARK    2  A    between atoms: C_2  and  N_3
REMARK    3  A    between atoms: N_3  and  C_4
REMARK    4  A    between atoms: N_3  and  C_6
REMARK    5  A    between atoms: C_4  and  C_5
REMARK    6  A    between atoms: C_6  and  C_7
REMARK    7  A    between atoms: C_7  and  O_8
REMARK    8  A    between atoms: O_8  and  C_9
REMARK    9  A    between atoms: N_16  and  O_17
REMARK   10  A    between atoms: C_20  and  O_21
REMARK   11  A    between atoms: O_21  and  C_22
REMARK   12  A    between atoms: C_22  and  C_23
REMARK   13  A    between atoms: C_23  and  N_24
REMARK   14  A    between atoms: N_24  and  C_25
REMARK   15  A    between atoms: N_24  and  C_27
REMARK   16  A    between atoms: C_25  and  C_26
REMARK   17  A    between atoms: C_27  and  C_28
REMARK                            x       y       z     vdW  Elec       q    Type
REMARK                         _______ _______ _______ _____ _____    ______ ____
ROOT
ATOM      1  C   UNL     1       2.608   6.473  18.901  0.00  0.00    +0.000 A 
ATOM      2  C   UNL     1       2.149   5.957  20.142  0.00  0.00    +0.000 A 
ATOM      3  C   UNL     1       1.447   6.767  21.035  0.00  0.00    +0.000 A 
ATOM      4  C   UNL     1       1.199   8.089  20.673  0.00  0.00    +0.000 A 
ATOM      5  C   UNL     1       1.632   8.617  19.476  0.00  0.00    +0.000 A 
ATOM      6  C   UNL     1       2.354   7.825  18.571  0.00  0.00    +0.000 A 
ATOM      7  C   UNL     1       1.171  10.026  19.427  0.00  0.00    +0.000 C 
ATOM      8  N   UNL     1       1.344  10.885  18.483  0.00  0.00    +0.000 NA
ATOM      9  C   UNL     1       0.440  10.270  20.686  0.00  0.00    +0.000 A 
ATOM     10  C   UNL     1      -0.222  11.409  21.181  0.00  0.00    +0.000 A 
ATOM     11  C   UNL     1      -0.848  11.328  22.453  0.00  0.00    +0.000 A 
ATOM     12  C   UNL     1      -0.778  10.104  23.179  0.00  0.00    +0.000 A 
ATOM     13  C   UNL     1      -0.121   8.992  22.663  0.00  0.00    +0.000 A 
ATOM     14  C   UNL     1       0.475   9.101  21.419  0.00  0.00    +0.000 A 
ENDROOT
BRANCH   8  15
ATOM     15  O   UNL     1       2.002  10.582  17.386  0.00  0.00    +0.000 OA
ATOM     16  H   UNL     1       2.699   9.912  17.405  0.00  0.00    +0.000 HD
ENDBRANCH   8  15
BRANCH   1  17
ATOM     17  O   UNL     1       3.281   5.697  18.013  0.00  0.00    +0.000 OA
BRANCH  17  18
ATOM     18  C   UNL     1       2.925   4.410  17.653  0.00  0.00    +0.000 C 
BRANCH  18  19
ATOM     19  C   UNL     1       4.146   3.576  17.248  0.00  0.00    +0.000 C 
BRANCH  19  20
ATOM     20  N   UNL     1       5.354   4.377  16.923  0.00  0.00    +0.000 NA
BRANCH  20  22
ATOM     21  C   UNL     1       7.678   4.709  17.864  0.00  0.00    +0.000 C 
ATOM     22  C   UNL     1       6.184   4.519  18.148  0.00  0.00    +0.000 C 
ENDBRANCH  20  22
BRANCH  20  23
ATOM     23  C   UNL     1       6.099   3.923  15.722  0.00  0.00    +0.000 C 
ATOM     24  C   UNL     1       5.648   4.581  14.414  0.00  0.00    +0.000 C 
ENDBRANCH  20  23
ENDBRANCH  19  20
ENDBRANCH  18  19
ENDBRANCH  17  18
ENDBRANCH   1  17
BRANCH  11  25
ATOM     25  O   UNL     1      -1.507  12.409  22.967  0.00  0.00    +0.000 OA
BRANCH  25  26
ATOM     26  C   UNL     1      -2.825  12.348  23.403  0.00  0.00    +0.000 C 
BRANCH  26  27
ATOM     27  C   UNL     1      -3.844  12.767  22.336  0.00  0.00    +0.000 C 
BRANCH  27  28
ATOM     28  N   UNL     1      -5.261  12.432  22.634  0.00  0.00    +0.000 NA
BRANCH  28  29
ATOM     29  C   UNL     1      -5.726  12.846  23.988  0.00  0.00    +0.000 C 
ATOM     30  C   UNL     1      -7.199  13.276  24.059  0.00  0.00    +0.000 C 
ENDBRANCH  28  29
BRANCH  28  31
ATOM     31  C   UNL     1      -6.099  12.947  21.522  0.00  0.00    +0.000 C 
ATOM     32  C   UNL     1      -6.774  11.851  20.697  0.00  0.00    +0.000 C 
ENDBRANCH  28  31
ENDBRANCH  27  28
ENDBRANCH  26  27
ENDBRANCH  25  26
ENDBRANCH  11  25
TORSDOF 13
ENDMDL
MODEL 2
REMARK VINA RESULT:      -7.2      1.640     11.020
REMARK  Name = 
REMARK  17 active torsions:
REMARK  status: ('A' for Active; 'I' for Inactive)
REMARK    1  A    between atoms: C_1  and  C_2
REMARK    2  A    between atoms: C_2  and  N_3
REMARK    3  A    between atoms: N_3  and  C_4
REMARK    4  A    between atoms: N_3  and  C_6
REMARK    5  A    between atoms: C_4  and  C_5
REMARK    6  A    between atoms: C_6  and  C_7
REMARK    7  A    between atoms: C_7  and  O_8
REMARK    8  A    between atoms: O_8  and  C_9
REMARK    9  A    between atoms: N_16  and  O_17
REMARK   10  A    between atoms: C_20  and  O_21
REMARK   11  A    between atoms: O_21  and  C_22
REMARK   12  A    between atoms: C_22  and  C_23
REMARK   13  A    between atoms: C_23  and  N_24
REMARK   14  A    between atoms: N_24  and  C_25
REMARK   15  A    between atoms: N_24  and  C_27
REMARK   16  A    between atoms: C_25  and  C_26
REMARK   17  A    between atoms: C_27  and  C_28
REMARK                            x       y       z     vdW  Elec       q    Type
REMARK                         _______ _______ _______ _____ _____    ______ ____
ROOT
ATOM      1  C   UNL     1       0.231  10.693  21.553  0.00  0.00    +0.000 A 
ATOM      2  C   UNL     1       0.154   9.598  22.454  0.00  0.00    +0.000 A 
ATOM      3  C   UNL     1       0.611   8.335  22.080  0.00  0.00    +0.000 A 
ATOM      4  C   UNL     1       1.153   8.178  20.807  0.00  0.00    +0.000 A 
ATOM      5  C   UNL     1       1.241   9.221  19.912  0.00  0.00    +0.000 A 
ATOM      6  C   UNL     1       0.772  10.497  20.261  0.00  0.00    +0.000 A 
ATOM      7  C   UNL     1       1.885   8.692  18.685  0.00  0.00    +0.000 C 
ATOM      8  N   UNL     1       2.173   9.328  17.602  0.00  0.00    +0.000 NA
ATOM      9  C   UNL     1       2.162   7.265  18.941  0.00  0.00    +0.000 A 
ATOM     10  C   UNL     1       2.766   6.271  18.150  0.00  0.00    +0.000 A 
ATOM     11  C   UNL     1       2.894   4.964  18.690  0.00  0.00    +0.000 A 
ATOM     12  C   UNL     1       2.405   4.709  20.003  0.00  0.00    +0.000 A 
ATOM     13  C   UNL     1       1.817   5.713  20.764  0.00  0.00    +0.000 A 
ATOM     14  C   UNL     1       1.711   6.977  20.212  0.00  0.00    +0.000 A 
ENDROOT
BRANCH   8  15
ATOM     15  O   UNL     1       1.899  10.606  17.460  0.00  0.00    +0.000 OA
ATOM     16  H   UNL     1       1.251  10.896  16.803  0.00  0.00    +0.000 HD
ENDBRANCH   8  15
BRANCH   1  17
ATOM     17  O   UNL     1      -0.196  11.934  21.903  0.00  0.00    +0.000 OA
BRANCH  17  18
ATOM     18  C   UNL     1      -1.159  12.203  22.859  0.00  0.00    +0.000 C 
BRANCH  18  19
ATOM     19  C   UNL     1      -1.243  13.700  23.173  0.00  0.00    +0.000 C 
BRANCH  19  20
ATOM     20  N   UNL     1      -2.597  14.168  23.570  0.00  0.00    +0.000 NA
BRANCH  20  22
ATOM     21  C   UNL     1      -4.256  12.547  24.577  0.00  0.00    +0.000 C 
ATOM     22  C   UNL     1      -3.579  13.082  23.311  0.00  0.00    +0.000 C 
ENDBRANCH  20  22
BRANCH  20  23
ATOM     23  C   UNL     1      -2.678  14.763  24.927  0.00  0.00    +0.000 C 
ATOM     24  C   UNL     1      -1.365  15.372  25.429  0.00  0.00    +0.000 C 
ENDBRANCH  20  23
ENDBRANCH  19  20
ENDBRANCH  18  19
ENDBRANCH  17  18
ENDBRANCH   1  17
BRANCH  11  25
ATOM     25  O   UNL     1       3.481   3.970  17.957  0.00  0.00    +0.000 OA
BRANCH  25  26
ATOM     26  C   UNL     1       4.856   3.883  17.774  0.00  0.00    +0.000 C 
BRANCH  26  27
ATOM     27  C   UNL     1       5.275   3.815  16.301  0.00  0.00    +0.000 C 
BRANCH  27  28
ATOM     28  N   UNL     1       6.694   4.159  16.021  0.00  0.00    +0.000 NA
BRANCH  28  29
ATOM     29  C   UNL     1       6.919   4.869  14.731  0.00  0.00    +0.000 C 
ATOM     30  C   UNL     1       6.514   4.076  13.479  0.00  0.00    +0.000 C 
ENDBRANCH  28  29
BRANCH  28  31
ATOM     31  C   UNL     1       7.237   4.870  17.207  0.00  0.00    +0.000 C 
ATOM     32  C   UNL     1       7.232   6.392  17.071  0.00  0.00    +0.000 C 
ENDBRANCH  28  31
ENDBRANCH  27  28
ENDBRANCH  26  27
ENDBRANCH  25  26
ENDBRANCH  11  25
TORSDOF 13
ENDMDL
MODEL 3
REMARK VINA RESULT:      -7.2      1.178      1.315
REMARK  Name = 
REMARK  17 active torsions:
REMARK  status: ('A' for Active; 'I' for Inactive)
REMARK    1  A    between atoms: C_1  and  C_2
REMARK    2  A    between atoms: C_2  and  N_3
REMARK    3  A    between atoms: N_3  and  C_4
REMARK    4  A    between atoms: N_3  and  C_6
REMARK    5  A    between atoms: C_4  and  C_5
REMARK    6  A    between atoms: C_6  and  C_7
REMARK    7  A    between atoms: C_7  and  O_8
REMARK    8  A    between atoms: O_8  and  C_9
REMARK    9  A    between atoms: N_16  and  O_17
REMARK   10  A    between atoms: C_20  and  O_21
REMARK   11  A    between atoms: O_21  and  C_22
REMARK   12  A    between atoms: C_22  and  C_23
REMARK   13  A    between atoms: C_23  and  N_24
REMARK   14  A    between atoms: N_24  and  C_25
REMARK   15  A    between atoms: N_24  and  C_27
REMARK   16  A    between atoms: C_25  and  C_26
REMARK   17  A    between atoms: C_27  and  C_28
REMARK                            x       y       z     vdW  Elec       q    Type
REMARK                         _______ _______ _______ _____ _____    ______ ____
ROOT
ATOM      1  C   UNL     1       2.647   6.591  18.950  0.00  0.00    +0.000 A 
ATOM      2  C   UNL     1       2.131   6.068  20.165  0.00  0.00    +0.000 A 
ATOM      3  C   UNL     1       1.372   6.867  21.019  0.00  0.00    +0.000 A 
ATOM      4  C   UNL     1       1.124   8.185  20.644  0.00  0.00    +0.000 A 
ATOM      5  C   UNL     1       1.611   8.720  19.471  0.00  0.00    +0.000 A 
ATOM      6  C   UNL     1       2.391   7.938  18.605  0.00  0.00    +0.000 A 
ATOM      7  C   UNL     1       1.133  10.122  19.397  0.00  0.00    +0.000 C 
ATOM      8  N   UNL     1       1.342  10.984  18.463  0.00  0.00    +0.000 NA
ATOM      9  C   UNL     1       0.333  10.355  20.616  0.00  0.00    +0.000 A 
ATOM     10  C   UNL     1      -0.370  11.484  21.074  0.00  0.00    +0.000 A 
ATOM     11  C   UNL     1      -1.060  11.393  22.312  0.00  0.00    +0.000 A 
ATOM     12  C   UNL     1      -1.011  10.171  23.042  0.00  0.00    +0.000 A 
ATOM     13  C   UNL     1      -0.311   9.069  22.562  0.00  0.00    +0.000 A 
ATOM     14  C   UNL     1       0.347   9.187  21.350  0.00  0.00    +0.000 A 
ENDROOT
BRANCH   8  15
ATOM     15  O   UNL     1       2.061  10.690  17.402  0.00  0.00    +0.000 OA
ATOM     16  H   UNL     1       1.640  10.606  16.536  0.00  0.00    +0.000 HD
ENDBRANCH   8  15
BRANCH   1  17
ATOM     17  O   UNL     1       3.377   5.824  18.099  0.00  0.00    +0.000 OA
BRANCH  17  18
ATOM     18  C   UNL     1       4.759   5.758  18.075  0.00  0.00    +0.000 C 
BRANCH  18  19
ATOM     19  C   UNL     1       5.343   6.538  16.893  0.00  0.00    +0.000 C 
BRANCH  19  20
ATOM     20  N   UNL     1       6.764   6.223  16.593  0.00  0.00    +0.000 NA
BRANCH  20  22
ATOM     21  C   UNL     1       7.802   8.263  17.668  0.00  0.00    +0.000 C 
ATOM     22  C   UNL     1       7.617   6.743  17.694  0.00  0.00    +0.000 C 
ENDBRANCH  20  22
BRANCH  20  23
ATOM     23  C   UNL     1       7.025   4.809  16.224  0.00  0.00    +0.000 C 
ATOM     24  C   UNL     1       6.677   4.461  14.774  0.00  0.00    +0.000 C 
ENDBRANCH  20  23
ENDBRANCH  19  20
ENDBRANCH  18  19
ENDBRANCH  17  18
ENDBRANCH   1  17
BRANCH  11  25
ATOM     25  O   UNL     1      -1.762  12.465  22.791  0.00  0.00    +0.000 OA
BRANCH  25  26
ATOM     26  C   UNL     1      -2.719  12.350  23.791  0.00  0.00    +0.000 C 
BRANCH  26  27
ATOM     27  C   UNL     1      -3.920  13.284  23.602  0.00  0.00    +0.000 C 
BRANCH  27  28
ATOM     28  N   UNL     1      -5.166  12.636  23.116  0.00  0.00    +0.000 NA
BRANCH  28  29
ATOM     29  C   UNL     1      -6.304  12.675  24.077  0.00  0.00    +0.000 C 
ATOM     30  C   UNL     1      -7.697  12.640  23.430  0.00  0.00    +0.000 C 
ENDBRANCH  28  29
BRANCH  28  31
ATOM     31  C   UNL     1      -5.484  13.197  21.778  0.00  0.00    +0.000 C 
ATOM     32  C   UNL     1      -4.733  12.523  20.630  0.00  0.00    +0.000 C 
ENDBRANCH  28  31
ENDBRANCH  27  28
ENDBRANCH  26  27
ENDBRANCH  25  26
ENDBRANCH  11  25
TORSDOF 13
ENDMDL
MODEL 4
REMARK VINA RESULT:      -7.0      2.006     10.495
REMARK  Name = 
REMARK  17 active torsions:
REMARK  status: ('A' for Active; 'I' for Inactive)
REMARK    1  A    between atoms: C_1  and  C_2
REMARK    2  A    between atoms: C_2  and  N_3
REMARK    3  A    between atoms: N_3  and  C_4
REMARK    4  A    between atoms: N_3  and  C_6
REMARK    5  A    between atoms: C_4  and  C_5
REMARK    6  A    between atoms: C_6  and  C_7
REMARK    7  A    between atoms: C_7  and  O_8
REMARK    8  A    between atoms: O_8  and  C_9
REMARK    9  A    between atoms: N_16  and  O_17
REMARK   10  A    between atoms: C_20  and  O_21
REMARK   11  A    between atoms: O_21  and  C_22
REMARK   12  A    between atoms: C_22  and  C_23
REMARK   13  A    between atoms: C_23  and  N_24
REMARK   14  A    between atoms: N_24  and  C_25
REMARK   15  A    between atoms: N_24  and  C_27
REMARK   16  A    between atoms: C_25  and  C_26
REMARK   17  A    between atoms: C_27  and  C_28
REMARK                            x       y       z     vdW  Elec       q    Type
REMARK                         _______ _______ _______ _____ _____    ______ ____
ROOT
ATOM      1  C   UNL     1      -1.750  12.743  20.338  0.00  0.00    +0.000 A 
ATOM      2  C   UNL     1      -1.356  12.687  18.975  0.00  0.00    +0.000 A 
ATOM      3  C   UNL     1      -0.487  11.693  18.525  0.00  0.00    +0.000 A 
ATOM      4  C   UNL     1      -0.025  10.754  19.443  0.00  0.00    +0.000 A 
ATOM      5  C   UNL     1      -0.390  10.783  20.771  0.00  0.00    +0.000 A 
ATOM      6  C   UNL     1      -1.250  11.784  21.249  0.00  0.00    +0.000 A 
ATOM      7  C   UNL     1       0.268   9.630  21.432  0.00  0.00    +0.000 C 
ATOM      8  N   UNL     1       0.189   9.272  22.667  0.00  0.00    +0.000 NA
ATOM      9  C   UNL     1       1.040   8.933  20.384  0.00  0.00    +0.000 A 
ATOM     10  C   UNL     1       1.843   7.779  20.423  0.00  0.00    +0.000 A 
ATOM     11  C   UNL     1       2.463   7.347  19.221  0.00  0.00    +0.000 A 
ATOM     12  C   UNL     1       2.255   8.099  18.028  0.00  0.00    +0.000 A 
ATOM     13  C   UNL     1       1.451   9.233  18.019  0.00  0.00    +0.000 A 
ATOM     14  C   UNL     1       0.855   9.625  19.205  0.00  0.00    +0.000 A 
ENDROOT
BRANCH   8  15
ATOM     15  O   UNL     1      -0.531   9.946  23.537  0.00  0.00    +0.000 OA
ATOM     16  H   UNL     1      -1.063  10.700  23.249  0.00  0.00    +0.000 HD
ENDBRANCH   8  15
BRANCH   1  17
ATOM     17  O   UNL     1      -2.605  13.695  20.792  0.00  0.00    +0.000 OA
BRANCH  17  18
ATOM     18  C   UNL     1      -3.978  13.552  20.885  0.00  0.00    +0.000 C 
BRANCH  18  19
ATOM     19  C   UNL     1      -4.445  13.500  22.343  0.00  0.00    +0.000 C 
BRANCH  19  20
ATOM     20  N   UNL     1      -5.603  12.599  22.585  0.00  0.00    +0.000 NA
BRANCH  20  22
ATOM     21  C   UNL     1      -4.677  12.385  24.928  0.00  0.00    +0.000 C 
ATOM     22  C   UNL     1      -5.908  12.584  24.039  0.00  0.00    +0.000 C 
ENDBRANCH  20  22
BRANCH  20  23
ATOM     23  C   UNL     1      -6.776  12.843  21.709  0.00  0.00    +0.000 C 
ATOM     24  C   UNL     1      -7.332  11.585  21.034  0.00  0.00    +0.000 C 
ENDBRANCH  20  23
ENDBRANCH  19  20
ENDBRANCH  18  19
ENDBRANCH  17  18
ENDBRANCH   1  17
BRANCH  11  25
ATOM     25  O   UNL     1       3.247   6.227  19.213  0.00  0.00    +0.000 OA
BRANCH  25  26
ATOM     26  C   UNL     1       2.948   5.096  19.961  0.00  0.00    +0.000 C 
BRANCH  26  27
ATOM     27  C   UNL     1       3.855   3.898  19.653  0.00  0.00    +0.000 C 
BRANCH  27  28
ATOM     28  N   UNL     1       3.235   2.814  18.848  0.00  0.00    +0.000 NA
BRANCH  28  29
ATOM     29  C   UNL     1       2.042   2.177  19.475  0.00  0.00    +0.000 C 
ATOM     30  C   UNL     1       0.709   2.474  18.772  0.00  0.00    +0.000 C 
ENDBRANCH  28  29
BRANCH  28  31
ATOM     31  C   UNL     1       2.992   3.339  17.480  0.00  0.00    +0.000 C 
ATOM     32  C   UNL     1       4.253   3.842  16.777  0.00  0.00    +0.000 C 
ENDBRANCH  28  31
ENDBRANCH  27  28
ENDBRANCH  26  27
ENDBRANCH  25  26
ENDBRANCH  11  25
TORSDOF 13
ENDMDL
MODEL 5
REMARK VINA RESULT:      -6.9      0.861     10.906
REMARK  Name = 
REMARK  17 active torsions:
REMARK  status: ('A' for Active; 'I' for Inactive)
REMARK    1  A    between atoms: C_1  and  C_2
REMARK    2  A    between atoms: C_2  and  N_3
REMARK    3  A    between atoms: N_3  and  C_4
REMARK    4  A    between atoms: N_3  and  C_6
REMARK    5  A    between atoms: C_4  and  C_5
REMARK    6  A    between atoms: C_6  and  C_7
REMARK    7  A    between atoms: C_7  and  O_8
REMARK    8  A    between atoms: O_8  and  C_9
REMARK    9  A    between atoms: N_16  and  O_17
REMARK   10  A    between atoms: C_20  and  O_21
REMARK   11  A    between atoms: O_21  and  C_22
REMARK   12  A    between atoms: C_22  and  C_23
REMARK   13  A    between atoms: C_23  and  N_24
REMARK   14  A    between atoms: N_24  and  C_25
REMARK   15  A    between atoms: N_24  and  C_27
REMARK   16  A    between atoms: C_25  and  C_26
REMARK   17  A    between atoms: C_27  and  C_28
REMARK                            x       y       z     vdW  Elec       q    Type
REMARK                         _______ _______ _______ _____ _____    ______ ____
ROOT
ATOM      1  C   UNL     1      -0.796  11.330  22.455  0.00  0.00    +0.000 A 
ATOM      2  C   UNL     1      -0.653  10.093  23.139  0.00  0.00    +0.000 A 
ATOM      3  C   UNL     1       0.002   9.018  22.538  0.00  0.00    +0.000 A 
ATOM      4  C   UNL     1       0.521   9.193  21.258  0.00  0.00    +0.000 A 
ATOM      5  C   UNL     1       0.399  10.380  20.570  0.00  0.00    +0.000 A 
ATOM      6  C   UNL     1      -0.271  11.469  21.149  0.00  0.00    +0.000 A 
ATOM      7  C   UNL     1       1.083  10.205  19.267  0.00  0.00    +0.000 C 
ATOM      8  N   UNL     1       1.222  11.067  18.320  0.00  0.00    +0.000 NA
ATOM      9  C   UNL     1       1.611   8.826  19.254  0.00  0.00    +0.000 A 
ATOM     10  C   UNL     1       2.351   8.113  18.294  0.00  0.00    +0.000 A 
ATOM     11  C   UNL     1       2.720   6.773  18.583  0.00  0.00    +0.000 A 
ATOM     12  C   UNL     1       2.325   6.202  19.827  0.00  0.00    +0.000 A 
ATOM     13  C   UNL     1       1.598   6.932  20.760  0.00  0.00    +0.000 A 
ATOM     14  C   UNL     1       1.258   8.237  20.451  0.00  0.00    +0.000 A 
ENDROOT
BRANCH   8  15
ATOM     15  O   UNL     1       0.728  12.282  18.416  0.00  0.00    +0.000 OA
ATOM     16  H   UNL     1       1.317  13.042  18.510  0.00  0.00    +0.000 HD
ENDBRANCH   8  15
BRANCH   1  17
ATOM     17  O   UNL     1      -1.419  12.391  23.028  0.00  0.00    +0.000 OA
BRANCH  17  18
ATOM     18  C   UNL     1      -2.777  12.478  23.274  0.00  0.00    +0.000 C 
BRANCH  18  19
ATOM     19  C   UNL     1      -3.575  12.686  21.983  0.00  0.00    +0.000 C 
BRANCH  19  20
ATOM     20  N   UNL     1      -4.892  13.347  22.175  0.00  0.00    +0.000 NA
BRANCH  20  22
ATOM     21  C   UNL     1      -6.734  13.532  20.453  0.00  0.00    +0.000 C 
ATOM     22  C   UNL     1      -5.917  12.625  21.378  0.00  0.00    +0.000 C 
ENDBRANCH  20  22
BRANCH  20  23
ATOM     23  C   UNL     1      -5.268  13.589  23.591  0.00  0.00    +0.000 C 
ATOM     24  C   UNL     1      -6.458  12.758  24.078  0.00  0.00    +0.000 C 
ENDBRANCH  20  23
ENDBRANCH  19  20
ENDBRANCH  18  19
ENDBRANCH  17  18
ENDBRANCH   1  17
BRANCH  11  25
ATOM     25  O   UNL     1       3.445   6.047  17.679  0.00  0.00    +0.000 OA
BRANCH  25  26
ATOM     26  C   UNL     1       3.981   4.800  17.975  0.00  0.00    +0.000 C 
BRANCH  26  27
ATOM     27  C   UNL     1       5.490   4.828  18.244  0.00  0.00    +0.000 C 
BRANCH  27  28
ATOM     28  N   UNL     1       6.358   4.615  17.057  0.00  0.00    +0.000 NA
BRANCH  28  29
ATOM     29  C   UNL     1       5.712   3.871  15.939  0.00  0.00    +0.000 C 
ATOM     30  C   UNL     1       6.045   4.399  14.535  0.00  0.00    +0.000 C 
ENDBRANCH  28  29
BRANCH  28  31
ATOM     31  C   UNL     1       6.926   5.929  16.661  0.00  0.00    +0.000 C 
ATOM     32  C   UNL     1       7.492   6.736  17.829  0.00  0.00    +0.000 C 
ENDBRANCH  28  31
ENDBRANCH  27  28
ENDBRANCH  26  27
ENDBRANCH  25  26
ENDBRANCH  11  25
TORSDOF 13
ENDMDL
MODEL 6
REMARK VINA RESULT:      -6.9      1.283      2.173
REMARK  Name = 
REMARK  17 active torsions:
REMARK  status: ('A' for Active; 'I' for Inactive)
REMARK    1  A    between atoms: C_1  and  C_2
REMARK    2  A    between atoms: C_2  and  N_3
REMARK    3  A    between atoms: N_3  and  C_4
REMARK    4  A    between atoms: N_3  and  C_6
REMARK    5  A    between atoms: C_4  and  C_5
REMARK    6  A    between atoms: C_6  and  C_7
REMARK    7  A    between atoms: C_7  and  O_8
REMARK    8  A    between atoms: O_8  and  C_9
REMARK    9  A    between atoms: N_16  and  O_17
REMARK   10  A    between atoms: C_20  and  O_21
REMARK   11  A    between atoms: O_21  and  C_22
REMARK   12  A    between atoms: C_22  and  C_23
REMARK   13  A    between atoms: C_23  and  N_24
REMARK   14  A    between atoms: N_24  and  C_25
REMARK   15  A    between atoms: N_24  and  C_27
REMARK   16  A    between atoms: C_25  and  C_26
REMARK   17  A    between atoms: C_27  and  C_28
REMARK                            x       y       z     vdW  Elec       q    Type
REMARK                         _______ _______ _______ _____ _____    ______ ____
ROOT
ATOM      1  C   UNL     1       2.725   6.491  18.760  0.00  0.00    +0.000 A 
ATOM      2  C   UNL     1       2.262   5.924  19.977  0.00  0.00    +0.000 A 
ATOM      3  C   UNL     1       1.534   6.689  20.888  0.00  0.00    +0.000 A 
ATOM      4  C   UNL     1       1.264   8.017  20.569  0.00  0.00    +0.000 A 
ATOM      5  C   UNL     1       1.699   8.594  19.396  0.00  0.00    +0.000 A 
ATOM      6  C   UNL     1       2.448   7.848  18.473  0.00  0.00    +0.000 A 
ATOM      7  C   UNL     1       1.211   9.994  19.390  0.00  0.00    +0.000 C 
ATOM      8  N   UNL     1       1.377  10.889  18.478  0.00  0.00    +0.000 NA
ATOM      9  C   UNL     1       0.460  10.181  20.647  0.00  0.00    +0.000 A 
ATOM     10  C   UNL     1      -0.230  11.288  21.172  0.00  0.00    +0.000 A 
ATOM     11  C   UNL     1      -0.869  11.151  22.433  0.00  0.00    +0.000 A 
ATOM     12  C   UNL     1      -0.783   9.905  23.118  0.00  0.00    +0.000 A 
ATOM     13  C   UNL     1      -0.097   8.825  22.572  0.00  0.00    +0.000 A 
ATOM     14  C   UNL     1       0.510   8.988  21.339  0.00  0.00    +0.000 A 
ENDROOT
BRANCH   8  15
ATOM     15  O   UNL     1       2.054  10.637  17.379  0.00  0.00    +0.000 OA
ATOM     16  H   UNL     1       1.863   9.844  16.861  0.00  0.00    +0.000 HD
ENDBRANCH   8  15
BRANCH   1  17
ATOM     17  O   UNL     1       3.424   5.760  17.855  0.00  0.00    +0.000 OA
BRANCH  17  18
ATOM     18  C   UNL     1       3.981   4.516  18.097  0.00  0.00    +0.000 C 
BRANCH  18  19
ATOM     19  C   UNL     1       5.479   4.614  18.401  0.00  0.00    +0.000 C 
BRANCH  19  20
ATOM     20  N   UNL     1       6.333   4.849  17.208  0.00  0.00    +0.000 NA
BRANCH  20  22
ATOM     21  C   UNL     1       6.550   4.269  14.756  0.00  0.00    +0.000 C 
ATOM     22  C   UNL     1       5.846   4.000  16.090  0.00  0.00    +0.000 C 
ENDBRANCH  20  22
BRANCH  20  23
ATOM     23  C   UNL     1       6.534   6.278  16.856  0.00  0.00    +0.000 C 
ATOM     24  C   UNL     1       7.555   7.006  17.735  0.00  0.00    +0.000 C 
ENDBRANCH  20  23
ENDBRANCH  19  20
ENDBRANCH  18  19
ENDBRANCH  17  18
ENDBRANCH   1  17
BRANCH  11  25
ATOM     25  O   UNL     1      -1.556  12.201  22.976  0.00  0.00    +0.000 OA
BRANCH  25  26
ATOM     26  C   UNL     1      -2.780  12.047  23.615  0.00  0.00    +0.000 C 
BRANCH  26  27
ATOM     27  C   UNL     1      -3.830  13.080  23.188  0.00  0.00    +0.000 C 
BRANCH  27  28
ATOM     28  N   UNL     1      -3.416  14.003  22.098  0.00  0.00    +0.000 NA
BRANCH  28  29
ATOM     29  C   UNL     1      -4.072  13.749  20.785  0.00  0.00    +0.000 C 
ATOM     30  C   UNL     1      -3.452  12.607  19.965  0.00  0.00    +0.000 C 
ENDBRANCH  28  29
BRANCH  28  31
ATOM     31  C   UNL     1      -3.569  15.395  22.592  0.00  0.00    +0.000 C 
ATOM     32  C   UNL     1      -4.260  15.496  23.952  0.00  0.00    +0.000 C 
ENDBRANCH  28  31
ENDBRANCH  27  28
ENDBRANCH  26  27
ENDBRANCH  25  26
ENDBRANCH  11  25
TORSDOF 13
ENDMDL
MODEL 7
REMARK VINA RESULT:      -6.9      1.629     10.214
REMARK  Name = 
REMARK  17 active torsions:
REMARK  status: ('A' for Active; 'I' for Inactive)
REMARK    1  A    between atoms: C_1  and  C_2
REMARK    2  A    between atoms: C_2  and  N_3
REMARK    3  A    between atoms: N_3  and  C_4
REMARK    4  A    between atoms: N_3  and  C_6
REMARK    5  A    between atoms: C_4  and  C_5
REMARK    6  A    between atoms: C_6  and  C_7
REMARK    7  A    between atoms: C_7  and  O_8
REMARK    8  A    between atoms: O_8  and  C_9
REMARK    9  A    between atoms: N_16  and  O_17
REMARK   10  A    between atoms: C_20  and  O_21
REMARK   11  A    between atoms: O_21  and  C_22
REMARK   12  A    between atoms: C_22  and  C_23
REMARK   13  A    between atoms: C_23  and  N_24
REMARK   14  A    between atoms: N_24  and  C_25
REMARK   15  A    between atoms: N_24  and  C_27
REMARK   16  A    between atoms: C_25  and  C_26
REMARK   17  A    between atoms: C_27  and  C_28
REMARK                            x       y       z     vdW  Elec       q    Type
REMARK                         _______ _______ _______ _____ _____    ______ ____
ROOT
ATOM      1  C   UNL     1       0.507  10.826  21.567  0.00  0.00    +0.000 A 
ATOM      2  C   UNL     1       0.394   9.744  22.480  0.00  0.00    +0.000 A 
ATOM      3  C   UNL     1       0.754   8.451  22.101  0.00  0.00    +0.000 A 
ATOM      4  C   UNL     1       1.237   8.251  20.810  0.00  0.00    +0.000 A 
ATOM      5  C   UNL     1       1.358   9.281  19.903  0.00  0.00    +0.000 A 
ATOM      6  C   UNL     1       0.986  10.587  20.257  0.00  0.00    +0.000 A 
ATOM      7  C   UNL     1       1.920   8.704  18.658  0.00  0.00    +0.000 C 
ATOM      8  N   UNL     1       2.207   9.313  17.559  0.00  0.00    +0.000 NA
ATOM      9  C   UNL     1       2.114   7.263  18.915  0.00  0.00    +0.000 A 
ATOM     10  C   UNL     1       2.623   6.227  18.112  0.00  0.00    +0.000 A 
ATOM     11  C   UNL     1       2.687   4.918  18.658  0.00  0.00    +0.000 A 
ATOM     12  C   UNL     1       2.231   4.703  19.990  0.00  0.00    +0.000 A 
ATOM     13  C   UNL     1       1.738   5.748  20.764  0.00  0.00    +0.000 A 
ATOM     14  C   UNL     1       1.693   7.013  20.205  0.00  0.00    +0.000 A 
ENDROOT
BRANCH   8  15
ATOM     15  O   UNL     1       2.012  10.605  17.416  0.00  0.00    +0.000 OA
ATOM     16  H   UNL     1       2.445  11.233  18.010  0.00  0.00    +0.000 HD
ENDBRANCH   8  15
BRANCH   1  17
ATOM     17  O   UNL     1       0.174  12.093  21.921  0.00  0.00    +0.000 OA
BRANCH  17  18
ATOM     18  C   UNL     1      -0.705  12.908  21.230  0.00  0.00    +0.000 C 
BRANCH  18  19
ATOM     19  C   UNL     1      -2.064  12.232  21.028  0.00  0.00    +0.000 C 
BRANCH  19  20
ATOM     20  N   UNL     1      -2.939  12.899  20.028  0.00  0.00    +0.000 NA
BRANCH  20  22
ATOM     21  C   UNL     1      -2.160  10.782  18.885  0.00  0.00    +0.000 C 
ATOM     22  C   UNL     1      -2.978  12.074  18.793  0.00  0.00    +0.000 C 
ENDBRANCH  20  22
BRANCH  20  23
ATOM     23  C   UNL     1      -4.270  13.310  20.540  0.00  0.00    +0.000 C 
ATOM     24  C   UNL     1      -4.669  12.650  21.863  0.00  0.00    +0.000 C 
ENDBRANCH  20  23
ENDBRANCH  19  20
ENDBRANCH  18  19
ENDBRANCH  17  18
ENDBRANCH   1  17
BRANCH  11  25
ATOM     25  O   UNL     1       3.180   3.883  17.913  0.00  0.00    +0.000 OA
BRANCH  25  26
ATOM     26  C   UNL     1       4.541   3.675  17.725  0.00  0.00    +0.000 C 
BRANCH  26  27
ATOM     27  C   UNL     1       5.019   3.988  16.302  0.00  0.00    +0.000 C 
BRANCH  27  28
ATOM     28  N   UNL     1       5.941   5.146  16.175  0.00  0.00    +0.000 NA
BRANCH  28  29
ATOM     29  C   UNL     1       6.423   5.703  17.470  0.00  0.00    +0.000 C 
ATOM     30  C   UNL     1       7.319   6.944  17.345  0.00  0.00    +0.000 C 
ENDBRANCH  28  29
BRANCH  28  31
ATOM     31  C   UNL     1       7.029   4.767  15.236  0.00  0.00    +0.000 C 
ATOM     32  C   UNL     1       6.531   4.308  13.866  0.00  0.00    +0.000 C 
ENDBRANCH  28  31
ENDBRANCH  27  28
ENDBRANCH  26  27
ENDBRANCH  25  26
ENDBRANCH  11  25
TORSDOF 13
ENDMDL
MODEL 8
REMARK VINA RESULT:      -6.9      2.610      9.929
REMARK  Name = 
REMARK  17 active torsions:
REMARK  status: ('A' for Active; 'I' for Inactive)
REMARK    1  A    between atoms: C_1  and  C_2
REMARK    2  A    between atoms: C_2  and  N_3
REMARK    3  A    between atoms: N_3  and  C_4
REMARK    4  A    between atoms: N_3  and  C_6
REMARK    5  A    between atoms: C_4  and  C_5
REMARK    6  A    between atoms: C_6  and  C_7
REMARK    7  A    between atoms: C_7  and  O_8
REMARK    8  A    between atoms: O_8  and  C_9
REMARK    9  A    between atoms: N_16  and  O_17
REMARK   10  A    between atoms: C_20  and  O_21
REMARK   11  A    between atoms: O_21  and  C_22
REMARK   12  A    between atoms: C_22  and  C_23
REMARK   13  A    between atoms: C_23  and  N_24
REMARK   14  A    between atoms: N_24  and  C_25
REMARK   15  A    between atoms: N_24  and  C_27
REMARK   16  A    between atoms: C_25  and  C_26
REMARK   17  A    between atoms: C_27  and  C_28
REMARK                            x       y       z     vdW  Elec       q    Type
REMARK                         _______ _______ _______ _____ _____    ______ ____
ROOT
ATOM      1  C   UNL     1      -1.600  12.360  20.288  0.00  0.00    +0.000 A 
ATOM      2  C   UNL     1      -1.070  12.547  18.984  0.00  0.00    +0.000 A 
ATOM      3  C   UNL     1      -0.147  11.646  18.453  0.00  0.00    +0.000 A 
ATOM      4  C   UNL     1       0.231  10.554  19.230  0.00  0.00    +0.000 A 
ATOM      5  C   UNL     1      -0.265  10.346  20.498  0.00  0.00    +0.000 A 
ATOM      6  C   UNL     1      -1.182  11.249  21.058  0.00  0.00    +0.000 A 
ATOM      7  C   UNL     1       0.338   9.089  21.003  0.00  0.00    +0.000 C 
ATOM      8  N   UNL     1       0.140   8.515  22.140  0.00  0.00    +0.000 NA
ATOM      9  C   UNL     1       1.220   8.588  19.931  0.00  0.00    +0.000 A 
ATOM     10  C   UNL     1       2.030   7.442  19.843  0.00  0.00    +0.000 A 
ATOM     11  C   UNL     1       2.774   7.231  18.652  0.00  0.00    +0.000 A 
ATOM     12  C   UNL     1       2.677   8.186  17.599  0.00  0.00    +0.000 A 
ATOM     13  C   UNL     1       1.863   9.308  17.712  0.00  0.00    +0.000 A 
ATOM     14  C   UNL     1       1.146   9.482  18.883  0.00  0.00    +0.000 A 
ENDROOT
BRANCH   8  15
ATOM     15  O   UNL     1      -0.673   9.025  23.038  0.00  0.00    +0.000 OA
ATOM     16  H   UNL     1      -1.599   8.749  23.071  0.00  0.00    +0.000 HD
ENDBRANCH   8  15
BRANCH   1  17
ATOM     17  O   UNL     1      -2.509  13.218  20.817  0.00  0.00    +0.000 OA
BRANCH  17  18
ATOM     18  C   UNL     1      -3.838  12.920  21.058  0.00  0.00    +0.000 C 
BRANCH  18  19
ATOM     19  C   UNL     1      -4.694  13.082  19.798  0.00  0.00    +0.000 C 
BRANCH  19  20
ATOM     20  N   UNL     1      -5.440  11.859  19.402  0.00  0.00    +0.000 NA
BRANCH  20  22
ATOM     21  C   UNL     1      -7.463  10.875  20.555  0.00  0.00    +0.000 C 
ATOM     22  C   UNL     1      -6.875  12.035  19.746  0.00  0.00    +0.000 C 
ENDBRANCH  20  22
BRANCH  20  23
ATOM     23  C   UNL     1      -5.189  11.399  18.013  0.00  0.00    +0.000 C 
ATOM     24  C   UNL     1      -3.894  10.600  17.837  0.00  0.00    +0.000 C 
ENDBRANCH  20  23
ENDBRANCH  19  20
ENDBRANCH  18  19
ENDBRANCH  17  18
ENDBRANCH   1  17
BRANCH  11  25
ATOM     25  O   UNL     1       3.569   6.126  18.522  0.00  0.00    +0.000 OA
BRANCH  25  26
ATOM     26  C   UNL     1       4.117   5.463  19.613  0.00  0.00    +0.000 C 
BRANCH  26  27
ATOM     27  C   UNL     1       4.395   3.978  19.352  0.00  0.00    +0.000 C 
BRANCH  27  28
ATOM     28  N   UNL     1       3.353   3.035  19.834  0.00  0.00    +0.000 NA
BRANCH  28  29
ATOM     29  C   UNL     1       2.284   3.660  20.664  0.00  0.00    +0.000 C 
ATOM     30  C   UNL     1       1.809   2.810  21.852  0.00  0.00    +0.000 C 
ENDBRANCH  28  29
BRANCH  28  31
ATOM     31  C   UNL     1       2.844   2.274  18.664  0.00  0.00    +0.000 C 
ATOM     32  C   UNL     1       1.460   2.718  18.192  0.00  0.00    +0.000 C 
ENDBRANCH  28  31
ENDBRANCH  27  28
ENDBRANCH  26  27
ENDBRANCH  25  26
ENDBRANCH  11  25
TORSDOF 13
ENDMDL
MODEL 9
REMARK VINA RESULT:      -6.8      2.306     10.607
REMARK  Name = 
REMARK  17 active torsions:
REMARK  status: ('A' for Active; 'I' for Inactive)
REMARK    1  A    between atoms: C_1  and  C_2
REMARK    2  A    between atoms: C_2  and  N_3
REMARK    3  A    between atoms: N_3  and  C_4
REMARK    4  A    between atoms: N_3  and  C_6
REMARK    5  A    between atoms: C_4  and  C_5
REMARK    6  A    between atoms: C_6  and  C_7
REMARK    7  A    between atoms: C_7  and  O_8
REMARK    8  A    between atoms: O_8  and  C_9
REMARK    9  A    between atoms: N_16  and  O_17
REMARK   10  A    between atoms: C_20  and  O_21
REMARK   11  A    between atoms: O_21  and  C_22
REMARK   12  A    between atoms: C_22  and  C_23
REMARK   13  A    between atoms: C_23  and  N_24
REMARK   14  A    between atoms: N_24  and  C_25
REMARK   15  A    between atoms: N_24  and  C_27
REMARK   16  A    between atoms: C_25  and  C_26
REMARK   17  A    between atoms: C_27  and  C_28
REMARK                            x       y       z     vdW  Elec       q    Type
REMARK                         _______ _______ _______ _____ _____    ______ ____
ROOT
ATOM      1  C   UNL     1      -1.973  12.637  21.559  0.00  0.00    +0.000 A 
ATOM      2  C   UNL     1      -1.982  12.738  20.142  0.00  0.00    +0.000 A 
ATOM      3  C   UNL     1      -1.193  11.892  19.362  0.00  0.00    +0.000 A 
ATOM      4  C   UNL     1      -0.408  10.940  20.007  0.00  0.00    +0.000 A 
ATOM      5  C   UNL     1      -0.379  10.818  21.379  0.00  0.00    +0.000 A 
ATOM      6  C   UNL     1      -1.151  11.670  22.184  0.00  0.00    +0.000 A 
ATOM      7  C   UNL     1       0.539   9.699  21.700  0.00  0.00    +0.000 C 
ATOM      8  N   UNL     1       0.848   9.233  22.861  0.00  0.00    +0.000 NA
ATOM      9  C   UNL     1       1.037   9.184  20.409  0.00  0.00    +0.000 A 
ATOM     10  C   UNL     1       1.916   8.131  20.095  0.00  0.00    +0.000 A 
ATOM     11  C   UNL     1       2.202   7.875  18.728  0.00  0.00    +0.000 A 
ATOM     12  C   UNL     1       1.596   8.692  17.731  0.00  0.00    +0.000 A 
ATOM     13  C   UNL     1       0.727   9.723  18.071  0.00  0.00    +0.000 A 
ATOM     14  C   UNL     1       0.463   9.945  19.411  0.00  0.00    +0.000 A 
ENDROOT
BRANCH   8  15
ATOM     15  O   UNL     1       0.350   9.746  23.964  0.00  0.00    +0.000 OA
ATOM     16  H   UNL     1      -0.592   9.953  24.024  0.00  0.00    +0.000 HD
ENDBRANCH   8  15
BRANCH   1  17
ATOM     17  O   UNL     1      -2.743  13.443  22.334  0.00  0.00    +0.000 OA
BRANCH  17  18
ATOM     18  C   UNL     1      -3.963  13.977  21.960  0.00  0.00    +0.000 C 
BRANCH  18  19
ATOM     19  C   UNL     1      -5.125  13.311  22.703  0.00  0.00    +0.000 C 
BRANCH  19  20
ATOM     20  N   UNL     1      -6.321  13.049  21.861  0.00  0.00    +0.000 NA
BRANCH  20  22
ATOM     21  C   UNL     1      -6.629  12.481  19.417  0.00  0.00    +0.000 C 
ATOM     22  C   UNL     1      -5.937  12.149  20.742  0.00  0.00    +0.000 C 
ENDBRANCH  20  22
BRANCH  20  23
ATOM     23  C   UNL     1      -7.530  12.622  22.610  0.00  0.00    +0.000 C 
ATOM     24  C   UNL     1      -7.619  13.178  24.034  0.00  0.00    +0.000 C 
ENDBRANCH  20  23
ENDBRANCH  19  20
ENDBRANCH  18  19
ENDBRANCH  17  18
ENDBRANCH   1  17
BRANCH  11  25
ATOM     25  O   UNL     1       3.046   6.857  18.380  0.00  0.00    +0.000 OA
BRANCH  25  26
ATOM     26  C   UNL     1       2.740   5.520  18.597  0.00  0.00    +0.000 C 
BRANCH  26  27
ATOM     27  C   UNL     1       3.608   4.858  19.673  0.00  0.00    +0.000 C 
BRANCH  27  28
ATOM     28  N   UNL     1       3.335   3.418  19.922  0.00  0.00    +0.000 NA
BRANCH  28  29
ATOM     29  C   UNL     1       2.679   3.125  21.227  0.00  0.00    +0.000 C 
ATOM     30  C   UNL     1       1.167   2.865  21.145  0.00  0.00    +0.000 C 
ENDBRANCH  28  29
BRANCH  28  31
ATOM     31  C   UNL     1       2.609   2.877  18.744  0.00  0.00    +0.000 C 
ATOM     32  C   UNL     1       3.363   1.771  18.007  0.00  0.00    +0.000 C 
ENDBRANCH  28  31
ENDBRANCH  27  28
ENDBRANCH  26  27
ENDBRANCH  25  26
ENDBRANCH  11  25
TORSDOF 13
ENDMDL
