MODEL 1
REMARK VINA RESULT:      -4.7      0.000      0.000
REMARK  Name = 
REMARK  8 active torsions:
REMARK  status: ('A' for Active; 'I' for Inactive)
REMARK    1  A    between atoms: C_1  and  C_2
REMARK    2  A    between atoms: C_2  and  C_3
REMARK    3  A    between atoms: C_3  and  C_4
REMARK    4  A    between atoms: C_4  and  C_5
REMARK    5  A    between atoms: C_5  and  C_6
REMARK    6  A    between atoms: C_6  and  C_7
REMARK    7  A    between atoms: C_6  and  C_8
REMARK    8  A    between atoms: C_8  and  O_10
REMARK                            x       y       z     vdW  Elec       q    Type
REMARK                         _______ _______ _______ _____ _____    ______ ____
ROOT
ATOM      1  C   UNL     1       4.019   4.329  17.536  0.00  0.00    +0.000 C 
ATOM      2  C   UNL     1       4.784   5.348  16.691  0.00  0.00    +0.000 C 
ENDROOT
BRANCH   1   3
ATOM      3  C   UNL     1       4.919   3.820  18.652  0.00  0.00    +0.000 C 
ATOM      4  O   UNL     1       4.522   3.277  19.673  0.00  0.00    +0.000 OA
BRANCH   3   5
ATOM      5  O   UNL     1       6.238   3.995  18.401  0.00  0.00    +0.000 OA
ATOM      6  H   UNL     1       6.575   4.876  18.650  0.00  0.00    +0.000 HD
ENDBRANCH   3   5
ENDBRANCH   1   3
BRANCH   1   7
ATOM      7  C   UNL     1       2.737   4.908  18.154  0.00  0.00    +0.000 C 
BRANCH   7   8
ATOM      8  C   UNL     1       1.480   4.118  17.780  0.00  0.00    +0.000 C 
BRANCH   8   9
ATOM      9  C   UNL     1       1.121   3.090  18.851  0.00  0.00    +0.000 C 
BRANCH   9  11
ATOM     10  C   UNL     1       1.382   2.792  21.339  0.00  0.00    +0.000 C 
ATOM     11  C   UNL     1       1.000   3.750  20.224  0.00  0.00    +0.000 C 
ENDBRANCH   9  11
ENDBRANCH   8   9
ENDBRANCH   7   8
ENDBRANCH   1   7
TORSDOF 6
ENDMDL
MODEL 2
REMARK VINA RESULT:      -4.6      3.963      6.322
REMARK  Name = 
REMARK  8 active torsions:
REMARK  status: ('A' for Active; 'I' for Inactive)
REMARK    1  A    between atoms: C_1  and  C_2
REMARK    2  A    between atoms: C_2  and  C_3
REMARK    3  A    between atoms: C_3  and  C_4
REMARK    4  A    between atoms: C_4  and  C_5
REMARK    5  A    between atoms: C_5  and  C_6
REMARK    6  A    between atoms: C_6  and  C_7
REMARK    7  A    between atoms: C_6  and  C_8
REMARK    8  A    between atoms: C_8  and  O_10
REMARK                            x       y       z     vdW  Elec       q    Type
REMARK                         _______ _______ _______ _____ _____    ______ ____
ROOT
ATOM      1  C   UNL     1       6.485   5.310  15.911  0.00  0.00    +0.000 C 
ATOM      2  C   UNL     1       4.958   5.316  15.987  0.00  0.00    +0.000 C 
ENDROOT
BRANCH   1   3
ATOM      3  C   UNL     1       7.044   4.450  17.034  0.00  0.00    +0.000 C 
ATOM      4  O   UNL     1       8.230   4.200  17.195  0.00  0.00    +0.000 OA
BRANCH   3   5
ATOM      5  O   UNL     1       6.095   3.995  17.887  0.00  0.00    +0.000 OA
ATOM      6  H   UNL     1       6.123   3.031  18.034  0.00  0.00    +0.000 HD
ENDBRANCH   3   5
ENDBRANCH   1   3
BRANCH   1   7
ATOM      7  C   UNL     1       7.014   4.781  14.568  0.00  0.00    +0.000 C 
BRANCH   7   8
ATOM      8  C   UNL     1       5.999   3.911  13.823  0.00  0.00    +0.000 C 
BRANCH   8   9
ATOM      9  C   UNL     1       6.449   3.621  12.392  0.00  0.00    +0.000 C 
BRANCH   9  11
ATOM     10  C   UNL     1       6.327   1.403  11.204  0.00  0.00    +0.000 C 
ATOM     11  C   UNL     1       5.537   2.588  11.730  0.00  0.00    +0.000 C 
ENDBRANCH   9  11
ENDBRANCH   8   9
ENDBRANCH   7   8
ENDBRANCH   1   7
TORSDOF 6
ENDMDL
MODEL 3
REMARK VINA RESULT:      -4.6      2.028      3.143
REMARK  Name = 
REMARK  8 active torsions:
REMARK  status: ('A' for Active; 'I' for Inactive)
REMARK    1  A    between atoms: C_1  and  C_2
REMARK    2  A    between atoms: C_2  and  C_3
REMARK    3  A    between atoms: C_3  and  C_4
REMARK    4  A    between atoms: C_4  and  C_5
REMARK    5  A    between atoms: C_5  and  C_6
REMARK    6  A    between atoms: C_6  and  C_7
REMARK    7  A    between atoms: C_6  and  C_8
REMARK    8  A    between atoms: C_8  and  O_10
REMARK                            x       y       z     vdW  Elec       q    Type
REMARK                         _______ _______ _______ _____ _____    ______ ____
ROOT
ATOM      1  C   UNL     1       6.030   4.003  15.689  0.00  0.00    +0.000 C 
ATOM      2  C   UNL     1       6.058   3.933  14.162  0.00  0.00    +0.000 C 
ENDROOT
BRANCH   1   3
ATOM      3  C   UNL     1       7.280   4.715  16.186  0.00  0.00    +0.000 C 
ATOM      4  O   UNL     1       7.970   4.337  17.122  0.00  0.00    +0.000 OA
BRANCH   3   5
ATOM      5  O   UNL     1       7.593   5.818  15.465  0.00  0.00    +0.000 OA
ATOM      6  H   UNL     1       8.540   6.049  15.487  0.00  0.00    +0.000 HD
ENDBRANCH   3   5
ENDBRANCH   1   3
BRANCH   1   7
ATOM      7  C   UNL     1       4.792   4.734  16.231  0.00  0.00    +0.000 C 
BRANCH   7   8
ATOM      8  C   UNL     1       3.909   3.849  17.115  0.00  0.00    +0.000 C 
BRANCH   8   9
ATOM      9  C   UNL     1       2.933   4.680  17.946  0.00  0.00    +0.000 C 
BRANCH   9  11
ATOM     10  C   UNL     1       1.281   2.863  18.508  0.00  0.00    +0.000 C 
ATOM     11  C   UNL     1       1.501   4.174  17.773  0.00  0.00    +0.000 C 
ENDBRANCH   9  11
ENDBRANCH   8   9
ENDBRANCH   7   8
ENDBRANCH   1   7
TORSDOF 6
ENDMDL
MODEL 4
REMARK VINA RESULT:      -4.6      1.096      1.363
REMARK  Name = 
REMARK  8 active torsions:
REMARK  status: ('A' for Active; 'I' for Inactive)
REMARK    1  A    between atoms: C_1  and  C_2
REMARK    2  A    between atoms: C_2  and  C_3
REMARK    3  A    between atoms: C_3  and  C_4
REMARK    4  A    between atoms: C_4  and  C_5
REMARK    5  A    between atoms: C_5  and  C_6
REMARK    6  A    between atoms: C_6  and  C_7
REMARK    7  A    between atoms: C_6  and  C_8
REMARK    8  A    between atoms: C_8  and  O_10
REMARK                            x       y       z     vdW  Elec       q    Type
REMARK                         _______ _______ _______ _____ _____    ______ ____
ROOT
ATOM      1  C   UNL     1       4.003   5.001  17.753  0.00  0.00    +0.000 C 
ATOM      2  C   UNL     1       3.334   6.374  17.822  0.00  0.00    +0.000 C 
ENDROOT
BRANCH   1   3
ATOM      3  C   UNL     1       4.613   4.667  19.106  0.00  0.00    +0.000 C 
ATOM      4  O   UNL     1       5.438   3.785  19.300  0.00  0.00    +0.000 OA
BRANCH   3   5
ATOM      5  O   UNL     1       4.179   5.473  20.105  0.00  0.00    +0.000 OA
ATOM      6  H   UNL     1       3.497   5.067  20.673  0.00  0.00    +0.000 HD
ENDBRANCH   3   5
ENDBRANCH   1   3
BRANCH   1   7
ATOM      7  C   UNL     1       3.029   3.881  17.356  0.00  0.00    +0.000 C 
BRANCH   7   8
ATOM      8  C   UNL     1       1.587   4.155  17.794  0.00  0.00    +0.000 C 
BRANCH   8   9
ATOM      9  C   UNL     1       1.134   3.180  18.881  0.00  0.00    +0.000 C 
BRANCH   9  11
ATOM     10  C   UNL     1       1.714   3.167  21.332  0.00  0.00    +0.000 C 
ATOM     11  C   UNL     1       0.974   3.895  20.222  0.00  0.00    +0.000 C 
ENDBRANCH   9  11
ENDBRANCH   8   9
ENDBRANCH   7   8
ENDBRANCH   1   7
TORSDOF 6
ENDMDL
MODEL 5
REMARK VINA RESULT:      -4.6      2.140      3.117
REMARK  Name = 
REMARK  8 active torsions:
REMARK  status: ('A' for Active; 'I' for Inactive)
REMARK    1  A    between atoms: C_1  and  C_2
REMARK    2  A    between atoms: C_2  and  C_3
REMARK    3  A    between atoms: C_3  and  C_4
REMARK    4  A    between atoms: C_4  and  C_5
REMARK    5  A    between atoms: C_5  and  C_6
REMARK    6  A    between atoms: C_6  and  C_7
REMARK    7  A    between atoms: C_6  and  C_8
REMARK    8  A    between atoms: C_8  and  O_10
REMARK                            x       y       z     vdW  Elec       q    Type
REMARK                         _______ _______ _______ _____ _____    ______ ____
ROOT
ATOM      1  C   UNL     1       5.754   4.451  16.152  0.00  0.00    +0.000 C 
ATOM      2  C   UNL     1       5.529   4.260  14.652  0.00  0.00    +0.000 C 
ENDROOT
BRANCH   1   3
ATOM      3  C   UNL     1       7.153   4.997  16.388  0.00  0.00    +0.000 C 
ATOM      4  O   UNL     1       7.551   6.084  15.995  0.00  0.00    +0.000 OA
BRANCH   3   5
ATOM      5  O   UNL     1       7.937   4.170  17.120  0.00  0.00    +0.000 OA
ATOM      6  H   UNL     1       8.295   4.578  17.931  0.00  0.00    +0.000 HD
ENDBRANCH   3   5
ENDBRANCH   1   3
BRANCH   1   7
ATOM      7  C   UNL     1       4.732   5.404  16.793  0.00  0.00    +0.000 C 
BRANCH   7   8
ATOM      8  C   UNL     1       3.959   4.767  17.951  0.00  0.00    +0.000 C 
BRANCH   8   9
ATOM      9  C   UNL     1       2.484   5.167  17.930  0.00  0.00    +0.000 C 
BRANCH   9  11
ATOM     10  C   UNL     1       2.330   2.671  17.625  0.00  0.00    +0.000 C 
ATOM     11  C   UNL     1       1.583   3.935  18.015  0.00  0.00    +0.000 C 
ENDBRANCH   9  11
ENDBRANCH   8   9
ENDBRANCH   7   8
ENDBRANCH   1   7
TORSDOF 6
ENDMDL
MODEL 6
REMARK VINA RESULT:      -4.6      2.044      3.135
REMARK  Name = 
REMARK  8 active torsions:
REMARK  status: ('A' for Active; 'I' for Inactive)
REMARK    1  A    between atoms: C_1  and  C_2
REMARK    2  A    between atoms: C_2  and  C_3
REMARK    3  A    between atoms: C_3  and  C_4
REMARK    4  A    between atoms: C_4  and  C_5
REMARK    5  A    between atoms: C_5  and  C_6
REMARK    6  A    between atoms: C_6  and  C_7
REMARK    7  A    between atoms: C_6  and  C_8
REMARK    8  A    between atoms: C_8  and  O_10
REMARK                            x       y       z     vdW  Elec       q    Type
REMARK                         _______ _______ _______ _____ _____    ______ ____
ROOT
ATOM      1  C   UNL     1       5.869   3.934  15.743  0.00  0.00    +0.000 C 
ATOM      2  C   UNL     1       5.621   4.017  14.237  0.00  0.00    +0.000 C 
ENDROOT
BRANCH   1   3
ATOM      3  C   UNL     1       7.182   4.624  16.078  0.00  0.00    +0.000 C 
ATOM      4  O   UNL     1       7.641   5.580  15.470  0.00  0.00    +0.000 OA
BRANCH   3   5
ATOM      5  O   UNL     1       7.806   4.097  17.159  0.00  0.00    +0.000 OA
ATOM      6  H   UNL     1       8.765   3.966  17.038  0.00  0.00    +0.000 HD
ENDBRANCH   3   5
ENDBRANCH   1   3
BRANCH   1   7
ATOM      7  C   UNL     1       4.743   4.576  16.569  0.00  0.00    +0.000 C 
BRANCH   7   8
ATOM      8  C   UNL     1       4.086   3.602  17.551  0.00  0.00    +0.000 C 
BRANCH   8   9
ATOM      9  C   UNL     1       2.664   3.244  17.121  0.00  0.00    +0.000 C 
BRANCH   9  11
ATOM     10  C   UNL     1       2.030   4.532  19.191  0.00  0.00    +0.000 C 
ATOM     11  C   UNL     1       1.646   4.187  17.762  0.00  0.00    +0.000 C 
ENDBRANCH   9  11
ENDBRANCH   8   9
ENDBRANCH   7   8
ENDBRANCH   1   7
TORSDOF 6
ENDMDL
MODEL 7
REMARK VINA RESULT:      -4.6      0.783      1.413
REMARK  Name = 
REMARK  8 active torsions:
REMARK  status: ('A' for Active; 'I' for Inactive)
REMARK    1  A    between atoms: C_1  and  C_2
REMARK    2  A    between atoms: C_2  and  C_3
REMARK    3  A    between atoms: C_3  and  C_4
REMARK    4  A    between atoms: C_4  and  C_5
REMARK    5  A    between atoms: C_5  and  C_6
REMARK    6  A    between atoms: C_6  and  C_7
REMARK    7  A    between atoms: C_6  and  C_8
REMARK    8  A    between atoms: C_8  and  O_10
REMARK                            x       y       z     vdW  Elec       q    Type
REMARK                         _______ _______ _______ _____ _____    ______ ____
ROOT
ATOM      1  C   UNL     1       4.047   4.812  17.727  0.00  0.00    +0.000 C 
ATOM      2  C   UNL     1       3.548   5.849  18.734  0.00  0.00    +0.000 C 
ENDROOT
BRANCH   1   3
ATOM      3  C   UNL     1       5.340   4.194  18.236  0.00  0.00    +0.000 C 
ATOM      4  O   UNL     1       6.461   4.539  17.890  0.00  0.00    +0.000 OA
BRANCH   3   5
ATOM      5  O   UNL     1       5.144   3.220  19.157  0.00  0.00    +0.000 OA
ATOM      6  H   UNL     1       4.821   3.548  20.017  0.00  0.00    +0.000 HD
ENDBRANCH   3   5
ENDBRANCH   1   3
BRANCH   1   7
ATOM      7  C   UNL     1       3.027   3.692  17.468  0.00  0.00    +0.000 C 
BRANCH   7   8
ATOM      8  C   UNL     1       1.620   4.033  17.966  0.00  0.00    +0.000 C 
BRANCH   8   9
ATOM      9  C   UNL     1       1.125   3.018  18.995  0.00  0.00    +0.000 C 
BRANCH   9  11
ATOM     10  C   UNL     1       1.803   2.947  21.420  0.00  0.00    +0.000 C 
ATOM     11  C   UNL     1       0.972   3.666  20.371  0.00  0.00    +0.000 C 
ENDBRANCH   9  11
ENDBRANCH   8   9
ENDBRANCH   7   8
ENDBRANCH   1   7
TORSDOF 6
ENDMDL
MODEL 8
REMARK VINA RESULT:      -4.5      2.365      3.624
REMARK  Name = 
REMARK  8 active torsions:
REMARK  status: ('A' for Active; 'I' for Inactive)
REMARK    1  A    between atoms: C_1  and  C_2
REMARK    2  A    between atoms: C_2  and  C_3
REMARK    3  A    between atoms: C_3  and  C_4
REMARK    4  A    between atoms: C_4  and  C_5
REMARK    5  A    between atoms: C_5  and  C_6
REMARK    6  A    between atoms: C_6  and  C_7
REMARK    7  A    between atoms: C_6  and  C_8
REMARK    8  A    between atoms: C_8  and  O_10
REMARK                            x       y       z     vdW  Elec       q    Type
REMARK                         _______ _______ _______ _____ _____    ______ ____
ROOT
ATOM      1  C   UNL     1       5.743   4.805  15.710  0.00  0.00    +0.000 C 
ATOM      2  C   UNL     1       5.382   4.265  14.326  0.00  0.00    +0.000 C 
ENDROOT
BRANCH   1   3
ATOM      3  C   UNL     1       7.256   4.906  15.834  0.00  0.00    +0.000 C 
ATOM      4  O   UNL     1       7.909   4.459  16.765  0.00  0.00    +0.000 OA
BRANCH   3   5
ATOM      5  O   UNL     1       7.841   5.524  14.780  0.00  0.00    +0.000 OA
ATOM      6  H   UNL     1       7.551   5.186  13.912  0.00  0.00    +0.000 HD
ENDBRANCH   3   5
ENDBRANCH   1   3
BRANCH   1   7
ATOM      7  C   UNL     1       5.127   6.184  15.992  0.00  0.00    +0.000 C 
BRANCH   7   8
ATOM      8  C   UNL     1       4.646   6.344  17.437  0.00  0.00    +0.000 C 
BRANCH   8   9
ATOM      9  C   UNL     1       3.856   5.122  17.906  0.00  0.00    +0.000 C 
BRANCH   9  11
ATOM     10  C   UNL     1       1.530   4.161  17.812  0.00  0.00    +0.000 C 
ATOM     11  C   UNL     1       2.359   5.426  17.954  0.00  0.00    +0.000 C 
ENDBRANCH   9  11
ENDBRANCH   8   9
ENDBRANCH   7   8
ENDBRANCH   1   7
TORSDOF 6
ENDMDL
MODEL 9
REMARK VINA RESULT:      -4.5      4.037      5.085
REMARK  Name = 
REMARK  8 active torsions:
REMARK  status: ('A' for Active; 'I' for Inactive)
REMARK    1  A    between atoms: C_1  and  C_2
REMARK    2  A    between atoms: C_2  and  C_3
REMARK    3  A    between atoms: C_3  and  C_4
REMARK    4  A    between atoms: C_4  and  C_5
REMARK    5  A    between atoms: C_5  and  C_6
REMARK    6  A    between atoms: C_6  and  C_7
REMARK    7  A    between atoms: C_6  and  C_8
REMARK    8  A    between atoms: C_8  and  O_10
REMARK                            x       y       z     vdW  Elec       q    Type
REMARK                         _______ _______ _______ _____ _____    ______ ____
ROOT
ATOM      1  C   UNL     1       7.193   6.452  17.537  0.00  0.00    +0.000 C 
ATOM      2  C   UNL     1       7.933   7.708  17.998  0.00  0.00    +0.000 C 
ENDROOT
BRANCH   1   3
ATOM      3  C   UNL     1       7.477   5.313  18.505  0.00  0.00    +0.000 C 
ATOM      4  O   UNL     1       8.186   4.349  18.256  0.00  0.00    +0.000 OA
BRANCH   3   5
ATOM      5  O   UNL     1       6.888   5.476  19.714  0.00  0.00    +0.000 OA
ATOM      6  H   UNL     1       6.648   4.639  20.153  0.00  0.00    +0.000 HD
ENDBRANCH   3   5
ENDBRANCH   1   3
BRANCH   1   7
ATOM      7  C   UNL     1       5.673   6.656  17.441  0.00  0.00    +0.000 C 
BRANCH   7   8
ATOM      8  C   UNL     1       5.091   6.219  16.094  0.00  0.00    +0.000 C 
BRANCH   8   9
ATOM      9  C   UNL     1       5.079   4.698  15.953  0.00  0.00    +0.000 C 
BRANCH   9  11
ATOM     10  C   UNL     1       6.972   4.788  14.294  0.00  0.00    +0.000 C 
ATOM     11  C   UNL     1       5.569   4.273  14.569  0.00  0.00    +0.000 C 
ENDBRANCH   9  11
ENDBRANCH   8   9
ENDBRANCH   7   8
ENDBRANCH   1   7
TORSDOF 6
ENDMDL
