MODEL 1
REMARK VINA RESULT:      -7.1      0.000      0.000
REMARK  Name = 
REMARK  3 active torsions:
REMARK  status: ('A' for Active; 'I' for Inactive)
REMARK    1  A    between atoms: C_1  and  S_2
REMARK    2  A    between atoms: S_2  and  C_3
REMARK    3  A    between atoms: C_3  and  N_4
REMARK                            x       y       z     vdW  Elec       q    Type
REMARK                         _______ _______ _______ _____ _____    ______ ____
ROOT
ATOM      1  N   UNL     1       8.265   8.773  18.095  0.00  0.00    +0.000 N 
ATOM      2  C   UNL     1       8.433   7.765  19.010  0.00  0.00    +0.000 A 
ATOM      3  C   UNL     1       7.768   6.627  18.566  0.00  0.00    +0.000 A 
ATOM      4  C   UNL     1       7.140   7.010  17.358  0.00  0.00    +0.000 A 
ATOM      5  C   UNL     1       7.464   8.326  17.082  0.00  0.00    +0.000 A 
ATOM      6  S   UNL     1       6.218   5.967  16.371  0.00  0.00    +0.000 S 
ATOM      7  O   UNL     1       5.434   6.856  15.537  0.00  0.00    +0.000 OA
ATOM      8  O   UNL     1       7.170   5.025  15.825  0.00  0.00    +0.000 OA
ATOM      9  C   UNL     1       5.143   5.120  17.470  0.00  0.00    +0.000 A 
ATOM     10  C   UNL     1       3.769   5.134  17.174  0.00  0.00    +0.000 A 
ATOM     11  C   UNL     1       2.903   4.312  17.885  0.00  0.00    +0.000 A 
ATOM     12 CL   UNL     1       1.217   4.348  17.558  0.00  0.00    +0.000 Cl
ATOM     13  C   UNL     1       3.401   3.444  18.850  0.00  0.00    +0.000 A 
ATOM     14  C   UNL     1       4.766   3.444  19.140  0.00  0.00    +0.000 A 
ATOM     15  C   UNL     1       5.650   4.326  18.494  0.00  0.00    +0.000 A 
ATOM     16  N   UNL     1       6.961   4.315  19.001  0.00  0.00    +0.000 N 
ATOM     17  C   UNL     1       7.850   5.339  19.232  0.00  0.00    +0.000 C 
ATOM     18  O   UNL     1       8.712   5.129  20.090  0.00  0.00    +0.000 OA
ATOM     19  H   UNL     1       7.193   3.553  19.630  0.00  0.00    +0.000 HD
ENDROOT
BRANCH   1  20
ATOM     20  C   UNL     1       8.923  10.075  18.142  0.00  0.00    +0.000 C 
BRANCH  20  22
ATOM     21  C   UNL     1      10.928  11.508  19.383  0.00  0.00    +0.000 C 
ATOM     22  S   UNL     1       9.428  10.593  19.806  0.00  0.00    +0.000 S 
ENDBRANCH  20  22
ENDBRANCH   1  20
TORSDOF 2
ENDMDL
MODEL 2
REMARK VINA RESULT:      -6.9      1.393      1.510
REMARK  Name = 
REMARK  3 active torsions:
REMARK  status: ('A' for Active; 'I' for Inactive)
REMARK    1  A    between atoms: C_1  and  S_2
REMARK    2  A    between atoms: S_2  and  C_3
REMARK    3  A    between atoms: C_3  and  N_4
REMARK                            x       y       z     vdW  Elec       q    Type
REMARK                         _______ _______ _______ _____ _____    ______ ____
ROOT
ATOM      1  N   UNL     1       7.726   8.446  17.860  0.00  0.00    +0.000 N 
ATOM      2  C   UNL     1       8.191   7.208  18.223  0.00  0.00    +0.000 A 
ATOM      3  C   UNL     1       7.197   6.262  17.999  0.00  0.00    +0.000 A 
ATOM      4  C   UNL     1       6.082   6.995  17.532  0.00  0.00    +0.000 A 
ATOM      5  C   UNL     1       6.429   8.331  17.445  0.00  0.00    +0.000 A 
ATOM      6  S   UNL     1       4.594   6.304  17.064  0.00  0.00    +0.000 S 
ATOM      7  O   UNL     1       3.655   7.408  17.099  0.00  0.00    +0.000 OA
ATOM      8  O   UNL     1       4.883   5.566  15.854  0.00  0.00    +0.000 OA
ATOM      9  C   UNL     1       4.188   5.170  18.341  0.00  0.00    +0.000 A 
ATOM     10  C   UNL     1       2.916   5.281  18.927  0.00  0.00    +0.000 A 
ATOM     11  C   UNL     1       2.466   4.286  19.788  0.00  0.00    +0.000 A 
ATOM     12 CL   UNL     1       0.927   4.429  20.540  0.00  0.00    +0.000 Cl
ATOM     13  C   UNL     1       3.250   3.165  20.028  0.00  0.00    +0.000 A 
ATOM     14  C   UNL     1       4.515   3.069  19.446  0.00  0.00    +0.000 A 
ATOM     15  C   UNL     1       5.027   4.101  18.639  0.00  0.00    +0.000 A 
ATOM     16  N   UNL     1       6.368   3.930  18.253  0.00  0.00    +0.000 N 
ATOM     17  C   UNL     1       7.402   4.832  18.154  0.00  0.00    +0.000 C 
ATOM     18  O   UNL     1       8.541   4.367  18.255  0.00  0.00    +0.000 OA
ATOM     19  H   UNL     1       6.769   3.012  18.418  0.00  0.00    +0.000 HD
ENDROOT
BRANCH   1  20
ATOM     20  C   UNL     1       8.521   9.669  17.822  0.00  0.00    +0.000 C 
BRANCH  20  22
ATOM     21  C   UNL     1      10.344  11.459  18.867  0.00  0.00    +0.000 C 
ATOM     22  S   UNL     1       9.236  10.143  19.421  0.00  0.00    +0.000 S 
ENDBRANCH  20  22
ENDBRANCH   1  20
TORSDOF 2
ENDMDL
MODEL 3
REMARK VINA RESULT:      -6.3      3.963      5.528
REMARK  Name = 
REMARK  3 active torsions:
REMARK  status: ('A' for Active; 'I' for Inactive)
REMARK    1  A    between atoms: C_1  and  S_2
REMARK    2  A    between atoms: S_2  and  C_3
REMARK    3  A    between atoms: C_3  and  N_4
REMARK                            x       y       z     vdW  Elec       q    Type
REMARK                         _______ _______ _______ _____ _____    ______ ____
ROOT
ATOM      1  N   UNL     1       5.957   4.755  15.224  0.00  0.00    +0.000 N 
ATOM      2  C   UNL     1       5.116   5.824  15.400  0.00  0.00    +0.000 A 
ATOM      3  C   UNL     1       4.803   5.943  16.750  0.00  0.00    +0.000 A 
ATOM      4  C   UNL     1       5.453   4.857  17.381  0.00  0.00    +0.000 A 
ATOM      5  C   UNL     1       6.163   4.146  16.431  0.00  0.00    +0.000 A 
ATOM      6  S   UNL     1       5.430   4.557  19.060  0.00  0.00    +0.000 S 
ATOM      7  O   UNL     1       5.816   3.165  19.184  0.00  0.00    +0.000 OA
ATOM      8  O   UNL     1       6.197   5.632  19.648  0.00  0.00    +0.000 OA
ATOM      9  C   UNL     1       3.749   4.725  19.538  0.00  0.00    +0.000 A 
ATOM     10  C   UNL     1       3.169   3.668  20.258  0.00  0.00    +0.000 A 
ATOM     11  C   UNL     1       1.917   3.836  20.839  0.00  0.00    +0.000 A 
ATOM     12 CL   UNL     1       1.182   2.538  21.691  0.00  0.00    +0.000 Cl
ATOM     13  C   UNL     1       1.265   5.060  20.748  0.00  0.00    +0.000 A 
ATOM     14  C   UNL     1       1.848   6.101  20.024  0.00  0.00    +0.000 A 
ATOM     15  C   UNL     1       3.074   5.929  19.357  0.00  0.00    +0.000 A 
ATOM     16  N   UNL     1       3.455   7.012  18.546  0.00  0.00    +0.000 N 
ATOM     17  C   UNL     1       4.039   7.048  17.301  0.00  0.00    +0.000 C 
ATOM     18  O   UNL     1       3.837   8.067  16.635  0.00  0.00    +0.000 OA
ATOM     19  H   UNL     1       2.929   7.872  18.669  0.00  0.00    +0.000 HD
ENDROOT
BRANCH   1  20
ATOM     20  C   UNL     1       6.611   4.392  13.971  0.00  0.00    +0.000 C 
BRANCH  20  22
ATOM     21  C   UNL     1       6.761   2.819  11.708  0.00  0.00    +0.000 C 
ATOM     22  S   UNL     1       5.516   3.595  12.764  0.00  0.00    +0.000 S 
ENDBRANCH  20  22
ENDBRANCH   1  20
TORSDOF 2
ENDMDL
MODEL 4
REMARK VINA RESULT:      -6.1      5.210      6.723
REMARK  Name = 
REMARK  3 active torsions:
REMARK  status: ('A' for Active; 'I' for Inactive)
REMARK    1  A    between atoms: C_1  and  S_2
REMARK    2  A    between atoms: S_2  and  C_3
REMARK    3  A    between atoms: C_3  and  N_4
REMARK                            x       y       z     vdW  Elec       q    Type
REMARK                         _______ _______ _______ _____ _____    ______ ____
ROOT
ATOM      1  N   UNL     1       1.039   8.465  21.126  0.00  0.00    +0.000 N 
ATOM      2  C   UNL     1       1.359   9.078  19.941  0.00  0.00    +0.000 A 
ATOM      3  C   UNL     1       2.003   8.164  19.114  0.00  0.00    +0.000 A 
ATOM      4  C   UNL     1       2.109   6.979  19.877  0.00  0.00    +0.000 A 
ATOM      5  C   UNL     1       1.504   7.180  21.103  0.00  0.00    +0.000 A 
ATOM      6  S   UNL     1       2.789   5.519  19.311  0.00  0.00    +0.000 S 
ATOM      7  O   UNL     1       3.087   4.769  20.515  0.00  0.00    +0.000 OA
ATOM      8  O   UNL     1       1.871   5.040  18.302  0.00  0.00    +0.000 OA
ATOM      9  C   UNL     1       4.297   5.979  18.540  0.00  0.00    +0.000 A 
ATOM     10  C   UNL     1       5.464   5.310  18.945  0.00  0.00    +0.000 A 
ATOM     11  C   UNL     1       6.641   5.483  18.226  0.00  0.00    +0.000 A 
ATOM     12 CL   UNL     1       8.084   4.699  18.733  0.00  0.00    +0.000 Cl
ATOM     13  C   UNL     1       6.651   6.275  17.085  0.00  0.00    +0.000 A 
ATOM     14  C   UNL     1       5.487   6.941  16.696  0.00  0.00    +0.000 A 
ATOM     15  C   UNL     1       4.306   6.849  17.454  0.00  0.00    +0.000 A 
ATOM     16  N   UNL     1       3.269   7.695  17.024  0.00  0.00    +0.000 N 
ATOM     17  C   UNL     1       2.363   8.447  17.735  0.00  0.00    +0.000 C 
ATOM     18  O   UNL     1       1.893   9.428  17.151  0.00  0.00    +0.000 OA
ATOM     19  H   UNL     1       3.393   8.131  16.116  0.00  0.00    +0.000 HD
ENDROOT
BRANCH   1  20
ATOM     20  C   UNL     1       0.238   9.057  22.193  0.00  0.00    +0.000 C 
BRANCH  20  22
ATOM     21  C   UNL     1      -1.449  10.992  23.206  0.00  0.00    +0.000 C 
ATOM     22  S   UNL     1      -0.190  10.799  21.923  0.00  0.00    +0.000 S 
ENDBRANCH  20  22
ENDBRANCH   1  20
TORSDOF 2
ENDMDL
MODEL 5
REMARK VINA RESULT:      -6.0      9.250     10.715
REMARK  Name = 
REMARK  3 active torsions:
REMARK  status: ('A' for Active; 'I' for Inactive)
REMARK    1  A    between atoms: C_1  and  S_2
REMARK    2  A    between atoms: S_2  and  C_3
REMARK    3  A    between atoms: C_3  and  N_4
REMARK                            x       y       z     vdW  Elec       q    Type
REMARK                         _______ _______ _______ _____ _____    ______ ____
ROOT
ATOM      1  N   UNL     1       0.899   9.704  18.585  0.00  0.00    +0.000 N 
ATOM      2  C   UNL     1      -0.280   9.962  17.934  0.00  0.00    +0.000 A 
ATOM      3  C   UNL     1      -0.922  11.028  18.556  0.00  0.00    +0.000 A 
ATOM      4  C   UNL     1      -0.099  11.371  19.653  0.00  0.00    +0.000 A 
ATOM      5  C   UNL     1       1.017  10.556  19.648  0.00  0.00    +0.000 A 
ATOM      6  S   UNL     1      -0.408  12.656  20.733  0.00  0.00    +0.000 S 
ATOM      7  O   UNL     1       0.403  12.354  21.896  0.00  0.00    +0.000 OA
ATOM      8  O   UNL     1      -0.230  13.859  19.950  0.00  0.00    +0.000 OA
ATOM      9  C   UNL     1      -2.102  12.501  21.164  0.00  0.00    +0.000 A 
ATOM     10  C   UNL     1      -2.425  12.474  22.531  0.00  0.00    +0.000 A 
ATOM     11  C   UNL     1      -3.754  12.564  22.927  0.00  0.00    +0.000 A 
ATOM     12 CL   UNL     1      -4.163  12.496  24.595  0.00  0.00    +0.000 Cl
ATOM     13  C   UNL     1      -4.754  12.729  21.977  0.00  0.00    +0.000 A 
ATOM     14  C   UNL     1      -4.423  12.747  20.621  0.00  0.00    +0.000 A 
ATOM     15  C   UNL     1      -3.095  12.573  20.192  0.00  0.00    +0.000 A 
ATOM     16  N   UNL     1      -2.942  12.460  18.799  0.00  0.00    +0.000 N 
ATOM     17  C   UNL     1      -2.133  11.644  18.043  0.00  0.00    +0.000 C 
ATOM     18  O   UNL     1      -2.519  11.411  16.894  0.00  0.00    +0.000 OA
ATOM     19  H   UNL     1      -3.750  12.708  18.237  0.00  0.00    +0.000 HD
ENDROOT
BRANCH   1  20
ATOM     20  C   UNL     1       1.914   8.750  18.148  0.00  0.00    +0.000 C 
BRANCH  20  22
ATOM     21  C   UNL     1       2.915   6.179  18.193  0.00  0.00    +0.000 C 
ATOM     22  S   UNL     1       2.229   7.408  19.327  0.00  0.00    +0.000 S 
ENDBRANCH  20  22
ENDBRANCH   1  20
TORSDOF 2
ENDMDL
MODEL 6
REMARK VINA RESULT:      -5.8      9.704     11.104
REMARK  Name = 
REMARK  3 active torsions:
REMARK  status: ('A' for Active; 'I' for Inactive)
REMARK    1  A    between atoms: C_1  and  S_2
REMARK    2  A    between atoms: S_2  and  C_3
REMARK    3  A    between atoms: C_3  and  N_4
REMARK                            x       y       z     vdW  Elec       q    Type
REMARK                         _______ _______ _______ _____ _____    ______ ____
ROOT
ATOM      1  N   UNL     1       0.659   9.583  19.909  0.00  0.00    +0.000 N 
ATOM      2  C   UNL     1      -0.222  10.028  18.957  0.00  0.00    +0.000 A 
ATOM      3  C   UNL     1      -0.910  11.132  19.451  0.00  0.00    +0.000 A 
ATOM      4  C   UNL     1      -0.441  11.303  20.774  0.00  0.00    +0.000 A 
ATOM      5  C   UNL     1       0.527  10.350  21.033  0.00  0.00    +0.000 A 
ATOM      6  S   UNL     1      -0.936  12.554  21.824  0.00  0.00    +0.000 S 
ATOM      7  O   UNL     1      -0.568  12.085  23.145  0.00  0.00    +0.000 OA
ATOM      8  O   UNL     1      -0.395  13.766  21.250  0.00  0.00    +0.000 OA
ATOM      9  C   UNL     1      -2.686  12.596  21.702  0.00  0.00    +0.000 A 
ATOM     10  C   UNL     1      -3.422  12.535  22.897  0.00  0.00    +0.000 A 
ATOM     11  C   UNL     1      -4.792  12.774  22.875  0.00  0.00    +0.000 A 
ATOM     12 CL   UNL     1      -5.708  12.666  24.325  0.00  0.00    +0.000 Cl
ATOM     13  C   UNL     1      -5.420  13.121  21.686  0.00  0.00    +0.000 A 
ATOM     14  C   UNL     1      -4.680  13.171  20.503  0.00  0.00    +0.000 A 
ATOM     15  C   UNL     1      -3.310  12.851  20.485  0.00  0.00    +0.000 A 
ATOM     16  N   UNL     1      -2.741  12.798  19.201  0.00  0.00    +0.000 N 
ATOM     17  C   UNL     1      -1.827  11.927  18.653  0.00  0.00    +0.000 C 
ATOM     18  O   UNL     1      -1.854  11.811  17.425  0.00  0.00    +0.000 OA
ATOM     19  H   UNL     1      -3.300  13.180  18.445  0.00  0.00    +0.000 HD
ENDROOT
BRANCH   1  20
ATOM     20  C   UNL     1       1.652   8.531  19.715  0.00  0.00    +0.000 C 
BRANCH  20  22
ATOM     21  C   UNL     1       2.956   6.729  18.082  0.00  0.00    +0.000 C 
ATOM     22  S   UNL     1       2.275   8.402  18.016  0.00  0.00    +0.000 S 
ENDBRANCH  20  22
ENDBRANCH   1  20
TORSDOF 2
ENDMDL
MODEL 7
REMARK VINA RESULT:      -5.7      4.208      5.712
REMARK  Name = 
REMARK  3 active torsions:
REMARK  status: ('A' for Active; 'I' for Inactive)
REMARK    1  A    between atoms: C_1  and  S_2
REMARK    2  A    between atoms: S_2  and  C_3
REMARK    3  A    between atoms: C_3  and  N_4
REMARK                            x       y       z     vdW  Elec       q    Type
REMARK                         _______ _______ _______ _____ _____    ______ ____
ROOT
ATOM      1  N   UNL     1       2.667   6.863  19.054  0.00  0.00    +0.000 N 
ATOM      2  C   UNL     1       2.212   5.767  18.366  0.00  0.00    +0.000 A 
ATOM      3  C   UNL     1       3.299   5.064  17.858  0.00  0.00    +0.000 A 
ATOM      4  C   UNL     1       4.437   5.818  18.225  0.00  0.00    +0.000 A 
ATOM      5  C   UNL     1       4.030   6.912  18.966  0.00  0.00    +0.000 A 
ATOM      6  S   UNL     1       6.048   5.371  17.881  0.00  0.00    +0.000 S 
ATOM      7  O   UNL     1       6.803   6.600  18.028  0.00  0.00    +0.000 OA
ATOM      8  O   UNL     1       6.298   4.202  18.694  0.00  0.00    +0.000 OA
ATOM      9  C   UNL     1       6.048   4.903  16.190  0.00  0.00    +0.000 A 
ATOM     10  C   UNL     1       6.994   5.510  15.347  0.00  0.00    +0.000 A 
ATOM     11  C   UNL     1       7.177   5.027  14.056  0.00  0.00    +0.000 A 
ATOM     12 CL   UNL     1       8.305   5.786  13.005  0.00  0.00    +0.000 Cl
ATOM     13  C   UNL     1       6.463   3.918  13.620  0.00  0.00    +0.000 A 
ATOM     14  C   UNL     1       5.521   3.327  14.463  0.00  0.00    +0.000 A 
ATOM     15  C   UNL     1       5.257   3.849  15.742  0.00  0.00    +0.000 A 
ATOM     16  N   UNL     1       4.178   3.243  16.408  0.00  0.00    +0.000 N 
ATOM     17  C   UNL     1       3.180   3.780  17.187  0.00  0.00    +0.000 C 
ATOM     18  O   UNL     1       2.132   3.132  17.253  0.00  0.00    +0.000 OA
ATOM     19  H   UNL     1       3.828   2.380  16.005  0.00  0.00    +0.000 HD
ENDROOT
BRANCH   1  20
ATOM     20  C   UNL     1       1.837   7.769  19.843  0.00  0.00    +0.000 C 
BRANCH  20  22
ATOM     21  C   UNL     1       0.117   9.906  20.139  0.00  0.00    +0.000 C 
ATOM     22  S   UNL     1       1.337   9.275  18.965  0.00  0.00    +0.000 S 
ENDBRANCH  20  22
ENDBRANCH   1  20
TORSDOF 2
ENDMDL
MODEL 8
REMARK VINA RESULT:      -5.7      7.037      8.882
REMARK  Name = 
REMARK  3 active torsions:
REMARK  status: ('A' for Active; 'I' for Inactive)
REMARK    1  A    between atoms: C_1  and  S_2
REMARK    2  A    between atoms: S_2  and  C_3
REMARK    3  A    between atoms: C_3  and  N_4
REMARK                            x       y       z     vdW  Elec       q    Type
REMARK                         _______ _______ _______ _____ _____    ______ ____
ROOT
ATOM      1  N   UNL     1       2.153   6.856  20.068  0.00  0.00    +0.000 N 
ATOM      2  C   UNL     1       1.419   7.398  21.093  0.00  0.00    +0.000 A 
ATOM      3  C   UNL     1       0.912   8.629  20.692  0.00  0.00    +0.000 A 
ATOM      4  C   UNL     1       1.420   8.835  19.388  0.00  0.00    +0.000 A 
ATOM      5  C   UNL     1       2.170   7.734  19.020  0.00  0.00    +0.000 A 
ATOM      6  S   UNL     1       1.065  10.190  18.413  0.00  0.00    +0.000 S 
ATOM      7  O   UNL     1       2.112  10.197  17.410  0.00  0.00    +0.000 OA
ATOM      8  O   UNL     1      -0.335  10.057  18.075  0.00  0.00    +0.000 OA
ATOM      9  C   UNL     1       1.271  11.582  19.461  0.00  0.00    +0.000 A 
ATOM     10  C   UNL     1       2.109  12.616  19.011  0.00  0.00    +0.000 A 
ATOM     11  C   UNL     1       2.142  13.824  19.698  0.00  0.00    +0.000 A 
ATOM     12 CL   UNL     1       3.190  15.083  19.179  0.00  0.00    +0.000 Cl
ATOM     13  C   UNL     1       1.313  14.025  20.795  0.00  0.00    +0.000 A 
ATOM     14  C   UNL     1       0.490  12.988  21.238  0.00  0.00    +0.000 A 
ATOM     15  C   UNL     1       0.501  11.729  20.611  0.00  0.00    +0.000 A 
ATOM     16  N   UNL     1      -0.264  10.746  21.263  0.00  0.00    +0.000 N 
ATOM     17  C   UNL     1      -0.016   9.412  21.489  0.00  0.00    +0.000 C 
ATOM     18  O   UNL     1      -0.594   8.908  22.456  0.00  0.00    +0.000 OA
ATOM     19  H   UNL     1      -0.893  11.074  21.987  0.00  0.00    +0.000 HD
ENDROOT
BRANCH   1  20
ATOM     20  C   UNL     1       2.729   5.515  20.058  0.00  0.00    +0.000 C 
BRANCH  20  22
ATOM     21  C   UNL     1       1.359   3.560  18.674  0.00  0.00    +0.000 C 
ATOM     22  S   UNL     1       1.529   4.188  20.360  0.00  0.00    +0.000 S 
ENDBRANCH  20  22
ENDBRANCH   1  20
TORSDOF 2
ENDMDL
MODEL 9
REMARK VINA RESULT:      -5.6      6.941      8.593
REMARK  Name = 
REMARK  3 active torsions:
REMARK  status: ('A' for Active; 'I' for Inactive)
REMARK    1  A    between atoms: C_1  and  S_2
REMARK    2  A    between atoms: S_2  and  C_3
REMARK    3  A    between atoms: C_3  and  N_4
REMARK                            x       y       z     vdW  Elec       q    Type
REMARK                         _______ _______ _______ _____ _____    ______ ____
ROOT
ATOM      1  N   UNL     1       2.222   6.882  19.973  0.00  0.00    +0.000 N 
ATOM      2  C   UNL     1       1.465   7.372  21.006  0.00  0.00    +0.000 A 
ATOM      3  C   UNL     1       0.931   8.602  20.639  0.00  0.00    +0.000 A 
ATOM      4  C   UNL     1       1.446   8.862  19.348  0.00  0.00    +0.000 A 
ATOM      5  C   UNL     1       2.227   7.792  18.953  0.00  0.00    +0.000 A 
ATOM      6  S   UNL     1       1.066  10.238  18.411  0.00  0.00    +0.000 S 
ATOM      7  O   UNL     1       2.122  10.303  17.420  0.00  0.00    +0.000 OA
ATOM      8  O   UNL     1      -0.327  10.080  18.055  0.00  0.00    +0.000 OA
ATOM      9  C   UNL     1       1.226  11.601  19.505  0.00  0.00    +0.000 A 
ATOM     10  C   UNL     1       2.042  12.669  19.096  0.00  0.00    +0.000 A 
ATOM     11  C   UNL     1       2.037  13.856  19.821  0.00  0.00    +0.000 A 
ATOM     12 CL   UNL     1       3.058  15.156  19.352  0.00  0.00    +0.000 Cl
ATOM     13  C   UNL     1       1.193  14.001  20.915  0.00  0.00    +0.000 A 
ATOM     14  C   UNL     1       0.392  12.930  21.316  0.00  0.00    +0.000 A 
ATOM     15  C   UNL     1       0.441  11.692  20.650  0.00  0.00    +0.000 A 
ATOM     16  N   UNL     1      -0.304  10.670  21.263  0.00  0.00    +0.000 N 
ATOM     17  C   UNL     1      -0.025   9.336  21.450  0.00  0.00    +0.000 C 
ATOM     18  O   UNL     1      -0.599   8.787  22.395  0.00  0.00    +0.000 OA
ATOM     19  H   UNL     1      -0.949  10.959  21.991  0.00  0.00    +0.000 HD
ENDROOT
BRANCH   1  20
ATOM     20  C   UNL     1       2.832   5.557  19.928  0.00  0.00    +0.000 C 
BRANCH  20  22
ATOM     21  C   UNL     1       4.790   3.775  19.149  0.00  0.00    +0.000 C 
ATOM     22  S   UNL     1       4.094   5.363  18.639  0.00  0.00    +0.000 S 
ENDBRANCH  20  22
ENDBRANCH   1  20
TORSDOF 2
ENDMDL
