MODEL 1
REMARK VINA RESULT:      -7.1      0.000      0.000
REMARK  Name = 
REMARK  12 active torsions:
REMARK  status: ('A' for Active; 'I' for Inactive)
REMARK    1  A    between atoms: C_1  and  S_2
REMARK    2  A    between atoms: S_2  and  C_3
REMARK    3  A    between atoms: C_7  and  O_8
REMARK    4  A    between atoms: C_9  and  C_10
REMARK    5  A    between atoms: N_12  and  C_13
REMARK    6  A    between atoms: C_16  and  N_17
REMARK    7  A    between atoms: N_17  and  C_18
REMARK    8  A    between atoms: N_17  and  C_21
REMARK    9  A    between atoms: C_18  and  C_19
REMARK   10  A    between atoms: C_19  and  O_20
REMARK   11  A    between atoms: C_21  and  C_22
REMARK   12  A    between atoms: C_22  and  O_23
REMARK                            x       y       z     vdW  Elec       q    Type
REMARK                         _______ _______ _______ _____ _____    ______ ____
ROOT
ATOM      1  C   UNL     1       1.094   9.169  21.195  0.00  0.00    +0.000 C 
ATOM      2  O   UNL     1       1.690   8.804  22.208  0.00  0.00    +0.000 OA
ATOM      3  N   UNL     1       1.252   8.627  19.941  0.00  0.00    +0.000 N 
ATOM      4  H   UNL     1       0.806   9.116  19.171  0.00  0.00    +0.000 HD
ENDROOT
BRANCH   1  10
ATOM      5  C   UNL     1      -3.075  14.084  22.347  0.00  0.00    +0.000 A 
ATOM      6  C   UNL     1      -3.249  13.194  23.401  0.00  0.00    +0.000 A 
ATOM      7  C   UNL     1      -2.511  12.006  23.445  0.00  0.00    +0.000 A 
ATOM      8  C   UNL     1      -1.577  11.681  22.429  0.00  0.00    +0.000 A 
ATOM      9  C   UNL     1      -0.757  10.515  22.395  0.00  0.00    +0.000 A 
ATOM     10  C   UNL     1       0.137  10.303  21.340  0.00  0.00    +0.000 A 
ATOM     11  C   UNL     1       0.163  11.265  20.342  0.00  0.00    +0.000 A 
ATOM     12  N   UNL     1      -0.598  12.384  20.333  0.00  0.00    +0.000 NA
ATOM     13  C   UNL     1      -1.435  12.588  21.353  0.00  0.00    +0.000 A 
ATOM     14  C   UNL     1      -2.182  13.755  21.328  0.00  0.00    +0.000 A 
BRANCH   5  16
ATOM     15  C   UNL     1      -5.126  15.301  23.713  0.00  0.00    +0.000 C 
ATOM     16  S   UNL     1      -4.017  15.595  22.307  0.00  0.00    +0.000 S 
ENDBRANCH   5  16
BRANCH   9  17
ATOM     17  O   UNL     1      -0.819   9.570  23.395  0.00  0.00    +0.000 OA
ATOM     18  H   UNL     1       0.046   9.142  23.502  0.00  0.00    +0.000 HD
ENDBRANCH   9  17
ENDBRANCH   1  10
BRANCH   3  19
ATOM     19  C   UNL     1       2.039   7.496  19.625  0.00  0.00    +0.000 A 
ATOM     20  C   UNL     1       2.051   6.331  20.388  0.00  0.00    +0.000 A 
ATOM     21  C   UNL     1       2.873   5.248  20.041  0.00  0.00    +0.000 A 
ATOM     22  C   UNL     1       3.718   5.280  18.924  0.00  0.00    +0.000 A 
ATOM     23  C   UNL     1       3.659   6.452  18.149  0.00  0.00    +0.000 A 
ATOM     24  C   UNL     1       2.831   7.541  18.483  0.00  0.00    +0.000 A 
BRANCH  22  25
ATOM     25  N   UNL     1       4.570   4.230  18.613  0.00  0.00    +0.000 N 
BRANCH  25  26
ATOM     26  C   UNL     1       5.537   4.301  17.492  0.00  0.00    +0.000 C 
BRANCH  26  27
ATOM     27  C   UNL     1       6.951   4.719  17.936  0.00  0.00    +0.000 C 
BRANCH  27  28
ATOM     28  O   UNL     1       7.966   4.130  17.125  0.00  0.00    +0.000 OA
ATOM     29  H   UNL     1       8.765   4.123  17.682  0.00  0.00    +0.000 HD
ENDBRANCH  27  28
ENDBRANCH  26  27
ENDBRANCH  25  26
BRANCH  25  30
ATOM     30  C   UNL     1       4.546   2.964  19.382  0.00  0.00    +0.000 C 
BRANCH  30  31
ATOM     31  C   UNL     1       3.585   1.917  18.787  0.00  0.00    +0.000 C 
BRANCH  31  32
ATOM     32  O   UNL     1       4.280   0.735  18.394  0.00  0.00    +0.000 OA
ATOM     33  H   UNL     1       4.926   1.033  17.727  0.00  0.00    +0.000 HD
ENDBRANCH  31  32
ENDBRANCH  30  31
ENDBRANCH  25  30
ENDBRANCH  22  25
ENDBRANCH   3  19
TORSDOF 11
ENDMDL
MODEL 2
REMARK VINA RESULT:      -7.1      2.093      2.833
REMARK  Name = 
REMARK  12 active torsions:
REMARK  status: ('A' for Active; 'I' for Inactive)
REMARK    1  A    between atoms: C_1  and  S_2
REMARK    2  A    between atoms: S_2  and  C_3
REMARK    3  A    between atoms: C_7  and  O_8
REMARK    4  A    between atoms: C_9  and  C_10
REMARK    5  A    between atoms: N_12  and  C_13
REMARK    6  A    between atoms: C_16  and  N_17
REMARK    7  A    between atoms: N_17  and  C_18
REMARK    8  A    between atoms: N_17  and  C_21
REMARK    9  A    between atoms: C_18  and  C_19
REMARK   10  A    between atoms: C_19  and  O_20
REMARK   11  A    between atoms: C_21  and  C_22
REMARK   12  A    between atoms: C_22  and  O_23
REMARK                            x       y       z     vdW  Elec       q    Type
REMARK                         _______ _______ _______ _____ _____    ______ ____
ROOT
ATOM      1  C   UNL     1       1.641   9.069  18.417  0.00  0.00    +0.000 C 
ATOM      2  O   UNL     1       2.072   9.614  17.402  0.00  0.00    +0.000 OA
ATOM      3  N   UNL     1       1.976   7.805  18.843  0.00  0.00    +0.000 N 
ATOM      4  H   UNL     1       1.439   7.426  19.618  0.00  0.00    +0.000 HD
ENDROOT
BRANCH   1  10
ATOM      5  C   UNL     1      -2.316  12.405  22.426  0.00  0.00    +0.000 A 
ATOM      6  C   UNL     1      -1.608  11.532  23.243  0.00  0.00    +0.000 A 
ATOM      7  C   UNL     1      -0.678  10.648  22.688  0.00  0.00    +0.000 A 
ATOM      8  C   UNL     1      -0.436  10.616  21.290  0.00  0.00    +0.000 A 
ATOM      9  C   UNL     1       0.507   9.776  20.628  0.00  0.00    +0.000 A 
ATOM     10  C   UNL     1       0.663   9.837  19.239  0.00  0.00    +0.000 A 
ATOM     11  C   UNL     1      -0.149  10.731  18.559  0.00  0.00    +0.000 A 
ATOM     12  N   UNL     1      -1.057  11.545  19.146  0.00  0.00    +0.000 NA
ATOM     13  C   UNL     1      -1.188  11.493  20.474  0.00  0.00    +0.000 A 
ATOM     14  C   UNL     1      -2.108  12.356  21.047  0.00  0.00    +0.000 A 
BRANCH   5  16
ATOM     15  C   UNL     1      -4.117  12.492  24.500  0.00  0.00    +0.000 C 
ATOM     16  S   UNL     1      -3.493  13.529  23.149  0.00  0.00    +0.000 S 
ENDBRANCH   5  16
BRANCH   9  17
ATOM     17  O   UNL     1       1.288   8.887  21.332  0.00  0.00    +0.000 OA
ATOM     18  H   UNL     1       2.076   8.654  20.815  0.00  0.00    +0.000 HD
ENDBRANCH   9  17
ENDBRANCH   1  10
BRANCH   3  19
ATOM     19  C   UNL     1       2.947   6.965  18.252  0.00  0.00    +0.000 A 
ATOM     20  C   UNL     1       2.954   5.580  18.394  0.00  0.00    +0.000 A 
ATOM     21  C   UNL     1       3.958   4.798  17.804  0.00  0.00    +0.000 A 
ATOM     22  C   UNL     1       4.997   5.361  17.051  0.00  0.00    +0.000 A 
ATOM     23  C   UNL     1       4.946   6.757  16.890  0.00  0.00    +0.000 A 
ATOM     24  C   UNL     1       3.938   7.550  17.470  0.00  0.00    +0.000 A 
BRANCH  22  25
ATOM     25  N   UNL     1       6.020   4.592  16.514  0.00  0.00    +0.000 N 
BRANCH  25  26
ATOM     26  C   UNL     1       7.412   4.661  17.020  0.00  0.00    +0.000 C 
BRANCH  26  27
ATOM     27  C   UNL     1       7.500   5.082  18.498  0.00  0.00    +0.000 C 
BRANCH  27  28
ATOM     28  O   UNL     1       8.037   6.394  18.653  0.00  0.00    +0.000 OA
ATOM     29  H   UNL     1       7.685   6.715  19.503  0.00  0.00    +0.000 HD
ENDBRANCH  27  28
ENDBRANCH  26  27
ENDBRANCH  25  26
BRANCH  25  30
ATOM     30  C   UNL     1       5.776   3.664  15.386  0.00  0.00    +0.000 C 
BRANCH  30  31
ATOM     31  C   UNL     1       6.435   4.126  14.072  0.00  0.00    +0.000 C 
BRANCH  31  32
ATOM     32  O   UNL     1       6.258   3.165  13.033  0.00  0.00    +0.000 OA
ATOM     33  H   UNL     1       7.127   3.105  12.595  0.00  0.00    +0.000 HD
ENDBRANCH  31  32
ENDBRANCH  30  31
ENDBRANCH  25  30
ENDBRANCH  22  25
ENDBRANCH   3  19
TORSDOF 11
ENDMDL
MODEL 3
REMARK VINA RESULT:      -7.0      1.582      1.788
REMARK  Name = 
REMARK  12 active torsions:
REMARK  status: ('A' for Active; 'I' for Inactive)
REMARK    1  A    between atoms: C_1  and  S_2
REMARK    2  A    between atoms: S_2  and  C_3
REMARK    3  A    between atoms: C_7  and  O_8
REMARK    4  A    between atoms: C_9  and  C_10
REMARK    5  A    between atoms: N_12  and  C_13
REMARK    6  A    between atoms: C_16  and  N_17
REMARK    7  A    between atoms: N_17  and  C_18
REMARK    8  A    between atoms: N_17  and  C_21
REMARK    9  A    between atoms: C_18  and  C_19
REMARK   10  A    between atoms: C_19  and  O_20
REMARK   11  A    between atoms: C_21  and  C_22
REMARK   12  A    between atoms: C_22  and  O_23
REMARK                            x       y       z     vdW  Elec       q    Type
REMARK                         _______ _______ _______ _____ _____    ______ ____
ROOT
ATOM      1  C   UNL     1       1.023   9.037  20.692  0.00  0.00    +0.000 C 
ATOM      2  O   UNL     1       1.483   8.487  21.692  0.00  0.00    +0.000 OA
ATOM      3  N   UNL     1       1.396   8.768  19.395  0.00  0.00    +0.000 N 
ATOM      4  H   UNL     1       1.041   9.394  18.678  0.00  0.00    +0.000 HD
ENDROOT
BRANCH   1  10
ATOM      5  C   UNL     1      -3.248  13.801  22.078  0.00  0.00    +0.000 A 
ATOM      6  C   UNL     1      -2.785  13.347  23.307  0.00  0.00    +0.000 A 
ATOM      7  C   UNL     1      -1.861  12.299  23.366  0.00  0.00    +0.000 A 
ATOM      8  C   UNL     1      -1.376  11.677  22.187  0.00  0.00    +0.000 A 
ATOM      9  C   UNL     1      -0.416  10.625  22.136  0.00  0.00    +0.000 A 
ATOM     10  C   UNL     1      -0.008  10.092  20.908  0.00  0.00    +0.000 A 
ATOM     11  C   UNL     1      -0.595  10.625  19.771  0.00  0.00    +0.000 A 
ATOM     12  N   UNL     1      -1.510  11.621  19.773  0.00  0.00    +0.000 NA
ATOM     13  C   UNL     1      -1.881  12.137  20.948  0.00  0.00    +0.000 A 
ATOM     14  C   UNL     1      -2.801  13.172  20.916  0.00  0.00    +0.000 A 
BRANCH   5  16
ATOM     15  C   UNL     1      -5.070  15.052  23.711  0.00  0.00    +0.000 C 
ATOM     16  S   UNL     1      -4.421  15.140  22.019  0.00  0.00    +0.000 S 
ENDBRANCH   5  16
BRANCH   9  17
ATOM     17  O   UNL     1       0.137  10.107  23.286  0.00  0.00    +0.000 OA
ATOM     18  H   UNL     1       0.886   9.531  23.065  0.00  0.00    +0.000 HD
ENDBRANCH   9  17
ENDBRANCH   1  10
BRANCH   3  19
ATOM     19  C   UNL     1       2.284   7.747  18.988  0.00  0.00    +0.000 A 
ATOM     20  C   UNL     1       2.430   6.540  19.668  0.00  0.00    +0.000 A 
ATOM     21  C   UNL     1       3.348   5.572  19.232  0.00  0.00    +0.000 A 
ATOM     22  C   UNL     1       4.157   5.765  18.104  0.00  0.00    +0.000 A 
ATOM     23  C   UNL     1       3.963   6.975  17.414  0.00  0.00    +0.000 A 
ATOM     24  C   UNL     1       3.039   7.948  17.838  0.00  0.00    +0.000 A 
BRANCH  22  25
ATOM     25  N   UNL     1       5.102   4.830  17.706  0.00  0.00    +0.000 N 
BRANCH  25  26
ATOM     26  C   UNL     1       6.280   4.491  18.539  0.00  0.00    +0.000 C 
BRANCH  26  27
ATOM     27  C   UNL     1       7.068   5.728  19.008  0.00  0.00    +0.000 C 
BRANCH  27  28
ATOM     28  O   UNL     1       7.723   5.508  20.255  0.00  0.00    +0.000 OA
ATOM     29  H   UNL     1       7.549   6.311  20.780  0.00  0.00    +0.000 HD
ENDBRANCH  27  28
ENDBRANCH  26  27
ENDBRANCH  25  26
BRANCH  25  30
ATOM     30  C   UNL     1       4.990   4.126  16.408  0.00  0.00    +0.000 C 
BRANCH  30  31
ATOM     31  C   UNL     1       6.110   4.503  15.420  0.00  0.00    +0.000 C 
BRANCH  31  32
ATOM     32  O   UNL     1       6.316   3.478  14.448  0.00  0.00    +0.000 OA
ATOM     33  H   UNL     1       6.236   3.929  13.587  0.00  0.00    +0.000 HD
ENDBRANCH  31  32
ENDBRANCH  30  31
ENDBRANCH  25  30
ENDBRANCH  22  25
ENDBRANCH   3  19
TORSDOF 11
ENDMDL
MODEL 4
REMARK VINA RESULT:      -7.0      0.675      1.917
REMARK  Name = 
REMARK  12 active torsions:
REMARK  status: ('A' for Active; 'I' for Inactive)
REMARK    1  A    between atoms: C_1  and  S_2
REMARK    2  A    between atoms: S_2  and  C_3
REMARK    3  A    between atoms: C_7  and  O_8
REMARK    4  A    between atoms: C_9  and  C_10
REMARK    5  A    between atoms: N_12  and  C_13
REMARK    6  A    between atoms: C_16  and  N_17
REMARK    7  A    between atoms: N_17  and  C_18
REMARK    8  A    between atoms: N_17  and  C_21
REMARK    9  A    between atoms: C_18  and  C_19
REMARK   10  A    between atoms: C_19  and  O_20
REMARK   11  A    between atoms: C_21  and  C_22
REMARK   12  A    between atoms: C_22  and  O_23
REMARK                            x       y       z     vdW  Elec       q    Type
REMARK                         _______ _______ _______ _____ _____    ______ ____
ROOT
ATOM      1  C   UNL     1       1.041   9.341  21.181  0.00  0.00    +0.000 C 
ATOM      2  O   UNL     1       1.667   8.969  22.174  0.00  0.00    +0.000 OA
ATOM      3  N   UNL     1       1.172   8.814  19.917  0.00  0.00    +0.000 N 
ATOM      4  H   UNL     1       0.702   9.309  19.165  0.00  0.00    +0.000 HD
ENDROOT
BRANCH   1  10
ATOM      5  C   UNL     1      -3.152  14.194  22.496  0.00  0.00    +0.000 A 
ATOM      6  C   UNL     1      -3.332  13.261  23.511  0.00  0.00    +0.000 A 
ATOM      7  C   UNL     1      -2.592  12.075  23.514  0.00  0.00    +0.000 A 
ATOM      8  C   UNL     1      -1.647  11.793  22.493  0.00  0.00    +0.000 A 
ATOM      9  C   UNL     1      -0.823  10.632  22.419  0.00  0.00    +0.000 A 
ATOM     10  C   UNL     1       0.080  10.465  21.363  0.00  0.00    +0.000 A 
ATOM     11  C   UNL     1       0.111  11.467  20.406  0.00  0.00    +0.000 A 
ATOM     12  N   UNL     1      -0.652  12.584  20.436  0.00  0.00    +0.000 NA
ATOM     13  C   UNL     1      -1.499  12.744  21.456  0.00  0.00    +0.000 A 
ATOM     14  C   UNL     1      -2.249  13.909  21.472  0.00  0.00    +0.000 A 
BRANCH   5  16
ATOM     15  C   UNL     1      -5.146  15.418  21.056  0.00  0.00    +0.000 C 
ATOM     16  S   UNL     1      -4.098  15.702  22.510  0.00  0.00    +0.000 S 
ENDBRANCH   5  16
BRANCH   9  17
ATOM     17  O   UNL     1      -0.891   9.647  23.379  0.00  0.00    +0.000 OA
ATOM     18  H   UNL     1      -1.809   9.349  23.485  0.00  0.00    +0.000 HD
ENDBRANCH   9  17
ENDBRANCH   1  10
BRANCH   3  19
ATOM     19  C   UNL     1       1.959   7.694  19.568  0.00  0.00    +0.000 A 
ATOM     20  C   UNL     1       2.023   6.532  20.333  0.00  0.00    +0.000 A 
ATOM     21  C   UNL     1       2.843   5.459  19.951  0.00  0.00    +0.000 A 
ATOM     22  C   UNL     1       3.634   5.499  18.796  0.00  0.00    +0.000 A 
ATOM     23  C   UNL     1       3.523   6.667  18.021  0.00  0.00    +0.000 A 
ATOM     24  C   UNL     1       2.696   7.745  18.390  0.00  0.00    +0.000 A 
BRANCH  22  25
ATOM     25  N   UNL     1       4.485   4.459  18.448  0.00  0.00    +0.000 N 
BRANCH  25  26
ATOM     26  C   UNL     1       4.001   3.234  17.769  0.00  0.00    +0.000 C 
BRANCH  26  27
ATOM     27  C   UNL     1       3.676   2.088  18.744  0.00  0.00    +0.000 C 
BRANCH  27  28
ATOM     28  O   UNL     1       4.307   0.866  18.369  0.00  0.00    +0.000 OA
ATOM     29  H   UNL     1       3.841   0.173  18.872  0.00  0.00    +0.000 HD
ENDBRANCH  27  28
ENDBRANCH  26  27
ENDBRANCH  25  26
BRANCH  25  30
ATOM     30  C   UNL     1       5.933   4.514  18.755  0.00  0.00    +0.000 C 
BRANCH  30  31
ATOM     31  C   UNL     1       6.803   4.772  17.510  0.00  0.00    +0.000 C 
BRANCH  31  32
ATOM     32  O   UNL     1       8.057   4.097  17.600  0.00  0.00    +0.000 OA
ATOM     33  H   UNL     1       8.605   4.489  16.895  0.00  0.00    +0.000 HD
ENDBRANCH  31  32
ENDBRANCH  30  31
ENDBRANCH  25  30
ENDBRANCH  22  25
ENDBRANCH   3  19
TORSDOF 11
ENDMDL
MODEL 5
REMARK VINA RESULT:      -7.0      2.428      3.109
REMARK  Name = 
REMARK  12 active torsions:
REMARK  status: ('A' for Active; 'I' for Inactive)
REMARK    1  A    between atoms: C_1  and  S_2
REMARK    2  A    between atoms: S_2  and  C_3
REMARK    3  A    between atoms: C_7  and  O_8
REMARK    4  A    between atoms: C_9  and  C_10
REMARK    5  A    between atoms: N_12  and  C_13
REMARK    6  A    between atoms: C_16  and  N_17
REMARK    7  A    between atoms: N_17  and  C_18
REMARK    8  A    between atoms: N_17  and  C_21
REMARK    9  A    between atoms: C_18  and  C_19
REMARK   10  A    between atoms: C_19  and  O_20
REMARK   11  A    between atoms: C_21  and  C_22
REMARK   12  A    between atoms: C_22  and  O_23
REMARK                            x       y       z     vdW  Elec       q    Type
REMARK                         _______ _______ _______ _____ _____    ______ ____
ROOT
ATOM      1  C   UNL     1       1.558   9.196  18.545  0.00  0.00    +0.000 C 
ATOM      2  O   UNL     1       1.922   9.569  17.430  0.00  0.00    +0.000 OA
ATOM      3  N   UNL     1       1.980   8.047  19.175  0.00  0.00    +0.000 N 
ATOM      4  H   UNL     1       1.492   7.788  20.027  0.00  0.00    +0.000 HD
ENDROOT
BRANCH   1  10
ATOM      5  C   UNL     1      -3.162  12.758  21.354  0.00  0.00    +0.000 A 
ATOM      6  C   UNL     1      -3.535  12.631  20.021  0.00  0.00    +0.000 A 
ATOM      7  C   UNL     1      -2.717  11.934  19.126  0.00  0.00    +0.000 A 
ATOM      8  C   UNL     1      -1.498  11.344  19.549  0.00  0.00    +0.000 A 
ATOM      9  C   UNL     1      -0.610  10.590  18.728  0.00  0.00    +0.000 A 
ATOM     10  C   UNL     1       0.566  10.048  19.259  0.00  0.00    +0.000 A 
ATOM     11  C   UNL     1       0.817  10.299  20.599  0.00  0.00    +0.000 A 
ATOM     12  N   UNL     1       0.003  11.009  21.415  0.00  0.00    +0.000 NA
ATOM     13  C   UNL     1      -1.125  11.508  20.904  0.00  0.00    +0.000 A 
ATOM     14  C   UNL     1      -1.949  12.208  21.769  0.00  0.00    +0.000 A 
BRANCH   5  16
ATOM     15  C   UNL     1      -3.187  13.585  23.975  0.00  0.00    +0.000 C 
ATOM     16  S   UNL     1      -4.217  13.644  22.483  0.00  0.00    +0.000 S 
ENDBRANCH   5  16
BRANCH   9  17
ATOM     17  O   UNL     1      -0.881  10.373  17.395  0.00  0.00    +0.000 OA
ATOM     18  H   UNL     1      -1.800  10.080  17.286  0.00  0.00    +0.000 HD
ENDBRANCH   9  17
ENDBRANCH   1  10
BRANCH   3  19
ATOM     19  C   UNL     1       2.976   7.166  18.699  0.00  0.00    +0.000 A 
ATOM     20  C   UNL     1       3.300   5.964  19.325  0.00  0.00    +0.000 A 
ATOM     21  C   UNL     1       4.318   5.139  18.822  0.00  0.00    +0.000 A 
ATOM     22  C   UNL     1       5.056   5.476  17.680  0.00  0.00    +0.000 A 
ATOM     23  C   UNL     1       4.684   6.674  17.045  0.00  0.00    +0.000 A 
ATOM     24  C   UNL     1       3.658   7.504  17.536  0.00  0.00    +0.000 A 
BRANCH  22  25
ATOM     25  N   UNL     1       6.098   4.685  17.215  0.00  0.00    +0.000 N 
BRANCH  25  26
ATOM     26  C   UNL     1       5.955   3.803  16.033  0.00  0.00    +0.000 C 
BRANCH  26  27
ATOM     27  C   UNL     1       6.663   4.348  14.780  0.00  0.00    +0.000 C 
BRANCH  27  28
ATOM     28  O   UNL     1       6.008   3.951  13.576  0.00  0.00    +0.000 OA
ATOM     29  H   UNL     1       5.349   3.288  13.851  0.00  0.00    +0.000 HD
ENDBRANCH  27  28
ENDBRANCH  26  27
ENDBRANCH  25  26
BRANCH  25  30
ATOM     30  C   UNL     1       7.415   4.670  17.893  0.00  0.00    +0.000 C 
BRANCH  30  31
ATOM     31  C   UNL     1       7.629   5.881  18.821  0.00  0.00    +0.000 C 
BRANCH  31  32
ATOM     32  O   UNL     1       7.701   5.484  20.189  0.00  0.00    +0.000 OA
ATOM     33  H   UNL     1       7.113   4.708  20.257  0.00  0.00    +0.000 HD
ENDBRANCH  31  32
ENDBRANCH  30  31
ENDBRANCH  25  30
ENDBRANCH  22  25
ENDBRANCH   3  19
TORSDOF 11
ENDMDL
MODEL 6
REMARK VINA RESULT:      -6.9      1.961      2.566
REMARK  Name = 
REMARK  12 active torsions:
REMARK  status: ('A' for Active; 'I' for Inactive)
REMARK    1  A    between atoms: C_1  and  S_2
REMARK    2  A    between atoms: S_2  and  C_3
REMARK    3  A    between atoms: C_7  and  O_8
REMARK    4  A    between atoms: C_9  and  C_10
REMARK    5  A    between atoms: N_12  and  C_13
REMARK    6  A    between atoms: C_16  and  N_17
REMARK    7  A    between atoms: N_17  and  C_18
REMARK    8  A    between atoms: N_17  and  C_21
REMARK    9  A    between atoms: C_18  and  C_19
REMARK   10  A    between atoms: C_19  and  O_20
REMARK   11  A    between atoms: C_21  and  C_22
REMARK   12  A    between atoms: C_22  and  O_23
REMARK                            x       y       z     vdW  Elec       q    Type
REMARK                         _______ _______ _______ _____ _____    ______ ____
ROOT
ATOM      1  C   UNL     1       1.142   9.963  19.016  0.00  0.00    +0.000 C 
ATOM      2  O   UNL     1       1.844  10.617  18.246  0.00  0.00    +0.000 OA
ATOM      3  N   UNL     1       1.295   8.623  19.289  0.00  0.00    +0.000 N 
ATOM      4  H   UNL     1       0.560   8.180  19.832  0.00  0.00    +0.000 HD
ENDROOT
BRANCH   1  10
ATOM      5  C   UNL     1      -3.429  13.240  22.368  0.00  0.00    +0.000 A 
ATOM      6  C   UNL     1      -2.546  12.749  23.324  0.00  0.00    +0.000 A 
ATOM      7  C   UNL     1      -1.450  11.974  22.934  0.00  0.00    +0.000 A 
ATOM      8  C   UNL     1      -1.211  11.668  21.570  0.00  0.00    +0.000 A 
ATOM      9  C   UNL     1      -0.112  10.913  21.066  0.00  0.00    +0.000 A 
ATOM     10  C   UNL     1       0.024  10.680  19.694  0.00  0.00    +0.000 A 
ATOM     11  C   UNL     1      -0.964  11.201  18.873  0.00  0.00    +0.000 A 
ATOM     12  N   UNL     1      -2.024  11.922  19.307  0.00  0.00    +0.000 NA
ATOM     13  C   UNL     1      -2.137  12.155  20.617  0.00  0.00    +0.000 A 
ATOM     14  C   UNL     1      -3.218  12.916  21.028  0.00  0.00    +0.000 A 
BRANCH   5  16
ATOM     15  C   UNL     1      -5.803  12.965  23.725  0.00  0.00    +0.000 C 
ATOM     16  S   UNL     1      -4.817  14.231  22.879  0.00  0.00    +0.000 S 
ENDBRANCH   5  16
BRANCH   9  17
ATOM     17  O   UNL     1       0.845  10.395  21.912  0.00  0.00    +0.000 OA
ATOM     18  H   UNL     1       1.188   9.560  21.554  0.00  0.00    +0.000 HD
ENDBRANCH   9  17
ENDBRANCH   1  10
BRANCH   3  19
ATOM     19  C   UNL     1       2.344   7.802  18.817  0.00  0.00    +0.000 A 
ATOM     20  C   UNL     1       3.078   8.079  17.667  0.00  0.00    +0.000 A 
ATOM     21  C   UNL     1       4.093   7.212  17.231  0.00  0.00    +0.000 A 
ATOM     22  C   UNL     1       4.416   6.035  17.919  0.00  0.00    +0.000 A 
ATOM     23  C   UNL     1       3.686   5.798  19.098  0.00  0.00    +0.000 A 
ATOM     24  C   UNL     1       2.673   6.666  19.548  0.00  0.00    +0.000 A 
BRANCH  22  25
ATOM     25  N   UNL     1       5.382   5.152  17.458  0.00  0.00    +0.000 N 
BRANCH  25  26
ATOM     26  C   UNL     1       6.423   4.583  18.347  0.00  0.00    +0.000 C 
BRANCH  26  27
ATOM     27  C   UNL     1       7.458   5.623  18.812  0.00  0.00    +0.000 C 
BRANCH  27  28
ATOM     28  O   UNL     1       7.709   5.542  20.214  0.00  0.00    +0.000 OA
ATOM     29  H   UNL     1       7.548   6.441  20.554  0.00  0.00    +0.000 HD
ENDBRANCH  27  28
ENDBRANCH  26  27
ENDBRANCH  25  26
BRANCH  25  30
ATOM     30  C   UNL     1       5.434   4.741  16.036  0.00  0.00    +0.000 C 
BRANCH  30  31
ATOM     31  C   UNL     1       6.824   4.232  15.607  0.00  0.00    +0.000 C 
BRANCH  31  32
ATOM     32  O   UNL     1       7.601   5.272  15.016  0.00  0.00    +0.000 OA
ATOM     33  H   UNL     1       7.312   5.304  14.085  0.00  0.00    +0.000 HD
ENDBRANCH  31  32
ENDBRANCH  30  31
ENDBRANCH  25  30
ENDBRANCH  22  25
ENDBRANCH   3  19
TORSDOF 11
ENDMDL
MODEL 7
REMARK VINA RESULT:      -6.9      1.964      2.683
REMARK  Name = 
REMARK  12 active torsions:
REMARK  status: ('A' for Active; 'I' for Inactive)
REMARK    1  A    between atoms: C_1  and  S_2
REMARK    2  A    between atoms: S_2  and  C_3
REMARK    3  A    between atoms: C_7  and  O_8
REMARK    4  A    between atoms: C_9  and  C_10
REMARK    5  A    between atoms: N_12  and  C_13
REMARK    6  A    between atoms: C_16  and  N_17
REMARK    7  A    between atoms: N_17  and  C_18
REMARK    8  A    between atoms: N_17  and  C_21
REMARK    9  A    between atoms: C_18  and  C_19
REMARK   10  A    between atoms: C_19  and  O_20
REMARK   11  A    between atoms: C_21  and  C_22
REMARK   12  A    between atoms: C_22  and  O_23
REMARK                            x       y       z     vdW  Elec       q    Type
REMARK                         _______ _______ _______ _____ _____    ______ ____
ROOT
ATOM      1  C   UNL     1       1.493   9.339  18.610  0.00  0.00    +0.000 C 
ATOM      2  O   UNL     1       1.957   9.845  17.589  0.00  0.00    +0.000 OA
ATOM      3  N   UNL     1       1.867   8.123  19.134  0.00  0.00    +0.000 N 
ATOM      4  H   UNL     1       1.303   7.761  19.898  0.00  0.00    +0.000 HD
ENDROOT
BRANCH   1  10
ATOM      5  C   UNL     1      -2.850  12.735  22.140  0.00  0.00    +0.000 A 
ATOM      6  C   UNL     1      -2.049  12.079  23.067  0.00  0.00    +0.000 A 
ATOM      7  C   UNL     1      -1.020  11.237  22.634  0.00  0.00    +0.000 A 
ATOM      8  C   UNL     1      -0.767  11.032  21.253  0.00  0.00    +0.000 A 
ATOM      9  C   UNL     1       0.271  10.221  20.709  0.00  0.00    +0.000 A 
ATOM     10  C   UNL     1       0.427  10.098  19.324  0.00  0.00    +0.000 A 
ATOM     11  C   UNL     1      -0.480  10.784  18.531  0.00  0.00    +0.000 A 
ATOM     12  N   UNL     1      -1.480  11.563  19.004  0.00  0.00    +0.000 NA
ATOM     13  C   UNL     1      -1.612  11.689  20.328  0.00  0.00    +0.000 A 
ATOM     14  C   UNL     1      -2.629  12.512  20.781  0.00  0.00    +0.000 A 
BRANCH   5  16
ATOM     15  C   UNL     1      -5.226  13.785  21.243  0.00  0.00    +0.000 C 
ATOM     16  S   UNL     1      -4.154  13.809  22.706  0.00  0.00    +0.000 S 
ENDBRANCH   5  16
BRANCH   9  17
ATOM     17  O   UNL     1       1.146   9.539  21.525  0.00  0.00    +0.000 OA
ATOM     18  H   UNL     1       0.711   9.311  22.362  0.00  0.00    +0.000 HD
ENDBRANCH   9  17
ENDBRANCH   1  10
BRANCH   3  19
ATOM     19  C   UNL     1       2.915   7.305  18.654  0.00  0.00    +0.000 A 
ATOM     20  C   UNL     1       3.677   7.615  17.530  0.00  0.00    +0.000 A 
ATOM     21  C   UNL     1       4.689   6.752  17.083  0.00  0.00    +0.000 A 
ATOM     22  C   UNL     1       4.983   5.547  17.734  0.00  0.00    +0.000 A 
ATOM     23  C   UNL     1       4.226   5.276  18.887  0.00  0.00    +0.000 A 
ATOM     24  C   UNL     1       3.215   6.139  19.349  0.00  0.00    +0.000 A 
BRANCH  22  25
ATOM     25  N   UNL     1       5.948   4.669  17.259  0.00  0.00    +0.000 N 
BRANCH  25  26
ATOM     26  C   UNL     1       7.323   4.630  17.813  0.00  0.00    +0.000 C 
BRANCH  26  27
ATOM     27  C   UNL     1       7.648   5.834  18.715  0.00  0.00    +0.000 C 
BRANCH  27  28
ATOM     28  O   UNL     1       7.718   5.472  20.092  0.00  0.00    +0.000 OA
ATOM     29  H   UNL     1       8.471   4.856  20.156  0.00  0.00    +0.000 HD
ENDBRANCH  27  28
ENDBRANCH  26  27
ENDBRANCH  25  26
BRANCH  25  30
ATOM     30  C   UNL     1       5.657   3.727  16.154  0.00  0.00    +0.000 C 
BRANCH  30  31
ATOM     31  C   UNL     1       5.854   4.354  14.761  0.00  0.00    +0.000 C 
BRANCH  31  32
ATOM     32  O   UNL     1       6.416   3.419  13.842  0.00  0.00    +0.000 OA
ATOM     33  H   UNL     1       7.377   3.580  13.875  0.00  0.00    +0.000 HD
ENDBRANCH  31  32
ENDBRANCH  30  31
ENDBRANCH  25  30
ENDBRANCH  22  25
ENDBRANCH   3  19
TORSDOF 11
ENDMDL
MODEL 8
REMARK VINA RESULT:      -6.9      1.395      2.723
REMARK  Name = 
REMARK  12 active torsions:
REMARK  status: ('A' for Active; 'I' for Inactive)
REMARK    1  A    between atoms: C_1  and  S_2
REMARK    2  A    between atoms: S_2  and  C_3
REMARK    3  A    between atoms: C_7  and  O_8
REMARK    4  A    between atoms: C_9  and  C_10
REMARK    5  A    between atoms: N_12  and  C_13
REMARK    6  A    between atoms: C_16  and  N_17
REMARK    7  A    between atoms: N_17  and  C_18
REMARK    8  A    between atoms: N_17  and  C_21
REMARK    9  A    between atoms: C_18  and  C_19
REMARK   10  A    between atoms: C_19  and  O_20
REMARK   11  A    between atoms: C_21  and  C_22
REMARK   12  A    between atoms: C_22  and  O_23
REMARK                            x       y       z     vdW  Elec       q    Type
REMARK                         _______ _______ _______ _____ _____    ______ ____
ROOT
ATOM      1  C   UNL     1       1.109   9.211  21.244  0.00  0.00    +0.000 C 
ATOM      2  O   UNL     1       1.914   8.907  22.123  0.00  0.00    +0.000 OA
ATOM      3  N   UNL     1       1.118   8.728  19.956  0.00  0.00    +0.000 N 
ATOM      4  H   UNL     1       0.484   9.170  19.297  0.00  0.00    +0.000 HD
ENDROOT
BRANCH   1  10
ATOM      5  C   UNL     1      -3.700  13.522  22.317  0.00  0.00    +0.000 A 
ATOM      6  C   UNL     1      -3.326  13.705  20.991  0.00  0.00    +0.000 A 
ATOM      7  C   UNL     1      -2.290  12.942  20.442  0.00  0.00    +0.000 A 
ATOM      8  C   UNL     1      -1.601  11.972  21.215  0.00  0.00    +0.000 A 
ATOM      9  C   UNL     1      -0.554  11.125  20.746  0.00  0.00    +0.000 A 
ATOM     10  C   UNL     1       0.050  10.198  21.601  0.00  0.00    +0.000 A 
ATOM     11  C   UNL     1      -0.408  10.166  22.909  0.00  0.00    +0.000 A 
ATOM     12  N   UNL     1      -1.397  10.951  23.397  0.00  0.00    +0.000 NA
ATOM     13  C   UNL     1      -1.980  11.822  22.569  0.00  0.00    +0.000 A 
ATOM     14  C   UNL     1      -3.005  12.593  23.091  0.00  0.00    +0.000 A 
BRANCH   5  16
ATOM     15  C   UNL     1      -6.015  14.759  21.502  0.00  0.00    +0.000 C 
ATOM     16  S   UNL     1      -5.025  14.497  23.000  0.00  0.00    +0.000 S 
ENDBRANCH   5  16
BRANCH   9  17
ATOM     17  O   UNL     1      -0.111  11.194  19.443  0.00  0.00    +0.000 OA
ATOM     18  H   UNL     1       0.144  10.310  19.132  0.00  0.00    +0.000 HD
ENDBRANCH   9  17
ENDBRANCH   1  10
BRANCH   3  19
ATOM     19  C   UNL     1       1.981   7.725  19.458  0.00  0.00    +0.000 A 
ATOM     20  C   UNL     1       2.733   7.868  18.295  0.00  0.00    +0.000 A 
ATOM     21  C   UNL     1       3.555   6.828  17.833  0.00  0.00    +0.000 A 
ATOM     22  C   UNL     1       3.661   5.605  18.508  0.00  0.00    +0.000 A 
ATOM     23  C   UNL     1       2.922   5.500  19.701  0.00  0.00    +0.000 A 
ATOM     24  C   UNL     1       2.102   6.541  20.177  0.00  0.00    +0.000 A 
BRANCH  22  25
ATOM     25  N   UNL     1       4.432   4.558  18.022  0.00  0.00    +0.000 N 
BRANCH  25  26
ATOM     26  C   UNL     1       3.855   3.465  17.204  0.00  0.00    +0.000 C 
BRANCH  26  27
ATOM     27  C   UNL     1       3.579   2.183  18.011  0.00  0.00    +0.000 C 
BRANCH  27  28
ATOM     28  O   UNL     1       2.213   1.782  17.933  0.00  0.00    +0.000 OA
ATOM     29  H   UNL     1       2.232   0.808  17.959  0.00  0.00    +0.000 HD
ENDBRANCH  27  28
ENDBRANCH  26  27
ENDBRANCH  25  26
BRANCH  25  30
ATOM     30  C   UNL     1       5.881   4.469  18.311  0.00  0.00    +0.000 C 
BRANCH  30  31
ATOM     31  C   UNL     1       6.760   4.737  17.074  0.00  0.00    +0.000 C 
BRANCH  31  32
ATOM     32  O   UNL     1       8.050   4.144  17.212  0.00  0.00    +0.000 OA
ATOM     33  H   UNL     1       7.895   3.319  17.708  0.00  0.00    +0.000 HD
ENDBRANCH  31  32
ENDBRANCH  30  31
ENDBRANCH  25  30
ENDBRANCH  22  25
ENDBRANCH   3  19
TORSDOF 11
ENDMDL
MODEL 9
REMARK VINA RESULT:      -6.8      1.758      2.170
REMARK  Name = 
REMARK  12 active torsions:
REMARK  status: ('A' for Active; 'I' for Inactive)
REMARK    1  A    between atoms: C_1  and  S_2
REMARK    2  A    between atoms: S_2  and  C_3
REMARK    3  A    between atoms: C_7  and  O_8
REMARK    4  A    between atoms: C_9  and  C_10
REMARK    5  A    between atoms: N_12  and  C_13
REMARK    6  A    between atoms: C_16  and  N_17
REMARK    7  A    between atoms: N_17  and  C_18
REMARK    8  A    between atoms: N_17  and  C_21
REMARK    9  A    between atoms: C_18  and  C_19
REMARK   10  A    between atoms: C_19  and  O_20
REMARK   11  A    between atoms: C_21  and  C_22
REMARK   12  A    between atoms: C_22  and  O_23
REMARK                            x       y       z     vdW  Elec       q    Type
REMARK                         _______ _______ _______ _____ _____    ______ ____
ROOT
ATOM      1  C   UNL     1       0.921   9.387  20.647  0.00  0.00    +0.000 C 
ATOM      2  O   UNL     1       1.507   8.972  21.647  0.00  0.00    +0.000 OA
ATOM      3  N   UNL     1       1.215   9.033  19.351  0.00  0.00    +0.000 N 
ATOM      4  H   UNL     1       0.749   9.559  18.617  0.00  0.00    +0.000 HD
ENDROOT
BRANCH   1  10
ATOM      5  C   UNL     1      -3.684  13.830  22.029  0.00  0.00    +0.000 A 
ATOM      6  C   UNL     1      -3.200  13.400  23.260  0.00  0.00    +0.000 A 
ATOM      7  C   UNL     1      -2.205  12.420  23.319  0.00  0.00    +0.000 A 
ATOM      8  C   UNL     1      -1.669  11.842  22.140  0.00  0.00    +0.000 A 
ATOM      9  C   UNL     1      -0.636  10.860  22.089  0.00  0.00    +0.000 A 
ATOM     10  C   UNL     1      -0.182  10.365  20.862  0.00  0.00    +0.000 A 
ATOM     11  C   UNL     1      -0.796  10.864  19.724  0.00  0.00    +0.000 A 
ATOM     12  N   UNL     1      -1.779  11.794  19.725  0.00  0.00    +0.000 NA
ATOM     13  C   UNL     1      -2.195  12.274  20.900  0.00  0.00    +0.000 A 
ATOM     14  C   UNL     1      -3.185  13.242  20.867  0.00  0.00    +0.000 A 
BRANCH   5  16
ATOM     15  C   UNL     1      -5.927  14.464  20.575  0.00  0.00    +0.000 C 
ATOM     16  S   UNL     1      -4.947  15.084  21.970  0.00  0.00    +0.000 S 
ENDBRANCH   5  16
BRANCH   9  17
ATOM     17  O   UNL     1      -0.058  10.373  23.241  0.00  0.00    +0.000 OA
ATOM     18  H   UNL     1       0.800   9.968  23.036  0.00  0.00    +0.000 HD
ENDBRANCH   9  17
ENDBRANCH   1  10
BRANCH   3  19
ATOM     19  C   UNL     1       2.159   8.059  18.955  0.00  0.00    +0.000 A 
ATOM     20  C   UNL     1       2.961   8.182  17.824  0.00  0.00    +0.000 A 
ATOM     21  C   UNL     1       3.865   7.169  17.465  0.00  0.00    +0.000 A 
ATOM     22  C   UNL     1       4.005   5.994  18.215  0.00  0.00    +0.000 A 
ATOM     23  C   UNL     1       3.212   5.912  19.373  0.00  0.00    +0.000 A 
ATOM     24  C   UNL     1       2.310   6.926  19.747  0.00  0.00    +0.000 A 
BRANCH  22  25
ATOM     25  N   UNL     1       4.860   4.971  17.829  0.00  0.00    +0.000 N 
BRANCH  25  26
ATOM     26  C   UNL     1       4.702   4.252  16.543  0.00  0.00    +0.000 C 
BRANCH  26  27
ATOM     27  C   UNL     1       5.958   4.312  15.655  0.00  0.00    +0.000 C 
BRANCH  27  28
ATOM     28  O   UNL     1       6.225   5.634  15.189  0.00  0.00    +0.000 OA
ATOM     29  H   UNL     1       6.097   5.595  14.224  0.00  0.00    +0.000 HD
ENDBRANCH  27  28
ENDBRANCH  26  27
ENDBRANCH  25  26
BRANCH  25  30
ATOM     30  C   UNL     1       5.974   4.528  18.698  0.00  0.00    +0.000 C 
BRANCH  30  31
ATOM     31  C   UNL     1       7.007   5.640  18.965  0.00  0.00    +0.000 C 
BRANCH  31  32
ATOM     32  O   UNL     1       7.651   5.462  20.226  0.00  0.00    +0.000 OA
ATOM     33  H   UNL     1       8.538   5.120  20.009  0.00  0.00    +0.000 HD
ENDBRANCH  31  32
ENDBRANCH  30  31
ENDBRANCH  25  30
ENDBRANCH  22  25
ENDBRANCH   3  19
TORSDOF 11
ENDMDL
