MODEL 1
REMARK VINA RESULT:      -7.7      0.000      0.000
REMARK  Name = 
REMARK  8 active torsions:
REMARK  status: ('A' for Active; 'I' for Inactive)
REMARK    1  A    between atoms: C_1  and  C_2
REMARK    2  A    between atoms: C_2  and  C_3
REMARK    3  A    between atoms: C_2  and  C_4
REMARK    4  A    between atoms: C_4  and  C_5
REMARK    5  A    between atoms: C_4  and  N_15
REMARK    6  A    between atoms: N_9  and  C_10
REMARK    7  A    between atoms: N_15  and  C_16
REMARK    8  A    between atoms: N_15  and  C_17
REMARK                            x       y       z     vdW  Elec       q    Type
REMARK                         _______ _______ _______ _____ _____    ______ ____
ROOT
ATOM      1  C   UNL     1       4.238   5.166  17.331  0.00  0.00    +0.000 C 
ENDROOT
BRANCH   1   2
ATOM      2  C   UNL     1       5.754   4.804  17.278  0.00  0.00    +0.000 A 
ATOM      3  N   UNL     1       6.480   4.604  18.398  0.00  0.00    +0.000 NA
ATOM      4  N   UNL     1       7.719   4.359  18.015  0.00  0.00    +0.000 NA
ATOM      5  N   UNL     1       7.782   4.416  16.696  0.00  0.00    +0.000 NA
ATOM      6  N   UNL     1       6.585   4.702  16.206  0.00  0.00    +0.000 N 
BRANCH   6   7
ATOM      7  C   UNL     1       6.348   4.836  14.762  0.00  0.00    +0.000 C 
ATOM      8  C   UNL     1       7.637   4.990  13.977  0.00  0.00    +0.000 C 
ATOM      9  C   UNL     1       7.168   4.723  12.561  0.00  0.00    +0.000 C 
ATOM     10  C   UNL     1       6.165   3.572  12.692  0.00  0.00    +0.000 C 
ATOM     11  C   UNL     1       5.651   3.631  14.137  0.00  0.00    +0.000 C 
ENDBRANCH   6   7
ENDBRANCH   1   2
BRANCH   1  13
ATOM     12  C   UNL     1       5.164   7.567  17.142  0.00  0.00    +0.000 C 
ATOM     13  C   UNL     1       4.141   6.665  17.874  0.00  0.00    +0.000 C 
ATOM     14  C   UNL     1       2.792   7.400  17.752  0.00  0.00    +0.000 C 
ENDBRANCH   1  13
BRANCH   1  15
ATOM     15  N   UNL     1       3.443   4.093  18.065  0.00  0.00    +0.000 NA
ATOM     16  C   UNL     1       3.610   2.760  17.449  0.00  0.00    +0.000 C 
BRANCH  15  17
ATOM     17  C   UNL     1       3.616   4.069  19.573  0.00  0.00    +0.000 C 
ATOM     18  C   UNL     1       2.651   5.012  20.349  0.00  0.00    +0.000 C 
ATOM     19  C   UNL     1       1.228   4.446  20.469  0.00  0.00    +0.000 C 
ATOM     20  C   UNL     1       1.260   3.077  21.160  0.00  0.00    +0.000 C 
ATOM     21  C   UNL     1       2.129   2.105  20.355  0.00  0.00    +0.000 C 
ATOM     22  C   UNL     1       3.555   2.663  20.258  0.00  0.00    +0.000 C 
ENDBRANCH  15  17
ENDBRANCH   1  15
TORSDOF 5
ENDMDL
MODEL 2
REMARK VINA RESULT:      -7.2      0.867      1.633
REMARK  Name = 
REMARK  8 active torsions:
REMARK  status: ('A' for Active; 'I' for Inactive)
REMARK    1  A    between atoms: C_1  and  C_2
REMARK    2  A    between atoms: C_2  and  C_3
REMARK    3  A    between atoms: C_2  and  C_4
REMARK    4  A    between atoms: C_4  and  C_5
REMARK    5  A    between atoms: C_4  and  N_15
REMARK    6  A    between atoms: N_9  and  C_10
REMARK    7  A    between atoms: N_15  and  C_16
REMARK    8  A    between atoms: N_15  and  C_17
REMARK                            x       y       z     vdW  Elec       q    Type
REMARK                         _______ _______ _______ _____ _____    ______ ____
ROOT
ATOM      1  C   UNL     1       4.668   5.169  17.344  0.00  0.00    +0.000 C 
ENDROOT
BRANCH   1   2
ATOM      2  C   UNL     1       6.156   4.740  17.153  0.00  0.00    +0.000 A 
ATOM      3  N   UNL     1       6.969   4.497  18.202  0.00  0.00    +0.000 NA
ATOM      4  N   UNL     1       8.156   4.201  17.708  0.00  0.00    +0.000 NA
ATOM      5  N   UNL     1       8.104   4.269  16.389  0.00  0.00    +0.000 NA
ATOM      6  N   UNL     1       6.882   4.613  16.010  0.00  0.00    +0.000 N 
BRANCH   6   7
ATOM      7  C   UNL     1       6.523   4.772  14.594  0.00  0.00    +0.000 C 
ATOM      8  C   UNL     1       7.735   5.026  13.717  0.00  0.00    +0.000 C 
ATOM      9  C   UNL     1       7.171   4.770  12.333  0.00  0.00    +0.000 C 
ATOM     10  C   UNL     1       6.251   3.557  12.505  0.00  0.00    +0.000 C 
ATOM     11  C   UNL     1       5.850   3.544  13.986  0.00  0.00    +0.000 C 
ENDBRANCH   6   7
ENDBRANCH   1   2
BRANCH   1  13
ATOM     12  C   UNL     1       5.795   7.465  17.009  0.00  0.00    +0.000 C 
ATOM     13  C   UNL     1       4.683   6.707  17.773  0.00  0.00    +0.000 C 
ATOM     14  C   UNL     1       3.404   7.538  17.557  0.00  0.00    +0.000 C 
ENDBRANCH   1  13
BRANCH   1  15
ATOM     15  N   UNL     1       3.927   4.189  18.244  0.00  0.00    +0.000 NA
ATOM     16  C   UNL     1       3.919   4.629  19.656  0.00  0.00    +0.000 C 
BRANCH  15  17
ATOM     17  C   UNL     1       2.555   3.761  17.755  0.00  0.00    +0.000 C 
ATOM     18  C   UNL     1       2.278   2.233  17.860  0.00  0.00    +0.000 C 
ATOM     19  C   UNL     1       1.947   1.781  19.290  0.00  0.00    +0.000 C 
ATOM     20  C   UNL     1       0.731   2.550  19.819  0.00  0.00    +0.000 C 
ATOM     21  C   UNL     1       1.022   4.054  19.816  0.00  0.00    +0.000 C 
ATOM     22  C   UNL     1       1.330   4.507  18.382  0.00  0.00    +0.000 C 
ENDBRANCH  15  17
ENDBRANCH   1  15
TORSDOF 5
ENDMDL
MODEL 3
REMARK VINA RESULT:      -7.2      0.829      1.303
REMARK  Name = 
REMARK  8 active torsions:
REMARK  status: ('A' for Active; 'I' for Inactive)
REMARK    1  A    between atoms: C_1  and  C_2
REMARK    2  A    between atoms: C_2  and  C_3
REMARK    3  A    between atoms: C_2  and  C_4
REMARK    4  A    between atoms: C_4  and  C_5
REMARK    5  A    between atoms: C_4  and  N_15
REMARK    6  A    between atoms: N_9  and  C_10
REMARK    7  A    between atoms: N_15  and  C_16
REMARK    8  A    between atoms: N_15  and  C_17
REMARK                            x       y       z     vdW  Elec       q    Type
REMARK                         _______ _______ _______ _____ _____    ______ ____
ROOT
ATOM      1  C   UNL     1       4.321   5.098  17.724  0.00  0.00    +0.000 C 
ENDROOT
BRANCH   1   2
ATOM      2  C   UNL     1       5.800   4.957  18.199  0.00  0.00    +0.000 A 
ATOM      3  N   UNL     1       6.175   5.252  19.461  0.00  0.00    +0.000 NA
ATOM      4  N   UNL     1       7.480   5.070  19.527  0.00  0.00    +0.000 NA
ATOM      5  N   UNL     1       7.923   4.687  18.342  0.00  0.00    +0.000 NA
ATOM      6  N   UNL     1       6.911   4.619  17.491  0.00  0.00    +0.000 N 
BRANCH   6   7
ATOM      7  C   UNL     1       7.099   4.223  16.088  0.00  0.00    +0.000 C 
ATOM      8  C   UNL     1       5.831   3.665  15.470  0.00  0.00    +0.000 C 
ATOM      9  C   UNL     1       6.167   3.703  13.993  0.00  0.00    +0.000 C 
ATOM     10  C   UNL     1       6.922   5.021  13.798  0.00  0.00    +0.000 C 
ATOM     11  C   UNL     1       7.508   5.373  15.172  0.00  0.00    +0.000 C 
ENDBRANCH   6   7
ENDBRANCH   1   2
BRANCH   1  13
ATOM     12  C   UNL     1       4.575   7.472  16.745  0.00  0.00    +0.000 C 
ATOM     13  C   UNL     1       3.931   6.639  17.880  0.00  0.00    +0.000 C 
ATOM     14  C   UNL     1       2.438   7.020  17.865  0.00  0.00    +0.000 C 
ENDBRANCH   1  13
BRANCH   1  15
ATOM     15  N   UNL     1       3.427   4.068  18.403  0.00  0.00    +0.000 NA
ATOM     16  C   UNL     1       3.573   2.725  17.803  0.00  0.00    +0.000 C 
BRANCH  15  17
ATOM     17  C   UNL     1       3.491   4.045  19.919  0.00  0.00    +0.000 C 
ATOM     18  C   UNL     1       2.414   4.920  20.625  0.00  0.00    +0.000 C 
ATOM     19  C   UNL     1       1.025   4.266  20.639  0.00  0.00    +0.000 C 
ATOM     20  C   UNL     1       1.093   2.897  21.328  0.00  0.00    +0.000 C 
ATOM     21  C   UNL     1       2.077   1.987  20.587  0.00  0.00    +0.000 C 
ATOM     22  C   UNL     1       3.468   2.633  20.595  0.00  0.00    +0.000 C 
ENDBRANCH  15  17
ENDBRANCH   1  15
TORSDOF 5
ENDMDL
MODEL 4
REMARK VINA RESULT:      -7.1      1.264      2.069
REMARK  Name = 
REMARK  8 active torsions:
REMARK  status: ('A' for Active; 'I' for Inactive)
REMARK    1  A    between atoms: C_1  and  C_2
REMARK    2  A    between atoms: C_2  and  C_3
REMARK    3  A    between atoms: C_2  and  C_4
REMARK    4  A    between atoms: C_4  and  C_5
REMARK    5  A    between atoms: C_4  and  N_15
REMARK    6  A    between atoms: N_9  and  C_10
REMARK    7  A    between atoms: N_15  and  C_16
REMARK    8  A    between atoms: N_15  and  C_17
REMARK                            x       y       z     vdW  Elec       q    Type
REMARK                         _______ _______ _______ _____ _____    ______ ____
ROOT
ATOM      1  C   UNL     1       4.542   4.990  18.547  0.00  0.00    +0.000 C 
ENDROOT
BRANCH   1   2
ATOM      2  C   UNL     1       6.099   4.952  18.636  0.00  0.00    +0.000 A 
ATOM      3  N   UNL     1       6.761   5.361  19.738  0.00  0.00    +0.000 NA
ATOM      4  N   UNL     1       8.049   5.242  19.481  0.00  0.00    +0.000 NA
ATOM      5  N   UNL     1       8.202   4.786  18.250  0.00  0.00    +0.000 NA
ATOM      6  N   UNL     1       7.015   4.606  17.691  0.00  0.00    +0.000 N 
BRANCH   6   7
ATOM      7  C   UNL     1       6.869   4.109  16.316  0.00  0.00    +0.000 C 
ATOM      8  C   UNL     1       5.418   3.875  15.939  0.00  0.00    +0.000 C 
ATOM      9  C   UNL     1       5.510   3.753  14.431  0.00  0.00    +0.000 C 
ATOM     10  C   UNL     1       6.531   4.817  14.014  0.00  0.00    +0.000 C 
ATOM     11  C   UNL     1       7.400   5.067  15.254  0.00  0.00    +0.000 C 
ENDBRANCH   6   7
ENDBRANCH   1   2
BRANCH   1  13
ATOM     12  C   UNL     1       4.956   7.089  17.104  0.00  0.00    +0.000 C 
ATOM     13  C   UNL     1       4.133   6.511  18.281  0.00  0.00    +0.000 C 
ATOM     14  C   UNL     1       2.663   6.823  17.939  0.00  0.00    +0.000 C 
ENDBRANCH   1  13
BRANCH   1  15
ATOM     15  N   UNL     1       3.907   4.282  19.737  0.00  0.00    +0.000 NA
ATOM     16  C   UNL     1       2.925   5.141  20.432  0.00  0.00    +0.000 C 
BRANCH  15  17
ATOM     17  C   UNL     1       3.377   2.887  19.461  0.00  0.00    +0.000 C 
ATOM     18  C   UNL     1       2.316   2.385  20.483  0.00  0.00    +0.000 C 
ATOM     19  C   UNL     1       0.926   2.996  20.253  0.00  0.00    +0.000 C 
ATOM     20  C   UNL     1       0.441   2.688  18.832  0.00  0.00    +0.000 C 
ATOM     21  C   UNL     1       1.425   3.262  17.808  0.00  0.00    +0.000 C 
ATOM     22  C   UNL     1       2.807   2.632  18.025  0.00  0.00    +0.000 C 
ENDBRANCH  15  17
ENDBRANCH   1  15
TORSDOF 5
ENDMDL
MODEL 5
REMARK VINA RESULT:      -7.1      1.141      1.999
REMARK  Name = 
REMARK  8 active torsions:
REMARK  status: ('A' for Active; 'I' for Inactive)
REMARK    1  A    between atoms: C_1  and  C_2
REMARK    2  A    between atoms: C_2  and  C_3
REMARK    3  A    between atoms: C_2  and  C_4
REMARK    4  A    between atoms: C_4  and  C_5
REMARK    5  A    between atoms: C_4  and  N_15
REMARK    6  A    between atoms: N_9  and  C_10
REMARK    7  A    between atoms: N_15  and  C_16
REMARK    8  A    between atoms: N_15  and  C_17
REMARK                            x       y       z     vdW  Elec       q    Type
REMARK                         _______ _______ _______ _____ _____    ______ ____
ROOT
ATOM      1  C   UNL     1       4.537   5.439  18.078  0.00  0.00    +0.000 C 
ENDROOT
BRANCH   1   2
ATOM      2  C   UNL     1       6.031   5.147  18.414  0.00  0.00    +0.000 A 
ATOM      3  N   UNL     1       6.571   5.472  19.607  0.00  0.00    +0.000 NA
ATOM      4  N   UNL     1       7.846   5.135  19.558  0.00  0.00    +0.000 NA
ATOM      5  N   UNL     1       8.112   4.627  18.367  0.00  0.00    +0.000 NA
ATOM      6  N   UNL     1       7.013   4.630  17.627  0.00  0.00    +0.000 N 
BRANCH   6   7
ATOM      7  C   UNL     1       7.003   4.126  16.247  0.00  0.00    +0.000 C 
ATOM      8  C   UNL     1       5.608   3.766  15.774  0.00  0.00    +0.000 C 
ATOM      9  C   UNL     1       5.809   3.657  14.276  0.00  0.00    +0.000 C 
ATOM     10  C   UNL     1       6.758   4.808  13.926  0.00  0.00    +0.000 C 
ATOM     11  C   UNL     1       7.517   5.131  15.220  0.00  0.00    +0.000 C 
ENDBRANCH   6   7
ENDBRANCH   1   2
BRANCH   1  13
ATOM     12  C   UNL     1       4.872   7.095  16.128  0.00  0.00    +0.000 C 
ATOM     13  C   UNL     1       4.458   6.965  17.614  0.00  0.00    +0.000 C 
ATOM     14  C   UNL     1       3.104   7.693  17.722  0.00  0.00    +0.000 C 
ENDBRANCH   1  13
BRANCH   1  15
ATOM     15  N   UNL     1       3.622   4.996  19.213  0.00  0.00    +0.000 NA
ATOM     16  C   UNL     1       2.696   6.069  19.631  0.00  0.00    +0.000 C 
BRANCH  15  17
ATOM     17  C   UNL     1       2.924   3.663  19.007  0.00  0.00    +0.000 C 
ATOM     18  C   UNL     1       3.394   2.533  19.968  0.00  0.00    +0.000 C 
ATOM     19  C   UNL     1       2.805   2.663  21.380  0.00  0.00    +0.000 C 
ATOM     20  C   UNL     1       1.273   2.664  21.316  0.00  0.00    +0.000 C 
ATOM     21  C   UNL     1       0.788   3.833  20.452  0.00  0.00    +0.000 C 
ATOM     22  C   UNL     1       1.360   3.687  19.036  0.00  0.00    +0.000 C 
ENDBRANCH  15  17
ENDBRANCH   1  15
TORSDOF 5
ENDMDL
MODEL 6
REMARK VINA RESULT:      -6.9      1.333      2.181
REMARK  Name = 
REMARK  8 active torsions:
REMARK  status: ('A' for Active; 'I' for Inactive)
REMARK    1  A    between atoms: C_1  and  C_2
REMARK    2  A    between atoms: C_2  and  C_3
REMARK    3  A    between atoms: C_2  and  C_4
REMARK    4  A    between atoms: C_4  and  C_5
REMARK    5  A    between atoms: C_4  and  N_15
REMARK    6  A    between atoms: N_9  and  C_10
REMARK    7  A    between atoms: N_15  and  C_16
REMARK    8  A    between atoms: N_15  and  C_17
REMARK                            x       y       z     vdW  Elec       q    Type
REMARK                         _______ _______ _______ _____ _____    ______ ____
ROOT
ATOM      1  C   UNL     1       3.489   5.904  18.303  0.00  0.00    +0.000 C 
ENDROOT
BRANCH   1   2
ATOM      2  C   UNL     1       4.965   5.454  18.530  0.00  0.00    +0.000 A 
ATOM      3  N   UNL     1       5.490   5.325  19.766  0.00  0.00    +0.000 NA
ATOM      4  N   UNL     1       6.753   4.974  19.614  0.00  0.00    +0.000 NA
ATOM      5  N   UNL     1       7.026   4.897  18.323  0.00  0.00    +0.000 NA
ATOM      6  N   UNL     1       5.944   5.200  17.621  0.00  0.00    +0.000 N 
BRANCH   6   7
ATOM      7  C   UNL     1       5.947   5.205  16.151  0.00  0.00    +0.000 C 
ATOM      8  C   UNL     1       7.345   5.071  15.577  0.00  0.00    +0.000 C 
ATOM      9  C   UNL     1       7.050   4.720  14.132  0.00  0.00    +0.000 C 
ATOM     10  C   UNL     1       5.860   3.758  14.199  0.00  0.00    +0.000 C 
ATOM     11  C   UNL     1       5.157   4.057  15.530  0.00  0.00    +0.000 C 
ENDBRANCH   6   7
ENDBRANCH   1   2
BRANCH   1  13
ATOM     12  C   UNL     1       4.348   7.717  16.680  0.00  0.00    +0.000 C 
ATOM     13  C   UNL     1       3.530   7.465  17.970  0.00  0.00    +0.000 C 
ATOM     14  C   UNL     1       2.193   8.201  17.751  0.00  0.00    +0.000 C 
ENDBRANCH   1  13
BRANCH   1  15
ATOM     15  N   UNL     1       2.594   5.447  19.448  0.00  0.00    +0.000 NA
ATOM     16  C   UNL     1       2.224   6.564  20.344  0.00  0.00    +0.000 C 
BRANCH  15  17
ATOM     17  C   UNL     1       1.402   4.597  19.046  0.00  0.00    +0.000 C 
ATOM     18  C   UNL     1       1.595   3.798  17.724  0.00  0.00    +0.000 C 
ATOM     19  C   UNL     1       2.471   2.549  17.901  0.00  0.00    +0.000 C 
ATOM     20  C   UNL     1       1.865   1.625  18.964  0.00  0.00    +0.000 C 
ATOM     21  C   UNL     1       1.758   2.365  20.301  0.00  0.00    +0.000 C 
ATOM     22  C   UNL     1       0.864   3.600  20.126  0.00  0.00    +0.000 C 
ENDBRANCH  15  17
ENDBRANCH   1  15
TORSDOF 5
ENDMDL
MODEL 7
REMARK VINA RESULT:      -6.9      0.913      1.666
REMARK  Name = 
REMARK  8 active torsions:
REMARK  status: ('A' for Active; 'I' for Inactive)
REMARK    1  A    between atoms: C_1  and  C_2
REMARK    2  A    between atoms: C_2  and  C_3
REMARK    3  A    between atoms: C_2  and  C_4
REMARK    4  A    between atoms: C_4  and  C_5
REMARK    5  A    between atoms: C_4  and  N_15
REMARK    6  A    between atoms: N_9  and  C_10
REMARK    7  A    between atoms: N_15  and  C_16
REMARK    8  A    between atoms: N_15  and  C_17
REMARK                            x       y       z     vdW  Elec       q    Type
REMARK                         _______ _______ _______ _____ _____    ______ ____
ROOT
ATOM      1  C   UNL     1       4.492   5.155  17.177  0.00  0.00    +0.000 C 
ENDROOT
BRANCH   1   2
ATOM      2  C   UNL     1       5.982   4.716  17.043  0.00  0.00    +0.000 A 
ATOM      3  N   UNL     1       6.751   4.460  18.122  0.00  0.00    +0.000 NA
ATOM      4  N   UNL     1       7.954   4.157  17.675  0.00  0.00    +0.000 NA
ATOM      5  N   UNL     1       7.956   4.234  16.355  0.00  0.00    +0.000 NA
ATOM      6  N   UNL     1       6.753   4.589  15.929  0.00  0.00    +0.000 N 
BRANCH   6   7
ATOM      7  C   UNL     1       6.453   4.760  14.501  0.00  0.00    +0.000 C 
ATOM      8  C   UNL     1       7.707   4.940  13.666  0.00  0.00    +0.000 C 
ATOM      9  C   UNL     1       7.177   4.709  12.265  0.00  0.00    +0.000 C 
ATOM     10  C   UNL     1       6.185   3.550  12.408  0.00  0.00    +0.000 C 
ATOM     11  C   UNL     1       5.734   3.568  13.875  0.00  0.00    +0.000 C 
ENDBRANCH   6   7
ENDBRANCH   1   2
BRANCH   1  13
ATOM     12  C   UNL     1       3.303   7.394  17.654  0.00  0.00    +0.000 C 
ATOM     13  C   UNL     1       4.441   6.717  16.852  0.00  0.00    +0.000 C 
ATOM     14  C   UNL     1       5.697   7.564  17.138  0.00  0.00    +0.000 C 
ENDBRANCH   1  13
BRANCH   1  15
ATOM     15  N   UNL     1       3.898   4.685  18.499  0.00  0.00    +0.000 NA
ATOM     16  C   UNL     1       4.473   5.408  19.653  0.00  0.00    +0.000 C 
BRANCH  15  17
ATOM     17  C   UNL     1       2.383   4.613  18.546  0.00  0.00    +0.000 C 
ATOM     18  C   UNL     1       1.784   3.262  18.057  0.00  0.00    +0.000 C 
ATOM     19  C   UNL     1       1.904   2.141  19.100  0.00  0.00    +0.000 C 
ATOM     20  C   UNL     1       1.212   2.556  20.403  0.00  0.00    +0.000 C 
ATOM     21  C   UNL     1       1.855   3.833  20.953  0.00  0.00    +0.000 C 
ATOM     22  C   UNL     1       1.713   4.957  19.918  0.00  0.00    +0.000 C 
ENDBRANCH  15  17
ENDBRANCH   1  15
TORSDOF 5
ENDMDL
MODEL 8
REMARK VINA RESULT:      -6.9      1.155      1.760
REMARK  Name = 
REMARK  8 active torsions:
REMARK  status: ('A' for Active; 'I' for Inactive)
REMARK    1  A    between atoms: C_1  and  C_2
REMARK    2  A    between atoms: C_2  and  C_3
REMARK    3  A    between atoms: C_2  and  C_4
REMARK    4  A    between atoms: C_4  and  C_5
REMARK    5  A    between atoms: C_4  and  N_15
REMARK    6  A    between atoms: N_9  and  C_10
REMARK    7  A    between atoms: N_15  and  C_16
REMARK    8  A    between atoms: N_15  and  C_17
REMARK                            x       y       z     vdW  Elec       q    Type
REMARK                         _______ _______ _______ _____ _____    ______ ____
ROOT
ATOM      1  C   UNL     1       4.260   4.537  18.342  0.00  0.00    +0.000 C 
ENDROOT
BRANCH   1   2
ATOM      2  C   UNL     1       5.805   4.701  18.214  0.00  0.00    +0.000 A 
ATOM      3  N   UNL     1       6.610   4.750  19.297  0.00  0.00    +0.000 NA
ATOM      4  N   UNL     1       7.839   4.934  18.855  0.00  0.00    +0.000 NA
ATOM      5  N   UNL     1       7.816   5.014  17.536  0.00  0.00    +0.000 NA
ATOM      6  N   UNL     1       6.570   4.886  17.105  0.00  0.00    +0.000 N 
BRANCH   6   7
ATOM      7  C   UNL     1       6.233   4.939  15.676  0.00  0.00    +0.000 C 
ATOM      8  C   UNL     1       7.447   5.205  14.806  0.00  0.00    +0.000 C 
ATOM      9  C   UNL     1       6.926   4.835  13.431  0.00  0.00    +0.000 C 
ATOM     10  C   UNL     1       6.069   3.587  13.661  0.00  0.00    +0.000 C 
ATOM     11  C   UNL     1       5.639   3.642  15.133  0.00  0.00    +0.000 C 
ENDBRANCH   6   7
ENDBRANCH   1   2
BRANCH   1  13
ATOM     12  C   UNL     1       2.072   5.790  17.791  0.00  0.00    +0.000 C 
ATOM     13  C   UNL     1       3.600   5.753  17.544  0.00  0.00    +0.000 C 
ATOM     14  C   UNL     1       4.094   7.181  17.850  0.00  0.00    +0.000 C 
ENDBRANCH   1  13
BRANCH   1  15
ATOM     15  N   UNL     1       3.847   4.334  19.794  0.00  0.00    +0.000 NA
ATOM     16  C   UNL     1       2.960   5.415  20.275  0.00  0.00    +0.000 C 
BRANCH  15  17
ATOM     17  C   UNL     1       3.328   2.950  20.139  0.00  0.00    +0.000 C 
ATOM     18  C   UNL     1       1.970   2.941  20.900  0.00  0.00    +0.000 C 
ATOM     19  C   UNL     1       0.767   3.202  19.981  0.00  0.00    +0.000 C 
ATOM     20  C   UNL     1       0.722   2.159  18.859  0.00  0.00    +0.000 C 
ATOM     21  C   UNL     1       2.013   2.221  18.036  0.00  0.00    +0.000 C 
ATOM     22  C   UNL     1       3.211   1.936  18.952  0.00  0.00    +0.000 C 
ENDBRANCH  15  17
ENDBRANCH   1  15
TORSDOF 5
ENDMDL
MODEL 9
REMARK VINA RESULT:      -6.9      1.396      2.283
REMARK  Name = 
REMARK  8 active torsions:
REMARK  status: ('A' for Active; 'I' for Inactive)
REMARK    1  A    between atoms: C_1  and  C_2
REMARK    2  A    between atoms: C_2  and  C_3
REMARK    3  A    between atoms: C_2  and  C_4
REMARK    4  A    between atoms: C_4  and  C_5
REMARK    5  A    between atoms: C_4  and  N_15
REMARK    6  A    between atoms: N_9  and  C_10
REMARK    7  A    between atoms: N_15  and  C_16
REMARK    8  A    between atoms: N_15  and  C_17
REMARK                            x       y       z     vdW  Elec       q    Type
REMARK                         _______ _______ _______ _____ _____    ______ ____
ROOT
ATOM      1  C   UNL     1       4.492   5.248  17.702  0.00  0.00    +0.000 C 
ENDROOT
BRANCH   1   2
ATOM      2  C   UNL     1       5.846   5.853  17.221  0.00  0.00    +0.000 A 
ATOM      3  N   UNL     1       6.420   6.905  17.842  0.00  0.00    +0.000 NA
ATOM      4  N   UNL     1       7.519   7.195  17.173  0.00  0.00    +0.000 NA
ATOM      5  N   UNL     1       7.634   6.365  16.151  0.00  0.00    +0.000 NA
ATOM      6  N   UNL     1       6.608   5.527  16.142  0.00  0.00    +0.000 N 
BRANCH   6   7
ATOM      7  C   UNL     1       6.462   4.488  15.113  0.00  0.00    +0.000 C 
ATOM      8  C   UNL     1       5.081   4.490  14.484  0.00  0.00    +0.000 C 
ATOM      9  C   UNL     1       5.306   3.639  13.250  0.00  0.00    +0.000 C 
ATOM     10  C   UNL     1       6.683   4.062  12.729  0.00  0.00    +0.000 C 
ATOM     11  C   UNL     1       7.427   4.640  13.941  0.00  0.00    +0.000 C 
ENDBRANCH   6   7
ENDBRANCH   1   2
BRANCH   1  13
ATOM     12  C   UNL     1       3.014   7.356  17.875  0.00  0.00    +0.000 C 
ATOM     13  C   UNL     1       3.832   6.320  18.684  0.00  0.00    +0.000 C 
ATOM     14  C   UNL     1       2.874   5.815  19.781  0.00  0.00    +0.000 C 
ENDBRANCH   1  13
BRANCH   1  15
ATOM     15  N   UNL     1       4.680   3.829  18.225  0.00  0.00    +0.000 NA
ATOM     16  C   UNL     1       4.715   3.782  19.702  0.00  0.00    +0.000 C 
BRANCH  15  17
ATOM     17  C   UNL     1       3.757   2.785  17.625  0.00  0.00    +0.000 C 
ATOM     18  C   UNL     1       3.299   1.679  18.620  0.00  0.00    +0.000 C 
ATOM     19  C   UNL     1       2.196   2.154  19.578  0.00  0.00    +0.000 C 
ATOM     20  C   UNL     1       0.983   2.650  18.783  0.00  0.00    +0.000 C 
ATOM     21  C   UNL     1       1.395   3.807  17.867  0.00  0.00    +0.000 C 
ATOM     22  C   UNL     1       2.480   3.322  16.897  0.00  0.00    +0.000 C 
ENDBRANCH  15  17
ENDBRANCH   1  15
TORSDOF 5
ENDMDL
