MODEL 1
REMARK VINA RESULT:      -6.9      0.000      0.000
REMARK  Name = 
REMARK  6 active torsions:
REMARK  status: ('A' for Active; 'I' for Inactive)
REMARK    1  A    between atoms: C_1  and  O_2
REMARK    2  A    between atoms: O_2  and  C_3
REMARK    3  A    between atoms: C_6  and  N_7
REMARK    4  A    between atoms: N_7  and  C_8
REMARK    5  A    between atoms: C_8  and  C_9
REMARK    6  A    between atoms: C_8  and  C_10
REMARK                            x       y       z     vdW  Elec       q    Type
REMARK                         _______ _______ _______ _____ _____    ______ ____
ROOT
ATOM      1  N   UNL     1       4.095   4.241  16.113  0.00  0.00    +0.000 N 
ATOM      2  H   UNL     1       3.548   4.277  15.257  0.00  0.00    +0.000 HD
ENDROOT
BRANCH   1   6
ATOM      3  C   UNL     1       2.238   2.758  19.511  0.00  0.00    +0.000 A 
ATOM      4  C   UNL     1       1.472   3.518  18.646  0.00  0.00    +0.000 A 
ATOM      5  C   UNL     1       2.078   4.032  17.496  0.00  0.00    +0.000 A 
ATOM      6  C   UNL     1       3.432   3.819  17.253  0.00  0.00    +0.000 A 
ATOM      7  C   UNL     1       4.093   3.022  18.191  0.00  0.00    +0.000 A 
ATOM      8  N   UNL     1       3.539   2.487  19.308  0.00  0.00    +0.000 NA
BRANCH   3  10
ATOM      9  C   UNL     1       1.905   3.032  21.808  0.00  0.00    +0.000 C 
ATOM     10  O   UNL     1       1.599   2.278  20.639  0.00  0.00    +0.000 OA
ENDBRANCH   3  10
ENDBRANCH   1   6
BRANCH   1  11
ATOM     11  C   UNL     1       5.552   4.243  15.919  0.00  0.00    +0.000 C 
ATOM     12  C   UNL     1       5.924   3.700  14.539  0.00  0.00    +0.000 C 
BRANCH  11  13
ATOM     13  C   UNL     1       6.044   5.708  16.088  0.00  0.00    +0.000 C 
ATOM     14  O   UNL     1       5.584   6.635  15.419  0.00  0.00    +0.000 OA
ATOM     15  N   UNL     1       6.958   5.954  17.098  0.00  0.00    +0.000 N 
ATOM     16  C   UNL     1       7.626   4.988  17.951  0.00  0.00    +0.000 C 
ATOM     17  C   UNL     1       7.900   5.773  19.220  0.00  0.00    +0.000 C 
ATOM     18  C   UNL     1       8.192   7.180  18.706  0.00  0.00    +0.000 C 
ATOM     19  C   UNL     1       7.341   7.310  17.447  0.00  0.00    +0.000 C 
ENDBRANCH  11  13
ENDBRANCH   1  11
TORSDOF 4
ENDMDL
MODEL 2
REMARK VINA RESULT:      -6.9      1.971      6.534
REMARK  Name = 
REMARK  6 active torsions:
REMARK  status: ('A' for Active; 'I' for Inactive)
REMARK    1  A    between atoms: C_1  and  O_2
REMARK    2  A    between atoms: O_2  and  C_3
REMARK    3  A    between atoms: C_6  and  N_7
REMARK    4  A    between atoms: N_7  and  C_8
REMARK    5  A    between atoms: C_8  and  C_9
REMARK    6  A    between atoms: C_8  and  C_10
REMARK                            x       y       z     vdW  Elec       q    Type
REMARK                         _______ _______ _______ _____ _____    ______ ____
ROOT
ATOM      1  N   UNL     1       6.066   4.250  18.094  0.00  0.00    +0.000 N 
ATOM      2  H   UNL     1       6.645   3.477  17.776  0.00  0.00    +0.000 HD
ENDROOT
BRANCH   1   6
ATOM      3  C   UNL     1       7.806   8.004  17.811  0.00  0.00    +0.000 A 
ATOM      4  C   UNL     1       8.288   7.150  18.786  0.00  0.00    +0.000 A 
ATOM      5  C   UNL     1       7.714   5.880  18.902  0.00  0.00    +0.000 A 
ATOM      6  C   UNL     1       6.652   5.504  18.084  0.00  0.00    +0.000 A 
ATOM      7  C   UNL     1       6.267   6.448  17.128  0.00  0.00    +0.000 A 
ATOM      8  N   UNL     1       6.811   7.681  16.967  0.00  0.00    +0.000 NA
BRANCH   3  10
ATOM      9  C   UNL     1       8.953   9.671  18.980  0.00  0.00    +0.000 C 
ATOM     10  O   UNL     1       8.398   9.251  17.738  0.00  0.00    +0.000 OA
ENDBRANCH   3  10
ENDBRANCH   1   6
BRANCH   1  11
ATOM     11  C   UNL     1       4.623   3.978  18.115  0.00  0.00    +0.000 C 
ATOM     12  C   UNL     1       4.186   3.223  16.860  0.00  0.00    +0.000 C 
BRANCH  11  13
ATOM     13  C   UNL     1       4.323   3.145  19.394  0.00  0.00    +0.000 C 
ATOM     14  O   UNL     1       5.207   2.544  20.006  0.00  0.00    +0.000 OA
ATOM     15  N   UNL     1       3.029   3.183  19.883  0.00  0.00    +0.000 N 
ATOM     16  C   UNL     1       1.865   3.805  19.279  0.00  0.00    +0.000 C 
ATOM     17  C   UNL     1       0.993   4.149  20.473  0.00  0.00    +0.000 C 
ATOM     18  C   UNL     1       1.253   2.998  21.440  0.00  0.00    +0.000 C 
ATOM     19  C   UNL     1       2.695   2.585  21.163  0.00  0.00    +0.000 C 
ENDBRANCH  11  13
ENDBRANCH   1  11
TORSDOF 4
ENDMDL
MODEL 3
REMARK VINA RESULT:      -6.8      1.091      1.364
REMARK  Name = 
REMARK  6 active torsions:
REMARK  status: ('A' for Active; 'I' for Inactive)
REMARK    1  A    between atoms: C_1  and  O_2
REMARK    2  A    between atoms: O_2  and  C_3
REMARK    3  A    between atoms: C_6  and  N_7
REMARK    4  A    between atoms: N_7  and  C_8
REMARK    5  A    between atoms: C_8  and  C_9
REMARK    6  A    between atoms: C_8  and  C_10
REMARK                            x       y       z     vdW  Elec       q    Type
REMARK                         _______ _______ _______ _____ _____    ______ ____
ROOT
ATOM      1  N   UNL     1       4.230   4.100  16.093  0.00  0.00    +0.000 N 
ATOM      2  H   UNL     1       3.603   3.770  15.364  0.00  0.00    +0.000 HD
ENDROOT
BRANCH   1   6
ATOM      3  C   UNL     1       2.810   4.164  19.989  0.00  0.00    +0.000 A 
ATOM      4  C   UNL     1       3.694   3.156  19.649  0.00  0.00    +0.000 A 
ATOM      5  C   UNL     1       4.183   3.112  18.340  0.00  0.00    +0.000 A 
ATOM      6  C   UNL     1       3.754   4.037  17.391  0.00  0.00    +0.000 A 
ATOM      7  C   UNL     1       2.874   5.014  17.861  0.00  0.00    +0.000 A 
ATOM      8  N   UNL     1       2.392   5.106  19.126  0.00  0.00    +0.000 NA
BRANCH   3  10
ATOM      9  C   UNL     1       1.703   2.944  21.646  0.00  0.00    +0.000 C 
ATOM     10  O   UNL     1       2.347   4.164  21.291  0.00  0.00    +0.000 OA
ENDBRANCH   3  10
ENDBRANCH   1   6
BRANCH   1  11
ATOM     11  C   UNL     1       5.643   4.195  15.702  0.00  0.00    +0.000 C 
ATOM     12  C   UNL     1       5.838   3.790  14.241  0.00  0.00    +0.000 C 
BRANCH  11  13
ATOM     13  C   UNL     1       6.095   5.665  15.934  0.00  0.00    +0.000 C 
ATOM     14  O   UNL     1       5.640   6.601  15.275  0.00  0.00    +0.000 OA
ATOM     15  N   UNL     1       6.963   5.899  16.986  0.00  0.00    +0.000 N 
ATOM     16  C   UNL     1       7.619   4.923  17.836  0.00  0.00    +0.000 C 
ATOM     17  C   UNL     1       7.825   5.675  19.138  0.00  0.00    +0.000 C 
ATOM     18  C   UNL     1       8.104   7.103  18.677  0.00  0.00    +0.000 C 
ATOM     19  C   UNL     1       7.301   7.252  17.389  0.00  0.00    +0.000 C 
ENDBRANCH  11  13
ENDBRANCH   1  11
TORSDOF 4
ENDMDL
MODEL 4
REMARK VINA RESULT:      -6.6      2.126      6.234
REMARK  Name = 
REMARK  6 active torsions:
REMARK  status: ('A' for Active; 'I' for Inactive)
REMARK    1  A    between atoms: C_1  and  O_2
REMARK    2  A    between atoms: O_2  and  C_3
REMARK    3  A    between atoms: C_6  and  N_7
REMARK    4  A    between atoms: N_7  and  C_8
REMARK    5  A    between atoms: C_8  and  C_9
REMARK    6  A    between atoms: C_8  and  C_10
REMARK                            x       y       z     vdW  Elec       q    Type
REMARK                         _______ _______ _______ _____ _____    ______ ____
ROOT
ATOM      1  N   UNL     1       5.029   4.774  18.115  0.00  0.00    +0.000 N 
ATOM      2  H   UNL     1       5.178   3.961  18.707  0.00  0.00    +0.000 HD
ENDROOT
BRANCH   1   6
ATOM      3  C   UNL     1       6.827   4.884  14.380  0.00  0.00    +0.000 A 
ATOM      4  C   UNL     1       5.600   4.254  14.478  0.00  0.00    +0.000 A 
ATOM      5  C   UNL     1       4.977   4.201  15.728  0.00  0.00    +0.000 A 
ATOM      6  C   UNL     1       5.600   4.733  16.855  0.00  0.00    +0.000 A 
ATOM      7  C   UNL     1       6.828   5.357  16.623  0.00  0.00    +0.000 A 
ATOM      8  N   UNL     1       7.457   5.449  15.424  0.00  0.00    +0.000 NA
BRANCH   3  10
ATOM      9  C   UNL     1       6.926   3.870  12.277  0.00  0.00    +0.000 C 
ATOM     10  O   UNL     1       7.409   4.905  13.127  0.00  0.00    +0.000 OA
ENDBRANCH   3  10
ENDBRANCH   1   6
BRANCH   1  11
ATOM     11  C   UNL     1       3.921   5.648  18.527  0.00  0.00    +0.000 C 
ATOM     12  C   UNL     1       3.822   6.875  17.620  0.00  0.00    +0.000 C 
BRANCH  11  13
ATOM     13  C   UNL     1       2.614   4.807  18.465  0.00  0.00    +0.000 C 
ATOM     14  O   UNL     1       2.043   4.562  17.402  0.00  0.00    +0.000 OA
ATOM     15  N   UNL     1       2.164   4.254  19.651  0.00  0.00    +0.000 N 
ATOM     16  C   UNL     1       2.688   4.463  20.988  0.00  0.00    +0.000 C 
ATOM     17  C   UNL     1       2.334   3.175  21.708  0.00  0.00    +0.000 C 
ATOM     18  C   UNL     1       0.991   2.788  21.096  0.00  0.00    +0.000 C 
ATOM     19  C   UNL     1       1.058   3.313  19.665  0.00  0.00    +0.000 C 
ENDBRANCH  11  13
ENDBRANCH   1  11
TORSDOF 4
ENDMDL
MODEL 5
REMARK VINA RESULT:      -6.6      2.054      5.886
REMARK  Name = 
REMARK  6 active torsions:
REMARK  status: ('A' for Active; 'I' for Inactive)
REMARK    1  A    between atoms: C_1  and  O_2
REMARK    2  A    between atoms: O_2  and  C_3
REMARK    3  A    between atoms: C_6  and  N_7
REMARK    4  A    between atoms: N_7  and  C_8
REMARK    5  A    between atoms: C_8  and  C_9
REMARK    6  A    between atoms: C_8  and  C_10
REMARK                            x       y       z     vdW  Elec       q    Type
REMARK                         _______ _______ _______ _____ _____    ______ ____
ROOT
ATOM      1  N   UNL     1       5.236   3.374  18.847  0.00  0.00    +0.000 N 
ATOM      2  H   UNL     1       5.813   2.620  19.210  0.00  0.00    +0.000 HD
ENDROOT
BRANCH   1   6
ATOM      3  C   UNL     1       7.217   6.718  17.403  0.00  0.00    +0.000 A 
ATOM      4  C   UNL     1       6.356   6.065  16.540  0.00  0.00    +0.000 A 
ATOM      5  C   UNL     1       5.680   4.934  17.004  0.00  0.00    +0.000 A 
ATOM      6  C   UNL     1       5.905   4.451  18.291  0.00  0.00    +0.000 A 
ATOM      7  C   UNL     1       6.784   5.206  19.070  0.00  0.00    +0.000 A 
ATOM      8  N   UNL     1       7.444   6.321  18.667  0.00  0.00    +0.000 NA
BRANCH   3  10
ATOM      9  C   UNL     1       8.072   8.840  17.880  0.00  0.00    +0.000 C 
ATOM     10  O   UNL     1       7.870   7.827  16.899  0.00  0.00    +0.000 OA
ENDBRANCH   3  10
ENDBRANCH   1   6
BRANCH   1  11
ATOM     11  C   UNL     1       3.831   3.018  18.605  0.00  0.00    +0.000 C 
ATOM     12  C   UNL     1       3.673   1.514  18.386  0.00  0.00    +0.000 C 
BRANCH  11  13
ATOM     13  C   UNL     1       3.010   3.487  19.840  0.00  0.00    +0.000 C 
ATOM     14  O   UNL     1       2.912   2.801  20.859  0.00  0.00    +0.000 OA
ATOM     15  N   UNL     1       2.469   4.760  19.791  0.00  0.00    +0.000 N 
ATOM     16  C   UNL     1       2.458   5.682  18.671  0.00  0.00    +0.000 C 
ATOM     17  C   UNL     1       2.413   7.044  19.340  0.00  0.00    +0.000 C 
ATOM     18  C   UNL     1       1.554   6.798  20.577  0.00  0.00    +0.000 C 
ATOM     19  C   UNL     1       1.840   5.350  20.959  0.00  0.00    +0.000 C 
ENDBRANCH  11  13
ENDBRANCH   1  11
TORSDOF 4
ENDMDL
MODEL 6
REMARK VINA RESULT:      -6.6      2.196      5.948
REMARK  Name = 
REMARK  6 active torsions:
REMARK  status: ('A' for Active; 'I' for Inactive)
REMARK    1  A    between atoms: C_1  and  O_2
REMARK    2  A    between atoms: O_2  and  C_3
REMARK    3  A    between atoms: C_6  and  N_7
REMARK    4  A    between atoms: N_7  and  C_8
REMARK    5  A    between atoms: C_8  and  C_9
REMARK    6  A    between atoms: C_8  and  C_10
REMARK                            x       y       z     vdW  Elec       q    Type
REMARK                         _______ _______ _______ _____ _____    ______ ____
ROOT
ATOM      1  N   UNL     1       4.905   3.613  18.242  0.00  0.00    +0.000 N 
ATOM      2  H   UNL     1       5.477   3.351  19.040  0.00  0.00    +0.000 HD
ENDROOT
BRANCH   1   6
ATOM      3  C   UNL     1       7.067   4.987  14.981  0.00  0.00    +0.000 A 
ATOM      4  C   UNL     1       5.724   4.718  14.788  0.00  0.00    +0.000 A 
ATOM      5  C   UNL     1       4.976   4.251  15.872  0.00  0.00    +0.000 A 
ATOM      6  C   UNL     1       5.582   4.019  17.104  0.00  0.00    +0.000 A 
ATOM      7  C   UNL     1       6.939   4.344  17.177  0.00  0.00    +0.000 A 
ATOM      8  N   UNL     1       7.697   4.820  16.157  0.00  0.00    +0.000 NA
BRANCH   3  10
ATOM      9  C   UNL     1       7.414   4.756  12.681  0.00  0.00    +0.000 C 
ATOM     10  O   UNL     1       7.769   5.439  13.879  0.00  0.00    +0.000 OA
ENDBRANCH   3  10
ENDBRANCH   1   6
BRANCH   1  11
ATOM     11  C   UNL     1       3.516   3.138  18.289  0.00  0.00    +0.000 C 
ATOM     12  C   UNL     1       3.458   1.612  18.363  0.00  0.00    +0.000 C 
BRANCH  11  13
ATOM     13  C   UNL     1       2.845   3.778  19.538  0.00  0.00    +0.000 C 
ATOM     14  O   UNL     1       2.757   3.180  20.612  0.00  0.00    +0.000 OA
ATOM     15  N   UNL     1       2.435   5.095  19.429  0.00  0.00    +0.000 N 
ATOM     16  C   UNL     1       2.431   5.932  18.243  0.00  0.00    +0.000 C 
ATOM     17  C   UNL     1       2.577   7.334  18.805  0.00  0.00    +0.000 C 
ATOM     18  C   UNL     1       1.796   7.270  20.115  0.00  0.00    +0.000 C 
ATOM     19  C   UNL     1       1.962   5.830  20.588  0.00  0.00    +0.000 C 
ENDBRANCH  11  13
ENDBRANCH   1  11
TORSDOF 4
ENDMDL
MODEL 7
REMARK VINA RESULT:      -6.6      2.176      5.777
REMARK  Name = 
REMARK  6 active torsions:
REMARK  status: ('A' for Active; 'I' for Inactive)
REMARK    1  A    between atoms: C_1  and  O_2
REMARK    2  A    between atoms: O_2  and  C_3
REMARK    3  A    between atoms: C_6  and  N_7
REMARK    4  A    between atoms: N_7  and  C_8
REMARK    5  A    between atoms: C_8  and  C_9
REMARK    6  A    between atoms: C_8  and  C_10
REMARK                            x       y       z     vdW  Elec       q    Type
REMARK                         _______ _______ _______ _____ _____    ______ ____
ROOT
ATOM      1  N   UNL     1       5.078   3.374  18.179  0.00  0.00    +0.000 N 
ATOM      2  H   UNL     1       5.604   2.510  18.078  0.00  0.00    +0.000 HD
ENDROOT
BRANCH   1   6
ATOM      3  C   UNL     1       7.182   6.814  17.211  0.00  0.00    +0.000 A 
ATOM      4  C   UNL     1       7.378   6.280  18.472  0.00  0.00    +0.000 A 
ATOM      5  C   UNL     1       6.677   5.123  18.821  0.00  0.00    +0.000 A 
ATOM      6  C   UNL     1       5.769   4.549  17.935  0.00  0.00    +0.000 A 
ATOM      7  C   UNL     1       5.672   5.171  16.688  0.00  0.00    +0.000 A 
ATOM      8  N   UNL     1       6.349   6.281  16.300  0.00  0.00    +0.000 NA
BRANCH   3  10
ATOM      9  C   UNL     1       8.171   8.753  18.063  0.00  0.00    +0.000 C 
ATOM     10  O   UNL     1       7.890   7.963  16.911  0.00  0.00    +0.000 OA
ENDBRANCH   3  10
ENDBRANCH   1   6
BRANCH   1  11
ATOM     11  C   UNL     1       3.617   3.218  18.160  0.00  0.00    +0.000 C 
ATOM     12  C   UNL     1       3.222   1.742  18.102  0.00  0.00    +0.000 C 
BRANCH  11  13
ATOM     13  C   UNL     1       3.058   3.891  19.445  0.00  0.00    +0.000 C 
ATOM     14  O   UNL     1       3.109   3.342  20.547  0.00  0.00    +0.000 OA
ATOM     15  N   UNL     1       2.584   5.186  19.324  0.00  0.00    +0.000 N 
ATOM     16  C   UNL     1       2.419   5.965  18.111  0.00  0.00    +0.000 C 
ATOM     17  C   UNL     1       2.566   7.397  18.593  0.00  0.00    +0.000 C 
ATOM     18  C   UNL     1       1.932   7.366  19.981  0.00  0.00    +0.000 C 
ATOM     19  C   UNL     1       2.207   5.957  20.495  0.00  0.00    +0.000 C 
ENDBRANCH  11  13
ENDBRANCH   1  11
TORSDOF 4
ENDMDL
MODEL 8
REMARK VINA RESULT:      -6.4      3.864      5.723
REMARK  Name = 
REMARK  6 active torsions:
REMARK  status: ('A' for Active; 'I' for Inactive)
REMARK    1  A    between atoms: C_1  and  O_2
REMARK    2  A    between atoms: O_2  and  C_3
REMARK    3  A    between atoms: C_6  and  N_7
REMARK    4  A    between atoms: N_7  and  C_8
REMARK    5  A    between atoms: C_8  and  C_9
REMARK    6  A    between atoms: C_8  and  C_10
REMARK                            x       y       z     vdW  Elec       q    Type
REMARK                         _______ _______ _______ _____ _____    ______ ____
ROOT
ATOM      1  N   UNL     1       4.209   6.064  17.991  0.00  0.00    +0.000 N 
ATOM      2  H   UNL     1       5.128   6.372  17.684  0.00  0.00    +0.000 HD
ENDROOT
BRANCH   1   6
ATOM      3  C   UNL     1       1.386   8.863  19.168  0.00  0.00    +0.000 A 
ATOM      4  C   UNL     1       1.908   8.982  17.893  0.00  0.00    +0.000 A 
ATOM      5  C   UNL     1       2.863   8.051  17.476  0.00  0.00    +0.000 A 
ATOM      6  C   UNL     1       3.311   7.057  18.342  0.00  0.00    +0.000 A 
ATOM      7  C   UNL     1       2.696   7.032  19.596  0.00  0.00    +0.000 A 
ATOM      8  N   UNL     1       1.751   7.901  20.034  0.00  0.00    +0.000 NA
BRANCH   3  10
ATOM      9  C   UNL     1       0.888  11.143  19.299  0.00  0.00    +0.000 C 
ATOM     10  O   UNL     1       0.450   9.810  19.541  0.00  0.00    +0.000 OA
ENDBRANCH   3  10
ENDBRANCH   1   6
BRANCH   1  11
ATOM     11  C   UNL     1       3.863   4.683  17.626  0.00  0.00    +0.000 C 
ATOM     12  C   UNL     1       4.725   4.187  16.465  0.00  0.00    +0.000 C 
BRANCH  11  13
ATOM     13  C   UNL     1       4.072   3.799  18.888  0.00  0.00    +0.000 C 
ATOM     14  O   UNL     1       5.194   3.541  19.327  0.00  0.00    +0.000 OA
ATOM     15  N   UNL     1       2.938   3.389  19.567  0.00  0.00    +0.000 N 
ATOM     16  C   UNL     1       1.552   3.570  19.178  0.00  0.00    +0.000 C 
ATOM     17  C   UNL     1       0.817   3.593  20.505  0.00  0.00    +0.000 C 
ATOM     18  C   UNL     1       1.604   2.603  21.359  0.00  0.00    +0.000 C 
ATOM     19  C   UNL     1       3.036   2.713  20.848  0.00  0.00    +0.000 C 
ENDBRANCH  11  13
ENDBRANCH   1  11
TORSDOF 4
ENDMDL
MODEL 9
REMARK VINA RESULT:      -6.3      3.812      5.773
REMARK  Name = 
REMARK  6 active torsions:
REMARK  status: ('A' for Active; 'I' for Inactive)
REMARK    1  A    between atoms: C_1  and  O_2
REMARK    2  A    between atoms: O_2  and  C_3
REMARK    3  A    between atoms: C_6  and  N_7
REMARK    4  A    between atoms: N_7  and  C_8
REMARK    5  A    between atoms: C_8  and  C_9
REMARK    6  A    between atoms: C_8  and  C_10
REMARK                            x       y       z     vdW  Elec       q    Type
REMARK                         _______ _______ _______ _____ _____    ______ ____
ROOT
ATOM      1  N   UNL     1       4.095   6.019  17.895  0.00  0.00    +0.000 N 
ATOM      2  H   UNL     1       4.937   6.401  17.473  0.00  0.00    +0.000 HD
ENDROOT
BRANCH   1   6
ATOM      3  C   UNL     1       1.452   8.944  19.180  0.00  0.00    +0.000 A 
ATOM      4  C   UNL     1       1.718   7.900  20.047  0.00  0.00    +0.000 A 
ATOM      5  C   UNL     1       2.603   6.901  19.634  0.00  0.00    +0.000 A 
ATOM      6  C   UNL     1       3.167   6.934  18.361  0.00  0.00    +0.000 A 
ATOM      7  C   UNL     1       2.833   8.047  17.585  0.00  0.00    +0.000 A 
ATOM      8  N   UNL     1       1.996   9.049  17.955  0.00  0.00    +0.000 NA
BRANCH   3  10
ATOM      9  C   UNL     1       0.818  11.191  19.070  0.00  0.00    +0.000 C 
ATOM     10  O   UNL     1       0.565   9.905  19.627  0.00  0.00    +0.000 OA
ENDBRANCH   3  10
ENDBRANCH   1   6
BRANCH   1  11
ATOM     11  C   UNL     1       3.824   4.610  17.575  0.00  0.00    +0.000 C 
ATOM     12  C   UNL     1       4.720   4.122  16.436  0.00  0.00    +0.000 C 
BRANCH  11  13
ATOM     13  C   UNL     1       4.071   3.781  18.867  0.00  0.00    +0.000 C 
ATOM     14  O   UNL     1       5.203   3.584  19.312  0.00  0.00    +0.000 OA
ATOM     15  N   UNL     1       2.955   3.351  19.563  0.00  0.00    +0.000 N 
ATOM     16  C   UNL     1       1.562   3.464  19.173  0.00  0.00    +0.000 C 
ATOM     17  C   UNL     1       0.828   3.505  20.500  0.00  0.00    +0.000 C 
ATOM     18  C   UNL     1       1.655   2.578  21.387  0.00  0.00    +0.000 C 
ATOM     19  C   UNL     1       3.082   2.726  20.868  0.00  0.00    +0.000 C 
ENDBRANCH  11  13
ENDBRANCH   1  11
TORSDOF 4
ENDMDL
