MODEL 1
REMARK VINA RESULT:      -6.3      0.000      0.000
REMARK  Name = 
REMARK  6 active torsions:
REMARK  status: ('A' for Active; 'I' for Inactive)
REMARK    1  A    between atoms: C_2  and  C_10
REMARK    2  A    between atoms: N_3  and  C_4
REMARK    3  A    between atoms: C_10  and  C_11
REMARK    4  A    between atoms: C_10  and  N_16
REMARK    5  A    between atoms: N_16  and  C_24
REMARK    6  A    between atoms: C_17  and  C_19
REMARK                            x       y       z     vdW  Elec       q    Type
REMARK                         _______ _______ _______ _____ _____    ______ ____
ROOT
ATOM      1  C   UNL     1      -2.613  12.257  20.312  0.00  0.00    +0.000 C 
ENDROOT
BRANCH   1   2
ATOM      2  C   UNL     1      -2.571  11.720  18.904  0.00  0.00    +0.000 A 
ATOM      3  C   UNL     1      -1.758  11.821  17.791  0.00  0.00    +0.000 A 
ATOM      4  C   UNL     1      -2.422  11.180  16.717  0.00  0.00    +0.000 A 
ATOM      5  C   UNL     1      -3.563  10.641  17.249  0.00  0.00    +0.000 A 
ATOM      6  O   UNL     1      -3.658  10.942  18.567  0.00  0.00    +0.000 OA
ENDBRANCH   1   2
BRANCH   1   8
ATOM      7  O   UNL     1      -4.540  12.789  21.785  0.00  0.00    +0.000 OA
ATOM      8  C   UNL     1      -4.039  12.775  20.660  0.00  0.00    +0.000 C 
ATOM      9  N   UNL     1      -4.803  13.220  19.595  0.00  0.00    +0.000 N 
ATOM     10  H   UNL     1      -4.492  13.019  18.652  0.00  0.00    +0.000 HD
BRANCH   9  11
ATOM     11  C   UNL     1      -6.207  13.563  19.816  0.00  0.00    +0.000 C 
ATOM     12  C   UNL     1      -6.593  14.817  19.038  0.00  0.00    +0.000 C 
ATOM     13  C   UNL     1      -6.553  14.586  17.530  0.00  0.00    +0.000 C 
ATOM     14  C   UNL     1      -7.333  13.341  17.100  0.00  0.00    +0.000 C 
ATOM     15  C   UNL     1      -7.031  12.099  17.938  0.00  0.00    +0.000 C 
ATOM     16  C   UNL     1      -7.120  12.392  19.432  0.00  0.00    +0.000 C 
ENDBRANCH   9  11
ENDBRANCH   1   8
BRANCH   1  17
ATOM     17  N   UNL     1      -1.456  13.103  20.761  0.00  0.00    +0.000 N 
ATOM     18  C   UNL     1      -0.414  12.713  21.653  0.00  0.00    +0.000 C 
ATOM     19  O   UNL     1       0.274  13.574  22.215  0.00  0.00    +0.000 OA
BRANCH  17  20
ATOM     20  C   UNL     1      -1.375  14.458  20.198  0.00  0.00    +0.000 A 
ATOM     21  C   UNL     1      -0.472  14.745  19.152  0.00  0.00    +0.000 A 
ATOM     22  C   UNL     1      -0.359  16.028  18.594  0.00  0.00    +0.000 A 
ATOM     23  C   UNL     1      -1.166  17.056  19.058  0.00  0.00    +0.000 A 
ATOM     24 CL   UNL     1      -1.032  18.629  18.376  0.00  0.00    +0.000 Cl
ATOM     25  C   UNL     1      -2.075  16.810  20.080  0.00  0.00    +0.000 A 
ATOM     26  C   UNL     1      -2.173  15.525  20.649  0.00  0.00    +0.000 A 
ENDBRANCH  17  20
BRANCH  18  27
ATOM     27  C   UNL     1      -0.111  11.318  21.998  0.00  0.00    +0.000 A 
ATOM     28  C   UNL     1       0.580  10.467  21.141  0.00  0.00    +0.000 A 
ATOM     29  S   UNL     1       0.769   8.953  21.915  0.00  0.00    +0.000 S 
ATOM     30  N   UNL     1      -0.066   9.449  23.264  0.00  0.00    +0.000 NA
ATOM     31  N   UNL     1      -0.484  10.698  23.170  0.00  0.00    +0.000 NA
ENDBRANCH  18  27
ENDBRANCH   1  17
TORSDOF 6
ENDMDL
MODEL 2
REMARK VINA RESULT:      -6.3      3.405      5.180
REMARK  Name = 
REMARK  6 active torsions:
REMARK  status: ('A' for Active; 'I' for Inactive)
REMARK    1  A    between atoms: C_2  and  C_10
REMARK    2  A    between atoms: N_3  and  C_4
REMARK    3  A    between atoms: C_10  and  C_11
REMARK    4  A    between atoms: C_10  and  N_16
REMARK    5  A    between atoms: N_16  and  C_24
REMARK    6  A    between atoms: C_17  and  C_19
REMARK                            x       y       z     vdW  Elec       q    Type
REMARK                         _______ _______ _______ _____ _____    ______ ____
ROOT
ATOM      1  C   UNL     1      -0.328  11.935  21.855  0.00  0.00    +0.000 C 
ENDROOT
BRANCH   1   2
ATOM      2  C   UNL     1       0.121  10.510  21.653  0.00  0.00    +0.000 A 
ATOM      3  C   UNL     1      -0.324   9.376  21.000  0.00  0.00    +0.000 A 
ATOM      4  C   UNL     1       0.516   8.304  21.385  0.00  0.00    +0.000 A 
ATOM      5  C   UNL     1       1.487   8.853  22.180  0.00  0.00    +0.000 A 
ATOM      6  O   UNL     1       1.273  10.183  22.336  0.00  0.00    +0.000 OA
ENDBRANCH   1   2
BRANCH   1   8
ATOM      7  O   UNL     1      -2.020  11.036  23.434  0.00  0.00    +0.000 OA
ATOM      8  C   UNL     1      -1.482  12.005  22.897  0.00  0.00    +0.000 C 
ATOM      9  N   UNL     1      -1.949  13.271  23.206  0.00  0.00    +0.000 N 
ATOM     10  H   UNL     1      -1.669  14.052  22.625  0.00  0.00    +0.000 HD
BRANCH   9  11
ATOM     11  C   UNL     1      -3.139  13.409  24.046  0.00  0.00    +0.000 C 
ATOM     12  C   UNL     1      -3.000  14.591  25.000  0.00  0.00    +0.000 C 
ATOM     13  C   UNL     1      -2.976  15.923  24.256  0.00  0.00    +0.000 C 
ATOM     14  C   UNL     1      -4.136  16.073  23.270  0.00  0.00    +0.000 C 
ATOM     15  C   UNL     1      -4.351  14.853  22.374  0.00  0.00    +0.000 C 
ATOM     16  C   UNL     1      -4.398  13.561  23.184  0.00  0.00    +0.000 C 
ENDBRANCH   9  11
ENDBRANCH   1   8
BRANCH   1  17
ATOM     17  N   UNL     1      -0.469  12.793  20.629  0.00  0.00    +0.000 N 
ATOM     18  C   UNL     1       0.308  13.943  20.303  0.00  0.00    +0.000 C 
ATOM     19  O   UNL     1      -0.110  14.756  19.470  0.00  0.00    +0.000 OA
BRANCH  17  20
ATOM     20  C   UNL     1      -1.490  12.384  19.654  0.00  0.00    +0.000 A 
ATOM     21  C   UNL     1      -1.111  11.857  18.401  0.00  0.00    +0.000 A 
ATOM     22  C   UNL     1      -2.056  11.463  17.440  0.00  0.00    +0.000 A 
ATOM     23  C   UNL     1      -3.410  11.568  17.720  0.00  0.00    +0.000 A 
ATOM     24 CL   UNL     1      -4.572  11.086  16.547  0.00  0.00    +0.000 Cl
ATOM     25  C   UNL     1      -3.822  12.072  18.948  0.00  0.00    +0.000 A 
ATOM     26  C   UNL     1      -2.871  12.482  19.902  0.00  0.00    +0.000 A 
ENDBRANCH  17  20
BRANCH  18  27
ATOM     27  C   UNL     1       1.594  14.267  20.933  0.00  0.00    +0.000 A 
ATOM     28  C   UNL     1       2.814  14.068  20.293  0.00  0.00    +0.000 A 
ATOM     29  S   UNL     1       4.065  14.604  21.330  0.00  0.00    +0.000 S 
ATOM     30  N   UNL     1       2.997  15.016  22.536  0.00  0.00    +0.000 NA
ATOM     31  N   UNL     1       1.742  14.773  22.206  0.00  0.00    +0.000 NA
ENDBRANCH  18  27
ENDBRANCH   1  17
TORSDOF 6
ENDMDL
MODEL 3
REMARK VINA RESULT:      -6.1      3.717      5.566
REMARK  Name = 
REMARK  6 active torsions:
REMARK  status: ('A' for Active; 'I' for Inactive)
REMARK    1  A    between atoms: C_2  and  C_10
REMARK    2  A    between atoms: N_3  and  C_4
REMARK    3  A    between atoms: C_10  and  C_11
REMARK    4  A    between atoms: C_10  and  N_16
REMARK    5  A    between atoms: N_16  and  C_24
REMARK    6  A    between atoms: C_17  and  C_19
REMARK                            x       y       z     vdW  Elec       q    Type
REMARK                         _______ _______ _______ _____ _____    ______ ____
ROOT
ATOM      1  C   UNL     1      -0.156  13.051  21.891  0.00  0.00    +0.000 C 
ENDROOT
BRANCH   1   2
ATOM      2  C   UNL     1      -0.296  11.610  22.310  0.00  0.00    +0.000 A 
ATOM      3  C   UNL     1      -1.202  10.825  22.999  0.00  0.00    +0.000 A 
ATOM      4  C   UNL     1      -0.608   9.554  23.189  0.00  0.00    +0.000 A 
ATOM      5  C   UNL     1       0.591   9.597  22.529  0.00  0.00    +0.000 A 
ATOM      6  O   UNL     1       0.785  10.821  21.980  0.00  0.00    +0.000 OA
ENDBRANCH   1   2
BRANCH   1   8
ATOM      7  O   UNL     1      -0.526  14.698  23.712  0.00  0.00    +0.000 OA
ATOM      8  C   UNL     1      -0.987  13.978  22.826  0.00  0.00    +0.000 C 
ATOM      9  N   UNL     1      -2.360  13.949  22.651  0.00  0.00    +0.000 N 
ATOM     10  H   UNL     1      -2.765  13.216  22.081  0.00  0.00    +0.000 HD
BRANCH   9  11
ATOM     11  C   UNL     1      -3.217  14.660  23.598  0.00  0.00    +0.000 C 
ATOM     12  C   UNL     1      -4.530  15.076  22.942  0.00  0.00    +0.000 C 
ATOM     13  C   UNL     1      -5.390  13.870  22.576  0.00  0.00    +0.000 C 
ATOM     14  C   UNL     1      -5.576  12.897  23.742  0.00  0.00    +0.000 C 
ATOM     15  C   UNL     1      -4.280  12.550  24.474  0.00  0.00    +0.000 C 
ATOM     16  C   UNL     1      -3.487  13.802  24.839  0.00  0.00    +0.000 C 
ENDBRANCH   9  11
ENDBRANCH   1   8
BRANCH   1  17
ATOM     17  N   UNL     1      -0.210  13.349  20.419  0.00  0.00    +0.000 N 
ATOM     18  C   UNL     1       0.425  14.434  19.748  0.00  0.00    +0.000 C 
ATOM     19  O   UNL     1       0.039  14.778  18.624  0.00  0.00    +0.000 OA
BRANCH  17  20
ATOM     20  C   UNL     1      -0.968  12.405  19.585  0.00  0.00    +0.000 A 
ATOM     21  C   UNL     1      -2.372  12.510  19.483  0.00  0.00    +0.000 A 
ATOM     22  C   UNL     1      -3.132  11.623  18.704  0.00  0.00    +0.000 A 
ATOM     23  C   UNL     1      -2.500  10.617  17.988  0.00  0.00    +0.000 A 
ATOM     24 CL   UNL     1      -3.426   9.530  17.031  0.00  0.00    +0.000 Cl
ATOM     25  C   UNL     1      -1.118  10.489  18.055  0.00  0.00    +0.000 A 
ATOM     26  C   UNL     1      -0.360  11.370  18.851  0.00  0.00    +0.000 A 
ENDBRANCH  17  20
BRANCH  18  27
ATOM     27  C   UNL     1       1.514  15.231  20.328  0.00  0.00    +0.000 A 
ATOM     28  C   UNL     1       2.838  14.801  20.328  0.00  0.00    +0.000 A 
ATOM     29  S   UNL     1       3.803  16.016  21.051  0.00  0.00    +0.000 S 
ATOM     30  N   UNL     1       2.489  16.990  21.354  0.00  0.00    +0.000 NA
ATOM     31  N   UNL     1       1.356  16.453  20.942  0.00  0.00    +0.000 NA
ENDBRANCH  18  27
ENDBRANCH   1  17
TORSDOF 6
ENDMDL
MODEL 4
REMARK VINA RESULT:      -6.1      3.768      5.523
REMARK  Name = 
REMARK  6 active torsions:
REMARK  status: ('A' for Active; 'I' for Inactive)
REMARK    1  A    between atoms: C_2  and  C_10
REMARK    2  A    between atoms: N_3  and  C_4
REMARK    3  A    between atoms: C_10  and  C_11
REMARK    4  A    between atoms: C_10  and  N_16
REMARK    5  A    between atoms: N_16  and  C_24
REMARK    6  A    between atoms: C_17  and  C_19
REMARK                            x       y       z     vdW  Elec       q    Type
REMARK                         _______ _______ _______ _____ _____    ______ ____
ROOT
ATOM      1  C   UNL     1      -0.104  13.066  21.820  0.00  0.00    +0.000 C 
ENDROOT
BRANCH   1   2
ATOM      2  C   UNL     1      -0.238  11.625  22.242  0.00  0.00    +0.000 A 
ATOM      3  C   UNL     1      -1.142  10.837  22.932  0.00  0.00    +0.000 A 
ATOM      4  C   UNL     1      -0.542   9.569  23.124  0.00  0.00    +0.000 A 
ATOM      5  C   UNL     1       0.657   9.616  22.464  0.00  0.00    +0.000 A 
ATOM      6  O   UNL     1       0.846  10.840  21.913  0.00  0.00    +0.000 OA
ENDBRANCH   1   2
BRANCH   1   8
ATOM      7  O   UNL     1      -0.432  14.687  23.672  0.00  0.00    +0.000 OA
ATOM      8  C   UNL     1      -0.911  13.994  22.774  0.00  0.00    +0.000 C 
ATOM      9  N   UNL     1      -2.285  14.000  22.602  0.00  0.00    +0.000 N 
ATOM     10  H   UNL     1      -2.709  13.286  22.020  0.00  0.00    +0.000 HD
BRANCH   9  11
ATOM     11  C   UNL     1      -3.124  14.714  23.564  0.00  0.00    +0.000 C 
ATOM     12  C   UNL     1      -4.413  15.200  22.911  0.00  0.00    +0.000 C 
ATOM     13  C   UNL     1      -5.315  14.040  22.499  0.00  0.00    +0.000 C 
ATOM     14  C   UNL     1      -5.549  13.039  23.632  0.00  0.00    +0.000 C 
ATOM     15  C   UNL     1      -4.274  12.619  24.363  0.00  0.00    +0.000 C 
ATOM     16  C   UNL     1      -3.438  13.827  24.775  0.00  0.00    +0.000 C 
ENDBRANCH   9  11
ENDBRANCH   1   8
BRANCH   1  17
ATOM     17  N   UNL     1      -0.190  13.364  20.350  0.00  0.00    +0.000 N 
ATOM     18  C   UNL     1       0.451  14.434  19.661  0.00  0.00    +0.000 C 
ATOM     19  O   UNL     1       0.043  14.786  18.547  0.00  0.00    +0.000 OA
BRANCH  17  20
ATOM     20  C   UNL     1      -0.993  12.438  19.538  0.00  0.00    +0.000 A 
ATOM     21  C   UNL     1      -0.368  11.416  18.791  0.00  0.00    +0.000 A 
ATOM     22  C   UNL     1      -1.098  10.518  17.997  0.00  0.00    +0.000 A 
ATOM     23  C   UNL     1      -2.481  10.609  17.946  0.00  0.00    +0.000 A 
ATOM     24 CL   UNL     1      -3.380   9.511  16.975  0.00  0.00    +0.000 Cl
ATOM     25  C   UNL     1      -3.133  11.596  18.675  0.00  0.00    +0.000 A 
ATOM     26  C   UNL     1      -2.396  12.505  19.457  0.00  0.00    +0.000 A 
ENDBRANCH  17  20
BRANCH  18  27
ATOM     27  C   UNL     1       1.574  15.204  20.211  0.00  0.00    +0.000 A 
ATOM     28  C   UNL     1       1.426  16.500  20.698  0.00  0.00    +0.000 A 
ATOM     29  S   UNL     1       2.942  17.035  21.285  0.00  0.00    +0.000 S 
ATOM     30  N   UNL     1       3.699  15.618  20.854  0.00  0.00    +0.000 NA
ATOM     31  N   UNL     1       2.874  14.756  20.288  0.00  0.00    +0.000 NA
ENDBRANCH  18  27
ENDBRANCH   1  17
TORSDOF 6
ENDMDL
MODEL 5
REMARK VINA RESULT:      -6.0      9.156     12.412
REMARK  Name = 
REMARK  6 active torsions:
REMARK  status: ('A' for Active; 'I' for Inactive)
REMARK    1  A    between atoms: C_2  and  C_10
REMARK    2  A    between atoms: N_3  and  C_4
REMARK    3  A    between atoms: C_10  and  C_11
REMARK    4  A    between atoms: C_10  and  N_16
REMARK    5  A    between atoms: N_16  and  C_24
REMARK    6  A    between atoms: C_17  and  C_19
REMARK                            x       y       z     vdW  Elec       q    Type
REMARK                         _______ _______ _______ _____ _____    ______ ____
ROOT
ATOM      1  C   UNL     1       7.211  14.820  19.864  0.00  0.00    +0.000 C 
ENDROOT
BRANCH   1   2
ATOM      2  C   UNL     1       7.816  14.475  21.201  0.00  0.00    +0.000 A 
ATOM      3  C   UNL     1       8.254  15.139  22.332  0.00  0.00    +0.000 A 
ATOM      4  C   UNL     1       8.891  14.190  23.166  0.00  0.00    +0.000 A 
ATOM      5  C   UNL     1       8.731  12.978  22.547  0.00  0.00    +0.000 A 
ATOM      6  O   UNL     1       8.070  13.131  21.373  0.00  0.00    +0.000 OA
ENDBRANCH   1   2
BRANCH   1   8
ATOM      7  O   UNL     1       7.591  13.886  17.595  0.00  0.00    +0.000 OA
ATOM      8  C   UNL     1       8.030  14.174  18.708  0.00  0.00    +0.000 C 
ATOM      9  N   UNL     1       9.352  13.874  18.990  0.00  0.00    +0.000 N 
ATOM     10  H   UNL     1       9.667  13.907  19.953  0.00  0.00    +0.000 HD
BRANCH   9  11
ATOM     11  C   UNL     1      10.137  13.116  18.018  0.00  0.00    +0.000 C 
ATOM     12  C   UNL     1      11.569  13.637  17.944  0.00  0.00    +0.000 C 
ATOM     13  C   UNL     1      12.333  13.383  19.240  0.00  0.00    +0.000 C 
ATOM     14  C   UNL     1      12.240  11.930  19.710  0.00  0.00    +0.000 C 
ATOM     15  C   UNL     1      10.821  11.362  19.692  0.00  0.00    +0.000 C 
ATOM     16  C   UNL     1      10.128  11.621  18.358  0.00  0.00    +0.000 C 
ENDBRANCH   9  11
ENDBRANCH   1   8
BRANCH   1  17
ATOM     17  N   UNL     1       6.752  16.235  19.661  0.00  0.00    +0.000 N 
ATOM     18  C   UNL     1       7.581  17.377  19.459  0.00  0.00    +0.000 C 
ATOM     19  O   UNL     1       7.128  18.513  19.649  0.00  0.00    +0.000 OA
BRANCH  17  20
ATOM     20  C   UNL     1       5.299  16.458  19.636  0.00  0.00    +0.000 A 
ATOM     21  C   UNL     1       4.595  16.450  18.413  0.00  0.00    +0.000 A 
ATOM     22  C   UNL     1       3.211  16.667  18.347  0.00  0.00    +0.000 A 
ATOM     23  C   UNL     1       2.488  16.878  19.512  0.00  0.00    +0.000 A 
ATOM     24 CL   UNL     1       0.791  17.142  19.437  0.00  0.00    +0.000 Cl
ATOM     25  C   UNL     1       3.144  16.882  20.737  0.00  0.00    +0.000 A 
ATOM     26  C   UNL     1       4.537  16.681  20.797  0.00  0.00    +0.000 A 
ENDBRANCH  17  20
BRANCH  18  27
ATOM     27  C   UNL     1       8.995  17.303  19.069  0.00  0.00    +0.000 A 
ATOM     28  C   UNL     1       9.425  17.535  17.765  0.00  0.00    +0.000 A 
ATOM     29  S   UNL     1      11.131  17.397  17.725  0.00  0.00    +0.000 S 
ATOM     30  N   UNL     1      11.218  17.016  19.341  0.00  0.00    +0.000 NA
ATOM     31  N   UNL     1      10.031  16.984  19.918  0.00  0.00    +0.000 NA
ENDBRANCH  18  27
ENDBRANCH   1  17
TORSDOF 6
ENDMDL
MODEL 6
REMARK VINA RESULT:      -6.0      3.317      5.248
REMARK  Name = 
REMARK  6 active torsions:
REMARK  status: ('A' for Active; 'I' for Inactive)
REMARK    1  A    between atoms: C_2  and  C_10
REMARK    2  A    between atoms: N_3  and  C_4
REMARK    3  A    between atoms: C_10  and  C_11
REMARK    4  A    between atoms: C_10  and  N_16
REMARK    5  A    between atoms: N_16  and  C_24
REMARK    6  A    between atoms: C_17  and  C_19
REMARK                            x       y       z     vdW  Elec       q    Type
REMARK                         _______ _______ _______ _____ _____    ______ ____
ROOT
ATOM      1  C   UNL     1      -0.313  12.954  21.779  0.00  0.00    +0.000 C 
ENDROOT
BRANCH   1   2
ATOM      2  C   UNL     1      -0.227  11.463  21.984  0.00  0.00    +0.000 A 
ATOM      3  C   UNL     1       0.029  10.335  21.227  0.00  0.00    +0.000 A 
ATOM      4  C   UNL     1      -0.235   9.206  22.038  0.00  0.00    +0.000 A 
ATOM      5  C   UNL     1      -0.551   9.699  23.277  0.00  0.00    +0.000 A 
ATOM      6  O   UNL     1      -0.532  11.054  23.265  0.00  0.00    +0.000 OA
ENDBRANCH   1   2
BRANCH   1   8
ATOM      7  O   UNL     1      -0.525  14.425  23.768  0.00  0.00    +0.000 OA
ATOM      8  C   UNL     1      -1.038  13.633  22.978  0.00  0.00    +0.000 C 
ATOM      9  N   UNL     1      -2.361  13.274  23.173  0.00  0.00    +0.000 N 
ATOM     10  H   UNL     1      -2.731  12.476  22.670  0.00  0.00    +0.000 HD
BRANCH   9  11
ATOM     11  C   UNL     1      -3.058  13.737  24.372  0.00  0.00    +0.000 C 
ATOM     12  C   UNL     1      -3.643  15.130  24.161  0.00  0.00    +0.000 C 
ATOM     13  C   UNL     1      -4.760  15.126  23.122  0.00  0.00    +0.000 C 
ATOM     14  C   UNL     1      -5.821  14.058  23.394  0.00  0.00    +0.000 C 
ATOM     15  C   UNL     1      -5.245  12.677  23.707  0.00  0.00    +0.000 C 
ATOM     16  C   UNL     1      -4.159  12.749  24.776  0.00  0.00    +0.000 C 
ENDBRANCH   9  11
ENDBRANCH   1   8
BRANCH   1  17
ATOM     17  N   UNL     1      -0.674  13.440  20.404  0.00  0.00    +0.000 N 
ATOM     18  C   UNL     1       0.049  14.385  19.619  0.00  0.00    +0.000 C 
ATOM     19  O   UNL     1      -0.507  14.962  18.677  0.00  0.00    +0.000 OA
BRANCH  17  20
ATOM     20  C   UNL     1      -1.879  12.857  19.797  0.00  0.00    +0.000 A 
ATOM     21  C   UNL     1      -1.779  12.049  18.644  0.00  0.00    +0.000 A 
ATOM     22  C   UNL     1      -2.906  11.482  18.029  0.00  0.00    +0.000 A 
ATOM     23  C   UNL     1      -4.166  11.693  18.568  0.00  0.00    +0.000 A 
ATOM     24 CL   UNL     1      -5.551  10.999  17.820  0.00  0.00    +0.000 Cl
ATOM     25  C   UNL     1      -4.304  12.475  19.709  0.00  0.00    +0.000 A 
ATOM     26  C   UNL     1      -3.173  13.057  20.313  0.00  0.00    +0.000 A 
ENDBRANCH  17  20
BRANCH  18  27
ATOM     27  C   UNL     1       1.442  14.769  19.880  0.00  0.00    +0.000 A 
ATOM     28  C   UNL     1       2.521  13.977  19.498  0.00  0.00    +0.000 A 
ATOM     29  S   UNL     1       3.967  14.781  19.937  0.00  0.00    +0.000 S 
ATOM     30  N   UNL     1       3.145  16.057  20.615  0.00  0.00    +0.000 NA
ATOM     31  N   UNL     1       1.835  15.916  20.533  0.00  0.00    +0.000 NA
ENDBRANCH  18  27
ENDBRANCH   1  17
TORSDOF 6
ENDMDL
MODEL 7
REMARK VINA RESULT:      -6.0      3.858      5.930
REMARK  Name = 
REMARK  6 active torsions:
REMARK  status: ('A' for Active; 'I' for Inactive)
REMARK    1  A    between atoms: C_2  and  C_10
REMARK    2  A    between atoms: N_3  and  C_4
REMARK    3  A    between atoms: C_10  and  C_11
REMARK    4  A    between atoms: C_10  and  N_16
REMARK    5  A    between atoms: N_16  and  C_24
REMARK    6  A    between atoms: C_17  and  C_19
REMARK                            x       y       z     vdW  Elec       q    Type
REMARK                         _______ _______ _______ _____ _____    ______ ____
ROOT
ATOM      1  C   UNL     1      -0.786  10.574  19.587  0.00  0.00    +0.000 C 
ENDROOT
BRANCH   1   2
ATOM      2  C   UNL     1      -1.841  10.920  18.567  0.00  0.00    +0.000 A 
ATOM      3  C   UNL     1      -3.062  11.567  18.532  0.00  0.00    +0.000 A 
ATOM      4  C   UNL     1      -3.613  11.370  17.243  0.00  0.00    +0.000 A 
ATOM      5  C   UNL     1      -2.662  10.692  16.527  0.00  0.00    +0.000 A 
ATOM      6  O   UNL     1      -1.583  10.430  17.305  0.00  0.00    +0.000 OA
ENDBRANCH   1   2
BRANCH   1   8
ATOM      7  O   UNL     1      -0.849  10.795  22.060  0.00  0.00    +0.000 OA
ATOM      8  C   UNL     1      -1.091  11.266  20.948  0.00  0.00    +0.000 C 
ATOM      9  N   UNL     1      -1.719  12.498  20.879  0.00  0.00    +0.000 N 
ATOM     10  H   UNL     1      -2.112  12.799  19.995  0.00  0.00    +0.000 HD
BRANCH   9  11
ATOM     11  C   UNL     1      -2.189  13.132  22.110  0.00  0.00    +0.000 C 
ATOM     12  C   UNL     1      -2.185  14.651  21.980  0.00  0.00    +0.000 C 
ATOM     13  C   UNL     1      -3.209  15.137  20.959  0.00  0.00    +0.000 C 
ATOM     14  C   UNL     1      -4.603  14.553  21.192  0.00  0.00    +0.000 C 
ATOM     15  C   UNL     1      -4.612  13.042  21.425  0.00  0.00    +0.000 C 
ATOM     16  C   UNL     1      -3.590  12.630  22.480  0.00  0.00    +0.000 C 
ENDBRANCH   9  11
ENDBRANCH   1   8
BRANCH   1  17
ATOM     17  N   UNL     1       0.645  10.582  19.129  0.00  0.00    +0.000 N 
ATOM     18  C   UNL     1       1.413  11.725  18.761  0.00  0.00    +0.000 C 
ATOM     19  O   UNL     1       2.438  11.589  18.082  0.00  0.00    +0.000 OA
BRANCH  17  20
ATOM     20  C   UNL     1       1.328   9.282  19.086  0.00  0.00    +0.000 A 
ATOM     21  C   UNL     1       1.887   8.806  17.881  0.00  0.00    +0.000 A 
ATOM     22  C   UNL     1       2.539   7.567  17.797  0.00  0.00    +0.000 A 
ATOM     23  C   UNL     1       2.668   6.776  18.930  0.00  0.00    +0.000 A 
ATOM     24 CL   UNL     1       3.468   5.257  18.834  0.00  0.00    +0.000 Cl
ATOM     25  C   UNL     1       2.140   7.215  20.138  0.00  0.00    +0.000 A 
ATOM     26  C   UNL     1       1.471   8.452  20.214  0.00  0.00    +0.000 A 
ENDBRANCH  17  20
BRANCH  18  27
ATOM     27  C   UNL     1       1.044  13.104  19.104  0.00  0.00    +0.000 A 
ATOM     28  C   UNL     1       1.711  13.836  20.083  0.00  0.00    +0.000 A 
ATOM     29  S   UNL     1       1.018  15.400  20.157  0.00  0.00    +0.000 S 
ATOM     30  N   UNL     1      -0.103  15.045  18.981  0.00  0.00    +0.000 NA
ATOM     31  N   UNL     1       0.010  13.810  18.530  0.00  0.00    +0.000 NA
ENDBRANCH  18  27
ENDBRANCH   1  17
TORSDOF 6
ENDMDL
MODEL 8
REMARK VINA RESULT:      -6.0      3.965      6.194
REMARK  Name = 
REMARK  6 active torsions:
REMARK  status: ('A' for Active; 'I' for Inactive)
REMARK    1  A    between atoms: C_2  and  C_10
REMARK    2  A    between atoms: N_3  and  C_4
REMARK    3  A    between atoms: C_10  and  C_11
REMARK    4  A    between atoms: C_10  and  N_16
REMARK    5  A    between atoms: N_16  and  C_24
REMARK    6  A    between atoms: C_17  and  C_19
REMARK                            x       y       z     vdW  Elec       q    Type
REMARK                         _______ _______ _______ _____ _____    ______ ____
ROOT
ATOM      1  C   UNL     1      -0.482  10.544  19.998  0.00  0.00    +0.000 C 
ENDROOT
BRANCH   1   2
ATOM      2  C   UNL     1      -1.686  10.914  19.170  0.00  0.00    +0.000 A 
ATOM      3  C   UNL     1      -2.650  11.905  19.147  0.00  0.00    +0.000 A 
ATOM      4  C   UNL     1      -3.618  11.538  18.180  0.00  0.00    +0.000 A 
ATOM      5  C   UNL     1      -3.150  10.390  17.598  0.00  0.00    +0.000 A 
ATOM      6  O   UNL     1      -1.980  10.013  18.170  0.00  0.00    +0.000 OA
ENDBRANCH   1   2
BRANCH   1   8
ATOM      7  O   UNL     1       0.001  10.789  22.421  0.00  0.00    +0.000 OA
ATOM      8  C   UNL     1      -0.560  11.203  21.406  0.00  0.00    +0.000 C 
ATOM      9  N   UNL     1      -1.361  12.328  21.510  0.00  0.00    +0.000 N 
ATOM     10  H   UNL     1      -1.989  12.554  20.747  0.00  0.00    +0.000 HD
BRANCH   9  11
ATOM     11  C   UNL     1      -1.619  12.903  22.829  0.00  0.00    +0.000 C 
ATOM     12  C   UNL     1      -1.610  14.427  22.772  0.00  0.00    +0.000 C 
ATOM     13  C   UNL     1      -2.775  14.972  21.952  0.00  0.00    +0.000 C 
ATOM     14  C   UNL     1      -4.125  14.389  22.376  0.00  0.00    +0.000 C 
ATOM     15  C   UNL     1      -4.121  12.869  22.536  0.00  0.00    +0.000 C 
ATOM     16  C   UNL     1      -2.951  12.395  23.393  0.00  0.00    +0.000 C 
ENDBRANCH   9  11
ENDBRANCH   1   8
BRANCH   1  17
ATOM     17  N   UNL     1       0.855  10.561  19.314  0.00  0.00    +0.000 N 
ATOM     18  C   UNL     1       1.590  11.714  18.914  0.00  0.00    +0.000 C 
ATOM     19  O   UNL     1       2.488  11.614  18.068  0.00  0.00    +0.000 OA
BRANCH  17  20
ATOM     20  C   UNL     1       1.481   9.255  19.062  0.00  0.00    +0.000 A 
ATOM     21  C   UNL     1       1.631   8.320  20.108  0.00  0.00    +0.000 A 
ATOM     22  C   UNL     1       2.231   7.067  19.909  0.00  0.00    +0.000 A 
ATOM     23  C   UNL     1       2.680   6.708  18.647  0.00  0.00    +0.000 A 
ATOM     24 CL   UNL     1       3.414   5.173  18.397  0.00  0.00    +0.000 Cl
ATOM     25  C   UNL     1       2.540   7.598  17.589  0.00  0.00    +0.000 A 
ATOM     26  C   UNL     1       1.953   8.861  17.796  0.00  0.00    +0.000 A 
ENDBRANCH  17  20
BRANCH  18  27
ATOM     27  C   UNL     1       1.326  13.069  19.417  0.00  0.00    +0.000 A 
ATOM     28  C   UNL     1       2.098  13.663  20.410  0.00  0.00    +0.000 A 
ATOM     29  S   UNL     1       1.503  15.243  20.688  0.00  0.00    +0.000 S 
ATOM     30  N   UNL     1       0.286  15.067  19.569  0.00  0.00    +0.000 NA
ATOM     31  N   UNL     1       0.297  13.880  18.992  0.00  0.00    +0.000 NA
ENDBRANCH  18  27
ENDBRANCH   1  17
TORSDOF 6
ENDMDL
MODEL 9
REMARK VINA RESULT:      -6.0      3.764      6.528
REMARK  Name = 
REMARK  6 active torsions:
REMARK  status: ('A' for Active; 'I' for Inactive)
REMARK    1  A    between atoms: C_2  and  C_10
REMARK    2  A    between atoms: N_3  and  C_4
REMARK    3  A    between atoms: C_10  and  C_11
REMARK    4  A    between atoms: C_10  and  N_16
REMARK    5  A    between atoms: N_16  and  C_24
REMARK    6  A    between atoms: C_17  and  C_19
REMARK                            x       y       z     vdW  Elec       q    Type
REMARK                         _______ _______ _______ _____ _____    ______ ____
ROOT
ATOM      1  C   UNL     1      -1.319  11.924  19.875  0.00  0.00    +0.000 C 
ENDROOT
BRANCH   1   2
ATOM      2  C   UNL     1      -2.201  11.175  18.909  0.00  0.00    +0.000 A 
ATOM      3  C   UNL     1      -2.093  10.108  18.035  0.00  0.00    +0.000 A 
ATOM      4  C   UNL     1      -3.292  10.046  17.286  0.00  0.00    +0.000 A 
ATOM      5  C   UNL     1      -4.108  11.018  17.801  0.00  0.00    +0.000 A 
ATOM      6  O   UNL     1      -3.472  11.693  18.790  0.00  0.00    +0.000 OA
ENDBRANCH   1   2
BRANCH   1   8
ATOM      7  O   UNL     1      -0.562  13.280  17.938  0.00  0.00    +0.000 OA
ATOM      8  C   UNL     1      -0.441  12.965  19.122  0.00  0.00    +0.000 C 
ATOM      9  N   UNL     1       0.578  13.549  19.856  0.00  0.00    +0.000 N 
ATOM     10  H   UNL     1       0.823  13.152  20.755  0.00  0.00    +0.000 HD
BRANCH   9  11
ATOM     11  C   UNL     1       1.547  14.408  19.178  0.00  0.00    +0.000 C 
ATOM     12  C   UNL     1       1.342  15.871  19.557  0.00  0.00    +0.000 C 
ATOM     13  C   UNL     1       1.661  16.127  21.027  0.00  0.00    +0.000 C 
ATOM     14  C   UNL     1       3.027  15.579  21.443  0.00  0.00    +0.000 C 
ATOM     15  C   UNL     1       3.287  14.145  20.980  0.00  0.00    +0.000 C 
ATOM     16  C   UNL     1       2.981  13.967  19.497  0.00  0.00    +0.000 C 
ENDBRANCH   9  11
ENDBRANCH   1   8
BRANCH   1  17
ATOM     17  N   UNL     1      -0.648  11.126  20.956  0.00  0.00    +0.000 N 
ATOM     18  C   UNL     1      -0.786  11.315  22.362  0.00  0.00    +0.000 C 
ATOM     19  O   UNL     1       0.058  10.846  23.136  0.00  0.00    +0.000 OA
BRANCH  17  20
ATOM     20  C   UNL     1       0.213  10.018  20.517  0.00  0.00    +0.000 A 
ATOM     21  C   UNL     1       0.279   8.824  21.267  0.00  0.00    +0.000 A 
ATOM     22  C   UNL     1       1.096   7.748  20.886  0.00  0.00    +0.000 A 
ATOM     23  C   UNL     1       1.854   7.832  19.727  0.00  0.00    +0.000 A 
ATOM     24 CL   UNL     1       2.855   6.516  19.255  0.00  0.00    +0.000 Cl
ATOM     25  C   UNL     1       1.807   8.988  18.957  0.00  0.00    +0.000 A 
ATOM     26  C   UNL     1       1.000  10.072  19.352  0.00  0.00    +0.000 A 
ENDBRANCH  17  20
BRANCH  18  27
ATOM     27  C   UNL     1      -1.872  12.086  22.981  0.00  0.00    +0.000 A 
ATOM     28  C   UNL     1      -1.813  13.468  23.140  0.00  0.00    +0.000 A 
ATOM     29  S   UNL     1      -3.275  13.995  23.856  0.00  0.00    +0.000 S 
ATOM     30  N   UNL     1      -3.875  12.447  23.958  0.00  0.00    +0.000 NA
ATOM     31  N   UNL     1      -3.036  11.546  23.482  0.00  0.00    +0.000 NA
ENDBRANCH  18  27
ENDBRANCH   1  17
TORSDOF 6
ENDMDL
