MODEL 1
REMARK VINA RESULT:      -6.7      0.000      0.000
REMARK  Name = 
REMARK  1 active torsions:
REMARK  status: ('A' for Active; 'I' for Inactive)
REMARK    1  A    between atoms: C_1  and  N_2
REMARK                            x       y       z     vdW  Elec       q    Type
REMARK                         _______ _______ _______ _____ _____    ______ ____
ROOT
ATOM      1  C   UNL     1       1.570   2.368  20.270  0.00  0.00    +0.000 C 
ATOM      2  N   UNL     1       1.682   3.517  19.362  0.00  0.00    +0.000 NA
ATOM      3  C   UNL     1       2.147   3.076  18.032  0.00  0.00    +0.000 C 
ATOM      4  C   UNL     1       3.669   3.076  17.725  0.00  0.00    +0.000 C 
ATOM      5  C   UNL     1       4.141   4.449  17.310  0.00  0.00    +0.000 A 
ATOM      6  C   UNL     1       5.047   4.707  16.263  0.00  0.00    +0.000 A 
ATOM      7 CL   UNL     1       5.841   3.418  15.427  0.00  0.00    +0.000 Cl
ATOM      8  C   UNL     1       5.339   6.020  15.850  0.00  0.00    +0.000 A 
ATOM      9  C   UNL     1       4.738   7.131  16.454  0.00  0.00    +0.000 A 
ATOM     10  C   UNL     1       3.892   6.857  17.519  0.00  0.00    +0.000 A 
ATOM     11  O   UNL     1       3.206   7.764  18.264  0.00  0.00    +0.000 OA
ATOM     12  C   UNL     1       2.533   7.069  19.229  0.00  0.00    +0.000 A 
ATOM     13 BR   UNL     1       1.456   7.898  20.513  0.00  0.00    +0.000 Br
ATOM     14  C   UNL     1       2.796   5.717  19.127  0.00  0.00    +0.000 A 
ATOM     15  C   UNL     1       3.624   5.580  17.976  0.00  0.00    +0.000 A 
ATOM     16  C   UNL     1       2.454   4.581  20.028  0.00  0.00    +0.000 C 
ENDROOT
TORSDOF 0
ENDMDL
MODEL 2
REMARK VINA RESULT:      -6.2      2.078      4.073
REMARK  Name = 
REMARK  1 active torsions:
REMARK  status: ('A' for Active; 'I' for Inactive)
REMARK    1  A    between atoms: C_1  and  N_2
REMARK                            x       y       z     vdW  Elec       q    Type
REMARK                         _______ _______ _______ _____ _____    ______ ____
ROOT
ATOM      1  C   UNL     1       5.220   7.002  16.441  0.00  0.00    +0.000 C 
ATOM      2  N   UNL     1       4.737   6.587  17.764  0.00  0.00    +0.000 NA
ATOM      3  C   UNL     1       5.228   5.233  18.089  0.00  0.00    +0.000 C 
ATOM      4  C   UNL     1       4.353   4.004  17.723  0.00  0.00    +0.000 C 
ATOM      5  C   UNL     1       3.300   3.752  18.777  0.00  0.00    +0.000 A 
ATOM      6  C   UNL     1       2.938   2.482  19.266  0.00  0.00    +0.000 A 
ATOM      7 CL   UNL     1       3.584   1.036  18.571  0.00  0.00    +0.000 Cl
ATOM      8  C   UNL     1       2.042   2.336  20.340  0.00  0.00    +0.000 A 
ATOM      9  C   UNL     1       1.475   3.445  20.980  0.00  0.00    +0.000 A 
ATOM     10  C   UNL     1       1.803   4.684  20.447  0.00  0.00    +0.000 A 
ATOM     11  O   UNL     1       1.372   5.896  20.888  0.00  0.00    +0.000 OA
ATOM     12  C   UNL     1       1.900   6.841  20.055  0.00  0.00    +0.000 A 
ATOM     13 BR   UNL     1       1.571   8.671  20.255  0.00  0.00    +0.000 Br
ATOM     14  C   UNL     1       2.656   6.246  19.062  0.00  0.00    +0.000 A 
ATOM     15  C   UNL     1       2.643   4.854  19.363  0.00  0.00    +0.000 A 
ATOM     16  C   UNL     1       3.283   6.812  17.836  0.00  0.00    +0.000 C 
ENDROOT
TORSDOF 0
ENDMDL
MODEL 3
REMARK VINA RESULT:      -6.1      2.526      4.240
REMARK  Name = 
REMARK  1 active torsions:
REMARK  status: ('A' for Active; 'I' for Inactive)
REMARK    1  A    between atoms: C_1  and  N_2
REMARK                            x       y       z     vdW  Elec       q    Type
REMARK                         _______ _______ _______ _____ _____    ______ ____
ROOT
ATOM      1  C   UNL     1       6.727   6.240  16.365  0.00  0.00    +0.000 C 
ATOM      2  N   UNL     1       5.875   6.416  17.548  0.00  0.00    +0.000 NA
ATOM      3  C   UNL     1       6.225   5.425  18.585  0.00  0.00    +0.000 C 
ATOM      4  C   UNL     1       5.468   4.069  18.620  0.00  0.00    +0.000 C 
ATOM      5  C   UNL     1       4.152   4.199  19.350  0.00  0.00    +0.000 A 
ATOM      6  C   UNL     1       3.639   3.256  20.261  0.00  0.00    +0.000 A 
ATOM      7 CL   UNL     1       4.430   1.740  20.521  0.00  0.00    +0.000 Cl
ATOM      8  C   UNL     1       2.469   3.508  20.999  0.00  0.00    +0.000 A 
ATOM      9  C   UNL     1       1.763   4.710  20.871  0.00  0.00    +0.000 A 
ATOM     10  C   UNL     1       2.255   5.602  19.929  0.00  0.00    +0.000 A 
ATOM     11  O   UNL     1       1.738   6.822  19.620  0.00  0.00    +0.000 OA
ATOM     12  C   UNL     1       2.503   7.342  18.614  0.00  0.00    +0.000 A 
ATOM     13 BR   UNL     1       2.166   9.011  17.841  0.00  0.00    +0.000 Br
ATOM     14  C   UNL     1       3.501   6.456  18.254  0.00  0.00    +0.000 A 
ATOM     15  C   UNL     1       3.375   5.361  19.155  0.00  0.00    +0.000 A 
ATOM     16  C   UNL     1       4.466   6.475  17.120  0.00  0.00    +0.000 C 
ENDROOT
TORSDOF 0
ENDMDL
MODEL 4
REMARK VINA RESULT:      -6.0      3.118      3.996
REMARK  Name = 
REMARK  1 active torsions:
REMARK  status: ('A' for Active; 'I' for Inactive)
REMARK    1  A    between atoms: C_1  and  N_2
REMARK                            x       y       z     vdW  Elec       q    Type
REMARK                         _______ _______ _______ _____ _____    ______ ____
ROOT
ATOM      1  C   UNL     1       3.709   1.315  18.933  0.00  0.00    +0.000 C 
ATOM      2  N   UNL     1       4.223   2.676  18.729  0.00  0.00    +0.000 NA
ATOM      3  C   UNL     1       3.866   3.536  19.874  0.00  0.00    +0.000 C 
ATOM      4  C   UNL     1       2.548   4.356  19.822  0.00  0.00    +0.000 C 
ATOM      5  C   UNL     1       2.739   5.645  19.058  0.00  0.00    +0.000 A 
ATOM      6  C   UNL     1       2.210   6.893  19.439  0.00  0.00    +0.000 A 
ATOM      7 CL   UNL     1       1.133   7.037  20.786  0.00  0.00    +0.000 Cl
ATOM      8  C   UNL     1       2.538   8.073  18.748  0.00  0.00    +0.000 A 
ATOM      9  C   UNL     1       3.411   8.065  17.654  0.00  0.00    +0.000 A 
ATOM     10  C   UNL     1       3.877   6.818  17.261  0.00  0.00    +0.000 A 
ATOM     11  O   UNL     1       4.721   6.556  16.228  0.00  0.00    +0.000 OA
ATOM     12  C   UNL     1       4.882   5.201  16.170  0.00  0.00    +0.000 A 
ATOM     13 BR   UNL     1       5.953   4.358  14.889  0.00  0.00    +0.000 Br
ATOM     14  C   UNL     1       4.129   4.580  17.147  0.00  0.00    +0.000 A 
ATOM     15  C   UNL     1       3.533   5.637  17.892  0.00  0.00    +0.000 A 
ATOM     16  C   UNL     1       3.829   3.140  17.387  0.00  0.00    +0.000 C 
ENDROOT
TORSDOF 0
ENDMDL
MODEL 5
REMARK VINA RESULT:      -5.8      2.310      3.927
REMARK  Name = 
REMARK  1 active torsions:
REMARK  status: ('A' for Active; 'I' for Inactive)
REMARK    1  A    between atoms: C_1  and  N_2
REMARK                            x       y       z     vdW  Elec       q    Type
REMARK                         _______ _______ _______ _____ _____    ______ ____
ROOT
ATOM      1  C   UNL     1       7.397   6.625  17.472  0.00  0.00    +0.000 C 
ATOM      2  N   UNL     1       6.121   6.373  18.153  0.00  0.00    +0.000 NA
ATOM      3  C   UNL     1       6.124   5.032  18.770  0.00  0.00    +0.000 C 
ATOM      4  C   UNL     1       5.576   3.826  17.959  0.00  0.00    +0.000 C 
ATOM      5  C   UNL     1       4.071   3.744  18.056  0.00  0.00    +0.000 A 
ATOM      6  C   UNL     1       3.339   2.553  18.225  0.00  0.00    +0.000 A 
ATOM      7 CL   UNL     1       4.118   1.009  18.187  0.00  0.00    +0.000 Cl
ATOM      8  C   UNL     1       1.949   2.568  18.437  0.00  0.00    +0.000 A 
ATOM      9  C   UNL     1       1.228   3.766  18.498  0.00  0.00    +0.000 A 
ATOM     10  C   UNL     1       1.959   4.924  18.274  0.00  0.00    +0.000 A 
ATOM     11  O   UNL     1       1.482   6.198  18.273  0.00  0.00    +0.000 OA
ATOM     12  C   UNL     1       2.528   7.022  17.969  0.00  0.00    +0.000 A 
ATOM     13 BR   UNL     1       2.353   8.879  17.834  0.00  0.00    +0.000 Br
ATOM     14  C   UNL     1       3.678   6.287  17.751  0.00  0.00    +0.000 A 
ATOM     15  C   UNL     1       3.317   4.935  18.016  0.00  0.00    +0.000 A 
ATOM     16  C   UNL     1       5.015   6.690  17.232  0.00  0.00    +0.000 C 
ENDROOT
TORSDOF 0
ENDMDL
MODEL 6
REMARK VINA RESULT:      -5.7      3.249      4.691
REMARK  Name = 
REMARK  1 active torsions:
REMARK  status: ('A' for Active; 'I' for Inactive)
REMARK    1  A    between atoms: C_1  and  N_2
REMARK                            x       y       z     vdW  Elec       q    Type
REMARK                         _______ _______ _______ _____ _____    ______ ____
ROOT
ATOM      1  C   UNL     1       6.958   4.615  16.215  0.00  0.00    +0.000 C 
ATOM      2  N   UNL     1       5.652   4.417  16.856  0.00  0.00    +0.000 NA
ATOM      3  C   UNL     1       4.684   5.422  16.373  0.00  0.00    +0.000 C 
ATOM      4  C   UNL     1       4.523   6.753  17.157  0.00  0.00    +0.000 C 
ATOM      5  C   UNL     1       3.588   6.583  18.332  0.00  0.00    +0.000 A 
ATOM      6  C   UNL     1       2.604   7.512  18.719  0.00  0.00    +0.000 A 
ATOM      7 CL   UNL     1       2.474   9.054  17.945  0.00  0.00    +0.000 Cl
ATOM      8  C   UNL     1       1.685   7.226  19.744  0.00  0.00    +0.000 A 
ATOM      9  C   UNL     1       1.699   6.001  20.422  0.00  0.00    +0.000 A 
ATOM     10  C   UNL     1       2.710   5.122  20.063  0.00  0.00    +0.000 A 
ATOM     11  O   UNL     1       2.933   3.886  20.583  0.00  0.00    +0.000 OA
ATOM     12  C   UNL     1       4.051   3.386  19.976  0.00  0.00    +0.000 A 
ATOM     13 BR   UNL     1       4.762   1.705  20.382  0.00  0.00    +0.000 Br
ATOM     14  C   UNL     1       4.567   4.303  19.080  0.00  0.00    +0.000 A 
ATOM     15  C   UNL     1       3.656   5.397  19.092  0.00  0.00    +0.000 A 
ATOM     16  C   UNL     1       5.844   4.311  18.313  0.00  0.00    +0.000 C 
ENDROOT
TORSDOF 0
ENDMDL
MODEL 7
REMARK VINA RESULT:      -5.7      3.301      4.904
REMARK  Name = 
REMARK  1 active torsions:
REMARK  status: ('A' for Active; 'I' for Inactive)
REMARK    1  A    between atoms: C_1  and  N_2
REMARK                            x       y       z     vdW  Elec       q    Type
REMARK                         _______ _______ _______ _____ _____    ______ ____
ROOT
ATOM      1  C   UNL     1       2.949   8.631  18.003  0.00  0.00    +0.000 C 
ATOM      2  N   UNL     1       2.873   7.247  17.520  0.00  0.00    +0.000 NA
ATOM      3  C   UNL     1       1.787   6.522  18.209  0.00  0.00    +0.000 C 
ATOM      4  C   UNL     1       2.111   5.729  19.505  0.00  0.00    +0.000 C 
ATOM      5  C   UNL     1       2.665   4.361  19.181  0.00  0.00    +0.000 A 
ATOM      6  C   UNL     1       2.318   3.173  19.852  0.00  0.00    +0.000 A 
ATOM      7 CL   UNL     1       1.304   3.197  21.253  0.00  0.00    +0.000 Cl
ATOM      8  C   UNL     1       2.776   1.918  19.410  0.00  0.00    +0.000 A 
ATOM      9  C   UNL     1       3.591   1.791  18.279  0.00  0.00    +0.000 A 
ATOM     10  C   UNL     1       3.965   2.978  17.665  0.00  0.00    +0.000 A 
ATOM     11  O   UNL     1       4.753   3.109  16.565  0.00  0.00    +0.000 OA
ATOM     12  C   UNL     1       4.899   4.447  16.329  0.00  0.00    +0.000 A 
ATOM     13 BR   UNL     1       5.922   5.124  14.917  0.00  0.00    +0.000 Br
ATOM     14  C   UNL     1       4.226   5.185  17.284  0.00  0.00    +0.000 A 
ATOM     15  C   UNL     1       3.568   4.227  18.106  0.00  0.00    +0.000 A 
ATOM     16  C   UNL     1       4.218   6.648  17.566  0.00  0.00    +0.000 C 
ENDROOT
TORSDOF 0
ENDMDL
MODEL 8
REMARK VINA RESULT:      -5.2      7.891      9.526
REMARK  Name = 
REMARK  1 active torsions:
REMARK  status: ('A' for Active; 'I' for Inactive)
REMARK    1  A    between atoms: C_1  and  N_2
REMARK                            x       y       z     vdW  Elec       q    Type
REMARK                         _______ _______ _______ _____ _____    ______ ____
ROOT
ATOM      1  C   UNL     1       0.909  11.396  20.684  0.00  0.00    +0.000 C 
ATOM      2  N   UNL     1      -0.538  11.176  20.565  0.00  0.00    +0.000 NA
ATOM      3  C   UNL     1      -0.828  10.264  19.441  0.00  0.00    +0.000 C 
ATOM      4  C   UNL     1      -1.114  10.863  18.037  0.00  0.00    +0.000 C 
ATOM      5  C   UNL     1      -2.557  11.293  17.912  0.00  0.00    +0.000 A 
ATOM      6  C   UNL     1      -3.364  11.085  16.778  0.00  0.00    +0.000 A 
ATOM      7 CL   UNL     1      -2.707  10.427  15.319  0.00  0.00    +0.000 Cl
ATOM      8  C   UNL     1      -4.735  11.396  16.784  0.00  0.00    +0.000 A 
ATOM      9  C   UNL     1      -5.365  11.920  17.919  0.00  0.00    +0.000 A 
ATOM     10  C   UNL     1      -4.540  12.169  19.007  0.00  0.00    +0.000 A 
ATOM     11  O   UNL     1      -4.917  12.681  20.209  0.00  0.00    +0.000 OA
ATOM     12  C   UNL     1      -3.788  12.799  20.970  0.00  0.00    +0.000 A 
ATOM     13 BR   UNL     1      -3.803  13.479  22.712  0.00  0.00    +0.000 Br
ATOM     14  C   UNL     1      -2.677  12.386  20.259  0.00  0.00    +0.000 A 
ATOM     15  C   UNL     1      -3.181  11.916  19.013  0.00  0.00    +0.000 A 
ATOM     16  C   UNL     1      -1.224  12.480  20.570  0.00  0.00    +0.000 C 
ENDROOT
TORSDOF 0
ENDMDL
MODEL 9
REMARK VINA RESULT:      -5.2      8.616     10.295
REMARK  Name = 
REMARK  1 active torsions:
REMARK  status: ('A' for Active; 'I' for Inactive)
REMARK    1  A    between atoms: C_1  and  N_2
REMARK                            x       y       z     vdW  Elec       q    Type
REMARK                         _______ _______ _______ _____ _____    ______ ____
ROOT
ATOM      1  C   UNL     1      -7.222  12.508  17.680  0.00  0.00    +0.000 C 
ATOM      2  N   UNL     1      -6.043  11.666  17.922  0.00  0.00    +0.000 NA
ATOM      3  C   UNL     1      -5.715  11.643  19.361  0.00  0.00    +0.000 C 
ATOM      4  C   UNL     1      -4.708  12.682  19.923  0.00  0.00    +0.000 C 
ATOM      5  C   UNL     1      -3.282  12.231  19.707  0.00  0.00    +0.000 A 
ATOM      6  C   UNL     1      -2.247  12.350  20.654  0.00  0.00    +0.000 A 
ATOM      7 CL   UNL     1      -2.491  13.190  22.147  0.00  0.00    +0.000 Cl
ATOM      8  C   UNL     1      -0.977  11.790  20.429  0.00  0.00    +0.000 A 
ATOM      9  C   UNL     1      -0.684  11.080  19.259  0.00  0.00    +0.000 A 
ATOM     10  C   UNL     1      -1.700  11.021  18.316  0.00  0.00    +0.000 A 
ATOM     11  O   UNL     1      -1.650  10.401  17.107  0.00  0.00    +0.000 OA
ATOM     12  C   UNL     1      -2.846  10.627  16.486  0.00  0.00    +0.000 A 
ATOM     13 BR   UNL     1      -3.243   9.978  14.778  0.00  0.00    +0.000 Br
ATOM     14  C   UNL     1      -3.665  11.408  17.279  0.00  0.00    +0.000 A 
ATOM     15  C   UNL     1      -2.942  11.603  18.490  0.00  0.00    +0.000 A 
ATOM     16  C   UNL     1      -4.971  12.064  16.992  0.00  0.00    +0.000 C 
ENDROOT
TORSDOF 0
ENDMDL
