MODEL 1
REMARK VINA RESULT:      -7.5      0.000      0.000
REMARK  Name = 
REMARK  6 active torsions:
REMARK  status: ('A' for Active; 'I' for Inactive)
REMARK    1  A    between atoms: C_1  and  C_2
REMARK    2  A    between atoms: C_5  and  C_6
REMARK    3  A    between atoms: C_16  and  C_17
REMARK    4  A    between atoms: C_18  and  N_19
REMARK    5  A    between atoms: C_28  and  C_29
REMARK    6  A    between atoms: C_28  and  C_30
REMARK                            x       y       z     vdW  Elec       q    Type
REMARK                         _______ _______ _______ _____ _____    ______ ____
ROOT
ATOM      1  C   UNL     1      -3.937  13.670  21.864  0.00  0.00    +0.000 A 
ATOM      2  C   UNL     1      -5.302  13.976  21.651  0.00  0.00    +0.000 A 
ATOM      3  C   UNL     1      -5.981  13.547  20.504  0.00  0.00    +0.000 A 
ATOM      4  C   UNL     1      -5.286  12.806  19.567  0.00  0.00    +0.000 A 
ATOM      5  C   UNL     1      -3.940  12.482  19.777  0.00  0.00    +0.000 A 
ATOM      6  C   UNL     1      -3.266  12.892  20.910  0.00  0.00    +0.000 A 
ATOM      7  N   UNL     1      -3.455  11.738  18.696  0.00  0.00    +0.000 N 
ATOM      8  C   UNL     1      -2.104  11.347  18.580  0.00  0.00    +0.000 A 
ATOM      9  C   UNL     1      -1.792  10.058  18.172  0.00  0.00    +0.000 A 
ATOM     10  N   UNL     1      -0.525   9.610  18.029  0.00  0.00    +0.000 NA
ATOM     11  C   UNL     1       0.462  10.511  18.294  0.00  0.00    +0.000 A 
ATOM     12  C   UNL     1       1.848   9.955  18.237  0.00  0.00    +0.000 C 
ATOM     13  C   UNL     1       0.191  11.830  18.715  0.00  0.00    +0.000 A 
ATOM     14  N   UNL     1      -1.106  12.228  18.870  0.00  0.00    +0.000 NA
ATOM     15  C   UNL     1      -4.409  11.654  17.663  0.00  0.00    +0.000 C 
ATOM     16  O   UNL     1      -4.256  11.231  16.542  0.00  0.00    +0.000 OA
ATOM     17  C   UNL     1      -5.740  12.258  18.231  0.00  0.00    +0.000 C 
ATOM     18  C   UNL     1      -6.305  13.328  17.292  0.00  0.00    +0.000 C 
ATOM     19  C   UNL     1      -6.784  11.155  18.422  0.00  0.00    +0.000 C 
ENDROOT
BRANCH   1  24
ATOM     20  C   UNL     1      -1.120  15.673  26.385  0.00  0.00    +0.000 C 
ATOM     21  C   UNL     1      -1.865  15.139  25.203  0.00  0.00    +0.000 A 
ATOM     22  N   UNL     1      -3.204  15.262  25.197  0.00  0.00    +0.000 NA
ATOM     23  C   UNL     1      -3.844  14.770  24.115  0.00  0.00    +0.000 A 
ATOM     24  C   UNL     1      -3.216  14.168  23.039  0.00  0.00    +0.000 A 
ATOM     25  C   UNL     1      -1.841  14.102  23.168  0.00  0.00    +0.000 A 
ATOM     26  N   UNL     1      -1.143  14.570  24.223  0.00  0.00    +0.000 NA
ENDBRANCH   1  24
BRANCH  13  27
ATOM     27  N   UNL     1       1.173  12.741  19.024  0.00  0.00    +0.000 N 
ATOM     28  C   UNL     1       1.694  12.858  20.386  0.00  0.00    +0.000 C 
ATOM     29  C   UNL     1       1.713  14.337  20.804  0.00  0.00    +0.000 C 
ATOM     30  O   UNL     1       2.430  15.149  19.852  0.00  0.00    +0.000 OA
ATOM     31  C   UNL     1       1.818  15.059  18.566  0.00  0.00    +0.000 C 
ATOM     32  C   UNL     1       1.838  13.619  18.072  0.00  0.00    +0.000 C 
ENDBRANCH  13  27
TORSDOF 2
ENDMDL
MODEL 2
REMARK VINA RESULT:      -7.4      0.539      1.013
REMARK  Name = 
REMARK  6 active torsions:
REMARK  status: ('A' for Active; 'I' for Inactive)
REMARK    1  A    between atoms: C_1  and  C_2
REMARK    2  A    between atoms: C_5  and  C_6
REMARK    3  A    between atoms: C_16  and  C_17
REMARK    4  A    between atoms: C_18  and  N_19
REMARK    5  A    between atoms: C_28  and  C_29
REMARK    6  A    between atoms: C_28  and  C_30
REMARK                            x       y       z     vdW  Elec       q    Type
REMARK                         _______ _______ _______ _____ _____    ______ ____
ROOT
ATOM      1  C   UNL     1      -3.912  13.666  21.991  0.00  0.00    +0.000 A 
ATOM      2  C   UNL     1      -5.301  13.861  21.810  0.00  0.00    +0.000 A 
ATOM      3  C   UNL     1      -5.970  13.377  20.678  0.00  0.00    +0.000 A 
ATOM      4  C   UNL     1      -5.238  12.694  19.724  0.00  0.00    +0.000 A 
ATOM      5  C   UNL     1      -3.867  12.479  19.903  0.00  0.00    +0.000 A 
ATOM      6  C   UNL     1      -3.202  12.943  21.020  0.00  0.00    +0.000 A 
ATOM      7  N   UNL     1      -3.348  11.776  18.810  0.00  0.00    +0.000 N 
ATOM      8  C   UNL     1      -1.974  11.495  18.663  0.00  0.00    +0.000 A 
ATOM      9  C   UNL     1      -1.568  10.235  18.247  0.00  0.00    +0.000 A 
ATOM     10  N   UNL     1      -0.272   9.890  18.074  0.00  0.00    +0.000 NA
ATOM     11  C   UNL     1       0.644  10.868  18.317  0.00  0.00    +0.000 A 
ATOM     12  C   UNL     1       2.069  10.425  18.228  0.00  0.00    +0.000 C 
ATOM     13  C   UNL     1       0.278  12.161  18.746  0.00  0.00    +0.000 A 
ATOM     14  N   UNL     1      -1.043  12.453  18.931  0.00  0.00    +0.000 NA
ATOM     15  C   UNL     1      -4.316  11.615  17.799  0.00  0.00    +0.000 C 
ATOM     16  O   UNL     1      -4.155  11.205  16.675  0.00  0.00    +0.000 OA
ATOM     17  C   UNL     1      -5.678  12.110  18.399  0.00  0.00    +0.000 C 
ATOM     18  C   UNL     1      -6.349  13.130  17.474  0.00  0.00    +0.000 C 
ATOM     19  C   UNL     1      -6.625  10.926  18.613  0.00  0.00    +0.000 C 
ENDROOT
BRANCH   1  24
ATOM     20  C   UNL     1      -1.151  15.888  26.444  0.00  0.00    +0.000 C 
ATOM     21  C   UNL     1      -1.882  15.297  25.281  0.00  0.00    +0.000 A 
ATOM     22  N   UNL     1      -3.215  15.459  25.228  0.00  0.00    +0.000 NA
ATOM     23  C   UNL     1      -3.842  14.913  24.164  0.00  0.00    +0.000 A 
ATOM     24  C   UNL     1      -3.206  14.221  23.149  0.00  0.00    +0.000 A 
ATOM     25  C   UNL     1      -1.838  14.123  23.322  0.00  0.00    +0.000 A 
ATOM     26  N   UNL     1      -1.153  14.641  24.362  0.00  0.00    +0.000 NA
ENDBRANCH   1  24
BRANCH  13  27
ATOM     27  N   UNL     1       1.191  13.149  19.033  0.00  0.00    +0.000 N 
ATOM     28  C   UNL     1       1.940  13.816  17.968  0.00  0.00    +0.000 C 
ATOM     29  C   UNL     1       3.433  13.845  18.329  0.00  0.00    +0.000 C 
ATOM     30  O   UNL     1       3.654  14.429  19.629  0.00  0.00    +0.000 OA
ATOM     31  C   UNL     1       2.968  13.679  20.631  0.00  0.00    +0.000 C 
ATOM     32  C   UNL     1       1.471  13.680  20.359  0.00  0.00    +0.000 C 
ENDBRANCH  13  27
TORSDOF 2
ENDMDL
MODEL 3
REMARK VINA RESULT:      -7.1      6.168     10.747
REMARK  Name = 
REMARK  6 active torsions:
REMARK  status: ('A' for Active; 'I' for Inactive)
REMARK    1  A    between atoms: C_1  and  C_2
REMARK    2  A    between atoms: C_5  and  C_6
REMARK    3  A    between atoms: C_16  and  C_17
REMARK    4  A    between atoms: C_18  and  N_19
REMARK    5  A    between atoms: C_28  and  C_29
REMARK    6  A    between atoms: C_28  and  C_30
REMARK                            x       y       z     vdW  Elec       q    Type
REMARK                         _______ _______ _______ _____ _____    ______ ____
ROOT
ATOM      1  C   UNL     1       8.246  12.989  22.377  0.00  0.00    +0.000 A 
ATOM      2  C   UNL     1       9.598  12.663  22.116  0.00  0.00    +0.000 A 
ATOM      3  C   UNL     1      10.268  13.154  20.988  0.00  0.00    +0.000 A 
ATOM      4  C   UNL     1       9.576  13.978  20.120  0.00  0.00    +0.000 A 
ATOM      5  C   UNL     1       8.244  14.322  20.379  0.00  0.00    +0.000 A 
ATOM      6  C   UNL     1       7.580  13.850  21.493  0.00  0.00    +0.000 A 
ATOM      7  N   UNL     1       7.761  15.153  19.363  0.00  0.00    +0.000 N 
ATOM      8  C   UNL     1       6.420  15.587  19.302  0.00  0.00    +0.000 A 
ATOM      9  C   UNL     1       6.136  16.910  18.993  0.00  0.00    +0.000 A 
ATOM     10  N   UNL     1       4.879  17.400  18.906  0.00  0.00    +0.000 NA
ATOM     11  C   UNL     1       3.873  16.508  19.127  0.00  0.00    +0.000 A 
ATOM     12  C   UNL     1       2.501  17.104  19.137  0.00  0.00    +0.000 C 
ATOM     13  C   UNL     1       4.115  15.156  19.449  0.00  0.00    +0.000 A 
ATOM     14  N   UNL     1       5.403  14.715  19.549  0.00  0.00    +0.000 NA
ATOM     15  C   UNL     1       8.698  15.285  18.319  0.00  0.00    +0.000 C 
ATOM     16  O   UNL     1       8.536  15.790  17.235  0.00  0.00    +0.000 OA
ATOM     17  C   UNL     1      10.022  14.607  18.818  0.00  0.00    +0.000 C 
ATOM     18  C   UNL     1      10.540  13.593  17.794  0.00  0.00    +0.000 C 
ATOM     19  C   UNL     1      11.099  15.667  19.065  0.00  0.00    +0.000 C 
ENDROOT
BRANCH   1  24
ATOM     20  C   UNL     1       5.498  10.734  26.821  0.00  0.00    +0.000 C 
ATOM     21  C   UNL     1       6.220  11.337  25.658  0.00  0.00    +0.000 A 
ATOM     22  N   UNL     1       7.461  11.811  25.866  0.00  0.00    +0.000 NA
ATOM     23  C   UNL     1       8.083  12.347  24.795  0.00  0.00    +0.000 A 
ATOM     24  C   UNL     1       7.533  12.428  23.528  0.00  0.00    +0.000 A 
ATOM     25  C   UNL     1       6.255  11.908  23.447  0.00  0.00    +0.000 A 
ATOM     26  N   UNL     1       5.577  11.363  24.478  0.00  0.00    +0.000 NA
ENDBRANCH   1  24
BRANCH  13  27
ATOM     27  N   UNL     1       3.113  14.252  19.711  0.00  0.00    +0.000 N 
ATOM     28  C   UNL     1       2.510  13.461  18.638  0.00  0.00    +0.000 C 
ATOM     29  C   UNL     1       0.978  13.534  18.744  0.00  0.00    +0.000 C 
ATOM     30  O   UNL     1       0.517  13.154  20.056  0.00  0.00    +0.000 OA
ATOM     31  C   UNL     1       1.073  14.020  21.045  0.00  0.00    +0.000 C 
ATOM     32  C   UNL     1       2.592  13.930  21.032  0.00  0.00    +0.000 C 
ENDBRANCH  13  27
TORSDOF 2
ENDMDL
MODEL 4
REMARK VINA RESULT:      -6.9      2.460      7.202
REMARK  Name = 
REMARK  6 active torsions:
REMARK  status: ('A' for Active; 'I' for Inactive)
REMARK    1  A    between atoms: C_1  and  C_2
REMARK    2  A    between atoms: C_5  and  C_6
REMARK    3  A    between atoms: C_16  and  C_17
REMARK    4  A    between atoms: C_18  and  N_19
REMARK    5  A    between atoms: C_28  and  C_29
REMARK    6  A    between atoms: C_28  and  C_30
REMARK                            x       y       z     vdW  Elec       q    Type
REMARK                         _______ _______ _______ _____ _____    ______ ____
ROOT
ATOM      1  C   UNL     1      -0.485  13.118  21.357  0.00  0.00    +0.000 A 
ATOM      2  C   UNL     1       0.297  14.141  21.941  0.00  0.00    +0.000 A 
ATOM      3  C   UNL     1      -0.267  15.111  22.781  0.00  0.00    +0.000 A 
ATOM      4  C   UNL     1      -1.625  15.050  23.034  0.00  0.00    +0.000 A 
ATOM      5  C   UNL     1      -2.405  14.030  22.476  0.00  0.00    +0.000 A 
ATOM      6  C   UNL     1      -1.854  13.066  21.656  0.00  0.00    +0.000 A 
ATOM      7  N   UNL     1      -3.739  14.182  22.868  0.00  0.00    +0.000 N 
ATOM      8  C   UNL     1      -4.778  13.358  22.387  0.00  0.00    +0.000 A 
ATOM      9  C   UNL     1      -5.737  12.874  23.264  0.00  0.00    +0.000 A 
ATOM     10  N   UNL     1      -6.767  12.087  22.879  0.00  0.00    +0.000 NA
ATOM     11  C   UNL     1      -6.832  11.795  21.550  0.00  0.00    +0.000 A 
ATOM     12  C   UNL     1      -7.913  10.832  21.175  0.00  0.00    +0.000 C 
ATOM     13  C   UNL     1      -5.877  12.261  20.623  0.00  0.00    +0.000 A 
ATOM     14  N   UNL     1      -4.841  13.033  21.065  0.00  0.00    +0.000 NA
ATOM     15  C   UNL     1      -3.929  15.380  23.586  0.00  0.00    +0.000 C 
ATOM     16  O   UNL     1      -4.972  15.888  23.922  0.00  0.00    +0.000 OA
ATOM     17  C   UNL     1      -2.501  15.975  23.850  0.00  0.00    +0.000 C 
ATOM     18  C   UNL     1      -2.425  17.439  23.406  0.00  0.00    +0.000 C 
ATOM     19  C   UNL     1      -2.156  15.883  25.338  0.00  0.00    +0.000 C 
ENDROOT
BRANCH   1  24
ATOM     20  C   UNL     1       1.854   9.315  17.828  0.00  0.00    +0.000 C 
ATOM     21  C   UNL     1       1.229  10.313  18.751  0.00  0.00    +0.000 A 
ATOM     22  N   UNL     1       0.326   9.866  19.641  0.00  0.00    +0.000 NA
ATOM     23  C   UNL     1      -0.217  10.793  20.458  0.00  0.00    +0.000 A 
ATOM     24  C   UNL     1       0.100  12.140  20.436  0.00  0.00    +0.000 A 
ATOM     25  C   UNL     1       1.039  12.470  19.476  0.00  0.00    +0.000 A 
ATOM     26  N   UNL     1       1.615  11.594  18.628  0.00  0.00    +0.000 NA
ENDBRANCH   1  24
BRANCH  13  27
ATOM     27  N   UNL     1      -5.906  11.946  19.285  0.00  0.00    +0.000 N 
ATOM     28  C   UNL     1      -4.997  10.945  18.726  0.00  0.00    +0.000 C 
ATOM     29  C   UNL     1      -4.329  11.507  17.461  0.00  0.00    +0.000 C 
ATOM     30  O   UNL     1      -5.303  11.981  16.511  0.00  0.00    +0.000 OA
ATOM     31  C   UNL     1      -6.097  13.016  17.091  0.00  0.00    +0.000 C 
ATOM     32  C   UNL     1      -6.840  12.490  18.311  0.00  0.00    +0.000 C 
ENDBRANCH  13  27
TORSDOF 2
ENDMDL
MODEL 5
REMARK VINA RESULT:      -6.9      3.615      6.468
REMARK  Name = 
REMARK  6 active torsions:
REMARK  status: ('A' for Active; 'I' for Inactive)
REMARK    1  A    between atoms: C_1  and  C_2
REMARK    2  A    between atoms: C_5  and  C_6
REMARK    3  A    between atoms: C_16  and  C_17
REMARK    4  A    between atoms: C_18  and  N_19
REMARK    5  A    between atoms: C_28  and  C_29
REMARK    6  A    between atoms: C_28  and  C_30
REMARK                            x       y       z     vdW  Elec       q    Type
REMARK                         _______ _______ _______ _____ _____    ______ ____
ROOT
ATOM      1  C   UNL     1      -0.291  11.617  21.072  0.00  0.00    +0.000 A 
ATOM      2  C   UNL     1      -0.970  11.212  22.245  0.00  0.00    +0.000 A 
ATOM      3  C   UNL     1      -1.666  12.128  23.045  0.00  0.00    +0.000 A 
ATOM      4  C   UNL     1      -1.679  13.456  22.663  0.00  0.00    +0.000 A 
ATOM      5  C   UNL     1      -1.027  13.864  21.493  0.00  0.00    +0.000 A 
ATOM      6  C   UNL     1      -0.348  12.966  20.694  0.00  0.00    +0.000 A 
ATOM      7  N   UNL     1      -1.174  15.245  21.322  0.00  0.00    +0.000 N 
ATOM      8  C   UNL     1      -0.545  15.959  20.280  0.00  0.00    +0.000 A 
ATOM      9  C   UNL     1      -1.257  16.918  19.574  0.00  0.00    +0.000 A 
ATOM     10  N   UNL     1      -0.723  17.649  18.570  0.00  0.00    +0.000 NA
ATOM     11  C   UNL     1       0.586  17.407  18.284  0.00  0.00    +0.000 A 
ATOM     12  C   UNL     1       1.114  18.148  17.097  0.00  0.00    +0.000 C 
ATOM     13  C   UNL     1       1.346  16.439  18.972  0.00  0.00    +0.000 A 
ATOM     14  N   UNL     1       0.756  15.707  19.962  0.00  0.00    +0.000 NA
ATOM     15  C   UNL     1      -1.808  15.834  22.433  0.00  0.00    +0.000 C 
ATOM     16  O   UNL     1      -1.940  17.009  22.677  0.00  0.00    +0.000 OA
ATOM     17  C   UNL     1      -2.298  14.656  23.346  0.00  0.00    +0.000 C 
ATOM     18  C   UNL     1      -1.828  14.847  24.791  0.00  0.00    +0.000 C 
ATOM     19  C   UNL     1      -3.827  14.568  23.323  0.00  0.00    +0.000 C 
ENDROOT
BRANCH   1  24
ATOM     20  C   UNL     1       2.637   7.881  17.932  0.00  0.00    +0.000 C 
ATOM     21  C   UNL     1       1.876   8.869  18.757  0.00  0.00    +0.000 A 
ATOM     22  N   UNL     1       1.611  10.069  18.214  0.00  0.00    +0.000 NA
ATOM     23  C   UNL     1       0.922  10.936  18.986  0.00  0.00    +0.000 A 
ATOM     24  C   UNL     1       0.481  10.665  20.269  0.00  0.00    +0.000 A 
ATOM     25  C   UNL     1       0.819   9.399  20.712  0.00  0.00    +0.000 A 
ATOM     26  N   UNL     1       1.508   8.489  19.993  0.00  0.00    +0.000 NA
ENDBRANCH   1  24
BRANCH  13  27
ATOM     27  N   UNL     1       2.658  16.155  18.672  0.00  0.00    +0.000 N 
ATOM     28  C   UNL     1       3.002  15.119  17.698  0.00  0.00    +0.000 C 
ATOM     29  C   UNL     1       4.077  14.194  18.289  0.00  0.00    +0.000 C 
ATOM     30  O   UNL     1       5.222  14.937  18.754  0.00  0.00    +0.000 OA
ATOM     31  C   UNL     1       4.831  15.867  19.764  0.00  0.00    +0.000 C 
ATOM     32  C   UNL     1       3.816  16.855  19.208  0.00  0.00    +0.000 C 
ENDBRANCH  13  27
TORSDOF 2
ENDMDL
MODEL 6
REMARK VINA RESULT:      -6.8      3.681      6.367
REMARK  Name = 
REMARK  6 active torsions:
REMARK  status: ('A' for Active; 'I' for Inactive)
REMARK    1  A    between atoms: C_1  and  C_2
REMARK    2  A    between atoms: C_5  and  C_6
REMARK    3  A    between atoms: C_16  and  C_17
REMARK    4  A    between atoms: C_18  and  N_19
REMARK    5  A    between atoms: C_28  and  C_29
REMARK    6  A    between atoms: C_28  and  C_30
REMARK                            x       y       z     vdW  Elec       q    Type
REMARK                         _______ _______ _______ _____ _____    ______ ____
ROOT
ATOM      1  C   UNL     1      -0.309  11.192  21.608  0.00  0.00    +0.000 A 
ATOM      2  C   UNL     1      -1.198  10.974  22.686  0.00  0.00    +0.000 A 
ATOM      3  C   UNL     1      -1.878  12.031  23.305  0.00  0.00    +0.000 A 
ATOM      4  C   UNL     1      -1.662  13.314  22.836  0.00  0.00    +0.000 A 
ATOM      5  C   UNL     1      -0.798  13.538  21.757  0.00  0.00    +0.000 A 
ATOM      6  C   UNL     1      -0.133  12.500  21.136  0.00  0.00    +0.000 A 
ATOM      7  N   UNL     1      -0.738  14.907  21.472  0.00  0.00    +0.000 N 
ATOM      8  C   UNL     1       0.124  15.448  20.495  0.00  0.00    +0.000 A 
ATOM      9  C   UNL     1      -0.346  16.421  19.624  0.00  0.00    +0.000 A 
ATOM     10  N   UNL     1       0.419  16.994  18.667  0.00  0.00    +0.000 NA
ATOM     11  C   UNL     1       1.713  16.574  18.606  0.00  0.00    +0.000 A 
ATOM     12  C   UNL     1       2.500  17.142  17.468  0.00  0.00    +0.000 C 
ATOM     13  C   UNL     1       2.232  15.585  19.467  0.00  0.00    +0.000 A 
ATOM     14  N   UNL     1       1.413  15.018  20.401  0.00  0.00    +0.000 NA
ATOM     15  C   UNL     1      -1.445  15.661  22.429  0.00  0.00    +0.000 C 
ATOM     16  O   UNL     1      -1.456  16.860  22.570  0.00  0.00    +0.000 OA
ATOM     17  C   UNL     1      -2.212  14.633  23.333  0.00  0.00    +0.000 C 
ATOM     18  C   UNL     1      -1.936  14.891  24.817  0.00  0.00    +0.000 C 
ATOM     19  C   UNL     1      -3.719  14.726  23.078  0.00  0.00    +0.000 C 
ENDROOT
BRANCH   1  24
ATOM     20  C   UNL     1       2.533   6.866  19.241  0.00  0.00    +0.000 C 
ATOM     21  C   UNL     1       1.794   8.009  19.861  0.00  0.00    +0.000 A 
ATOM     22  N   UNL     1       1.484   9.056  19.077  0.00  0.00    +0.000 NA
ATOM     23  C   UNL     1       0.818  10.070  19.670  0.00  0.00    +0.000 A 
ATOM     24  C   UNL     1       0.441  10.089  21.000  0.00  0.00    +0.000 A 
ATOM     25  C   UNL     1       0.820   8.956  21.697  0.00  0.00    +0.000 A 
ATOM     26  N   UNL     1       1.490   7.912  21.167  0.00  0.00    +0.000 NA
ENDBRANCH   1  24
BRANCH  13  27
ATOM     27  N   UNL     1       3.525  15.123  19.395  0.00  0.00    +0.000 N 
ATOM     28  C   UNL     1       4.512  15.479  20.414  0.00  0.00    +0.000 C 
ATOM     29  C   UNL     1       5.803  15.961  19.733  0.00  0.00    +0.000 C 
ATOM     30  O   UNL     1       6.295  14.996  18.781  0.00  0.00    +0.000 OA
ATOM     31  C   UNL     1       5.318  14.761  17.767  0.00  0.00    +0.000 C 
ATOM     32  C   UNL     1       4.039  14.212  18.383  0.00  0.00    +0.000 C 
ENDBRANCH  13  27
TORSDOF 2
ENDMDL
MODEL 7
REMARK VINA RESULT:      -6.7      5.632     10.163
REMARK  Name = 
REMARK  6 active torsions:
REMARK  status: ('A' for Active; 'I' for Inactive)
REMARK    1  A    between atoms: C_1  and  C_2
REMARK    2  A    between atoms: C_5  and  C_6
REMARK    3  A    between atoms: C_16  and  C_17
REMARK    4  A    between atoms: C_18  and  N_19
REMARK    5  A    between atoms: C_28  and  C_29
REMARK    6  A    between atoms: C_28  and  C_30
REMARK                            x       y       z     vdW  Elec       q    Type
REMARK                         _______ _______ _______ _____ _____    ______ ____
ROOT
ATOM      1  C   UNL     1       7.429  13.409  22.949  0.00  0.00    +0.000 A 
ATOM      2  C   UNL     1       8.812  13.139  22.831  0.00  0.00    +0.000 A 
ATOM      3  C   UNL     1       9.552  13.560  21.718  0.00  0.00    +0.000 A 
ATOM      4  C   UNL     1       8.896  14.256  20.719  0.00  0.00    +0.000 A 
ATOM      5  C   UNL     1       7.532  14.545  20.835  0.00  0.00    +0.000 A 
ATOM      6  C   UNL     1       6.799  14.143  21.934  0.00  0.00    +0.000 A 
ATOM      7  N   UNL     1       7.096  15.247  19.706  0.00  0.00    +0.000 N 
ATOM      8  C   UNL     1       5.745  15.594  19.494  0.00  0.00    +0.000 A 
ATOM      9  C   UNL     1       5.423  16.863  19.034  0.00  0.00    +0.000 A 
ATOM     10  N   UNL     1       4.155  17.269  18.798  0.00  0.00    +0.000 NA
ATOM     11  C   UNL     1       3.180  16.345  19.024  0.00  0.00    +0.000 A 
ATOM     12  C   UNL     1       1.784  16.858  18.864  0.00  0.00    +0.000 C 
ATOM     13  C   UNL     1       3.460  15.046  19.497  0.00  0.00    +0.000 A 
ATOM     14  N   UNL     1       4.755  14.691  19.744  0.00  0.00    +0.000 NA
ATOM     15  C   UNL     1       8.112  15.333  18.734  0.00  0.00    +0.000 C 
ATOM     16  O   UNL     1       8.018  15.723  17.594  0.00  0.00    +0.000 OA
ATOM     17  C   UNL     1       9.420  14.784  19.402  0.00  0.00    +0.000 C 
ATOM     18  C   UNL     1      10.074  13.709  18.528  0.00  0.00    +0.000 C 
ATOM     19  C   UNL     1      10.418  15.923  19.628  0.00  0.00    +0.000 C 
ENDROOT
BRANCH   1  24
ATOM     20  C   UNL     1       4.329  11.522  27.333  0.00  0.00    +0.000 C 
ATOM     21  C   UNL     1       5.153  12.013  26.185  0.00  0.00    +0.000 A 
ATOM     22  N   UNL     1       5.678  11.098  25.352  0.00  0.00    +0.000 NA
ATOM     23  C   UNL     1       6.415  11.577  24.327  0.00  0.00    +0.000 A 
ATOM     24  C   UNL     1       6.648  12.919  24.089  0.00  0.00    +0.000 A 
ATOM     25  C   UNL     1       6.056  13.756  25.017  0.00  0.00    +0.000 A 
ATOM     26  N   UNL     1       5.313  13.342  26.064  0.00  0.00    +0.000 NA
ENDBRANCH   1  24
BRANCH  13  27
ATOM     27  N   UNL     1       2.487  14.113  19.766  0.00  0.00    +0.000 N 
ATOM     28  C   UNL     1       2.025  13.184  18.735  0.00  0.00    +0.000 C 
ATOM     29  C   UNL     1       0.489  13.175  18.700  0.00  0.00    +0.000 C 
ATOM     30  O   UNL     1      -0.071  12.901  20.000  0.00  0.00    +0.000 OA
ATOM     31  C   UNL     1       0.347  13.893  20.938  0.00  0.00    +0.000 C 
ATOM     32  C   UNL     1       1.864  13.894  21.064  0.00  0.00    +0.000 C 
ENDBRANCH  13  27
TORSDOF 2
ENDMDL
MODEL 8
REMARK VINA RESULT:      -6.6      3.644      6.106
REMARK  Name = 
REMARK  6 active torsions:
REMARK  status: ('A' for Active; 'I' for Inactive)
REMARK    1  A    between atoms: C_1  and  C_2
REMARK    2  A    between atoms: C_5  and  C_6
REMARK    3  A    between atoms: C_16  and  C_17
REMARK    4  A    between atoms: C_18  and  N_19
REMARK    5  A    between atoms: C_28  and  C_29
REMARK    6  A    between atoms: C_28  and  C_30
REMARK                            x       y       z     vdW  Elec       q    Type
REMARK                         _______ _______ _______ _____ _____    ______ ____
ROOT
ATOM      1  C   UNL     1      -0.898  11.631  21.916  0.00  0.00    +0.000 A 
ATOM      2  C   UNL     1      -1.757  11.405  23.017  0.00  0.00    +0.000 A 
ATOM      3  C   UNL     1      -2.477  12.448  23.614  0.00  0.00    +0.000 A 
ATOM      4  C   UNL     1      -2.335  13.724  23.099  0.00  0.00    +0.000 A 
ATOM      5  C   UNL     1      -1.502  13.954  21.997  0.00  0.00    +0.000 A 
ATOM      6  C   UNL     1      -0.797  12.930  21.398  0.00  0.00    +0.000 A 
ATOM      7  N   UNL     1      -1.516  15.313  21.666  0.00  0.00    +0.000 N 
ATOM      8  C   UNL     1      -0.700  15.863  20.656  0.00  0.00    +0.000 A 
ATOM      9  C   UNL     1      -1.233  16.781  19.762  0.00  0.00    +0.000 A 
ATOM     10  N   UNL     1      -0.515  17.359  18.773  0.00  0.00    +0.000 NA
ATOM     11  C   UNL     1       0.798  17.002  18.700  0.00  0.00    +0.000 A 
ATOM     12  C   UNL     1       1.536  17.569  17.530  0.00  0.00    +0.000 C 
ATOM     13  C   UNL     1       1.381  16.070  19.584  0.00  0.00    +0.000 A 
ATOM     14  N   UNL     1       0.608  15.494  20.551  0.00  0.00    +0.000 NA
ATOM     15  C   UNL     1      -2.243  16.063  22.611  0.00  0.00    +0.000 C 
ATOM     16  O   UNL     1      -2.312  17.265  22.712  0.00  0.00    +0.000 OA
ATOM     17  C   UNL     1      -2.942  15.030  23.563  0.00  0.00    +0.000 C 
ATOM     18  C   UNL     1      -2.653  15.352  25.032  0.00  0.00    +0.000 C 
ATOM     19  C   UNL     1      -4.456  15.039  23.334  0.00  0.00    +0.000 C 
ENDROOT
BRANCH   1  24
ATOM     20  C   UNL     1       2.251   7.469  19.647  0.00  0.00    +0.000 C 
ATOM     21  C   UNL     1       1.416   8.555  20.246  0.00  0.00    +0.000 A 
ATOM     22  N   UNL     1       1.170   8.503  21.566  0.00  0.00    +0.000 NA
ATOM     23  C   UNL     1       0.413   9.500  22.073  0.00  0.00    +0.000 A 
ATOM     24  C   UNL     1      -0.105  10.547  21.331  0.00  0.00    +0.000 A 
ATOM     25  C   UNL     1       0.219  10.484  19.988  0.00  0.00    +0.000 A 
ATOM     26  N   UNL     1       0.965   9.515  19.419  0.00  0.00    +0.000 NA
ENDBRANCH   1  24
BRANCH  13  27
ATOM     27  N   UNL     1       2.694  15.670  19.502  0.00  0.00    +0.000 N 
ATOM     28  C   UNL     1       3.737  16.343  20.276  0.00  0.00    +0.000 C 
ATOM     29  C   UNL     1       4.922  16.681  19.357  0.00  0.00    +0.000 C 
ATOM     30  O   UNL     1       5.400  15.516  18.655  0.00  0.00    +0.000 OA
ATOM     31  C   UNL     1       4.358  14.962  17.851  0.00  0.00    +0.000 C 
ATOM     32  C   UNL     1       3.185  14.541  18.725  0.00  0.00    +0.000 C 
ENDBRANCH  13  27
TORSDOF 2
ENDMDL
MODEL 9
REMARK VINA RESULT:      -6.6      3.573      5.728
REMARK  Name = 
REMARK  6 active torsions:
REMARK  status: ('A' for Active; 'I' for Inactive)
REMARK    1  A    between atoms: C_1  and  C_2
REMARK    2  A    between atoms: C_5  and  C_6
REMARK    3  A    between atoms: C_16  and  C_17
REMARK    4  A    between atoms: C_18  and  N_19
REMARK    5  A    between atoms: C_28  and  C_29
REMARK    6  A    between atoms: C_28  and  C_30
REMARK                            x       y       z     vdW  Elec       q    Type
REMARK                         _______ _______ _______ _____ _____    ______ ____
ROOT
ATOM      1  C   UNL     1      -2.187  12.532  22.613  0.00  0.00    +0.000 A 
ATOM      2  C   UNL     1      -3.087  12.440  23.700  0.00  0.00    +0.000 A 
ATOM      3  C   UNL     1      -3.867  13.532  24.104  0.00  0.00    +0.000 A 
ATOM      4  C   UNL     1      -3.740  14.721  23.410  0.00  0.00    +0.000 A 
ATOM      5  C   UNL     1      -2.866  14.817  22.321  0.00  0.00    +0.000 A 
ATOM      6  C   UNL     1      -2.102  13.743  21.911  0.00  0.00    +0.000 A 
ATOM      7  N   UNL     1      -2.906  16.110  21.790  0.00  0.00    +0.000 N 
ATOM      8  C   UNL     1      -2.062  16.535  20.743  0.00  0.00    +0.000 A 
ATOM      9  C   UNL     1      -2.582  17.290  19.701  0.00  0.00    +0.000 A 
ATOM     10  N   UNL     1      -1.838  17.741  18.666  0.00  0.00    +0.000 NA
ATOM     11  C   UNL     1      -0.513  17.427  18.702  0.00  0.00    +0.000 A 
ATOM     12  C   UNL     1       0.260  17.842  17.490  0.00  0.00    +0.000 C 
ATOM     13  C   UNL     1       0.058  16.659  19.738  0.00  0.00    +0.000 A 
ATOM     14  N   UNL     1      -0.740  16.204  20.748  0.00  0.00    +0.000 NA
ATOM     15  C   UNL     1      -3.699  16.964  22.582  0.00  0.00    +0.000 C 
ATOM     16  O   UNL     1      -3.811  18.164  22.499  0.00  0.00    +0.000 OA
ATOM     17  C   UNL     1      -4.409  16.058  23.648  0.00  0.00    +0.000 C 
ATOM     18  C   UNL     1      -4.198  16.604  25.063  0.00  0.00    +0.000 C 
ATOM     19  C   UNL     1      -5.910  15.976  23.359  0.00  0.00    +0.000 C 
ENDROOT
BRANCH   1  24
ATOM     20  C   UNL     1       1.194   8.199  21.131  0.00  0.00    +0.000 C 
ATOM     21  C   UNL     1       0.297   9.331  21.523  0.00  0.00    +0.000 A 
ATOM     22  N   UNL     1      -0.110   9.396  22.803  0.00  0.00    +0.000 NA
ATOM     23  C   UNL     1      -0.917  10.430  23.121  0.00  0.00    +0.000 A 
ATOM     24  C   UNL     1      -1.333  11.403  22.230  0.00  0.00    +0.000 A 
ATOM     25  C   UNL     1      -0.848  11.222  20.948  0.00  0.00    +0.000 A 
ATOM     26  N   UNL     1      -0.043  10.210  20.565  0.00  0.00    +0.000 NA
ENDBRANCH   1  24
BRANCH  13  27
ATOM     27  N   UNL     1       1.385  16.301  19.770  0.00  0.00    +0.000 N 
ATOM     28  C   UNL     1       1.841  15.040  19.185  0.00  0.00    +0.000 C 
ATOM     29  C   UNL     1       2.745  14.305  20.187  0.00  0.00    +0.000 C 
ATOM     30  O   UNL     1       3.827  15.143  20.641  0.00  0.00    +0.000 OA
ATOM     31  C   UNL     1       3.313  16.312  21.280  0.00  0.00    +0.000 C 
ATOM     32  C   UNL     1       2.466  17.117  20.305  0.00  0.00    +0.000 C 
ENDBRANCH  13  27
TORSDOF 2
ENDMDL
