MODEL 1
REMARK VINA RESULT:      -9.2      0.000      0.000
REMARK  Name = 
REMARK  5 active torsions:
REMARK  status: ('A' for Active; 'I' for Inactive)
REMARK    1  A    between atoms: N_5  and  C_6
REMARK    2  A    between atoms: N_13  and  C_14
REMARK    3  A    between atoms: C_14  and  C_15
REMARK    4  A    between atoms: C_15  and  N_16
REMARK    5  A    between atoms: N_16  and  C_17
REMARK                            x       y       z     vdW  Elec       q    Type
REMARK                         _______ _______ _______ _____ _____    ______ ____
ROOT
ATOM      1  O   UNL     1       0.780  14.717  19.457  0.00  0.00    +0.000 OA
ATOM      2  C   UNL     1       0.749  13.509  19.503  0.00  0.00    +0.000 C 
ATOM      3  S   UNL     1       0.252  12.407  18.296  0.00  0.00    +0.000 S 
ATOM      4  C   UNL     1      -0.231  11.161  19.467  0.00  0.00    +0.000 C 
ATOM      5  N   UNL     1      -1.279  10.385  19.269  0.00  0.00    +0.000 NA
ATOM      6  N   UNL     1       0.731  11.215  20.483  0.00  0.00    +0.000 N 
ATOM      7  C   UNL     1       1.309  12.494  20.519  0.00  0.00    +0.000 C 
ATOM      8  O   UNL     1       2.185  12.904  21.271  0.00  0.00    +0.000 OA
ENDROOT
BRANCH   5   9
ATOM      9  C   UNL     1      -2.209  10.568  18.107  0.00  0.00    +0.000 A 
ATOM     10  C   UNL     1      -1.982   9.960  16.848  0.00  0.00    +0.000 A 
ATOM     11  C   UNL     1      -2.866   9.996  15.754  0.00  0.00    +0.000 A 
ATOM     12  C   UNL     1      -4.017  10.750  15.824  0.00  0.00    +0.000 A 
ATOM     13  C   UNL     1      -4.263  11.463  16.996  0.00  0.00    +0.000 A 
ATOM     14  C   UNL     1      -3.374  11.382  18.113  0.00  0.00    +0.000 A 
ATOM     15 CL   UNL     1      -3.773  12.383  19.468  0.00  0.00    +0.000 Cl
ENDBRANCH   5   9
BRANCH   6  16
ATOM     16  C   UNL     1       1.187  10.211  21.569  0.00  0.00    +0.000 C 
BRANCH  16  17
ATOM     17  C   UNL     1       0.796   8.532  21.470  0.00  0.00    +0.000 C 
BRANCH  17  18
ATOM     18  N   UNL     1       1.609   7.348  20.700  0.00  0.00    +0.000 N 
ATOM     19  H   UNL     1       1.489   7.823  19.835  0.00  0.00    +0.000 HD
BRANCH  18  20
ATOM     20  C   UNL     1       2.311   6.337  20.015  0.00  0.00    +0.000 A 
ATOM     21  C   UNL     1       2.041   5.060  20.459  0.00  0.00    +0.000 A 
ATOM     22  C   UNL     1       1.894   4.284  19.361  0.00  0.00    +0.000 A 
ATOM     23  N   UNL     1       3.052   3.918  18.868  0.00  0.00    +0.000 NA
ATOM     24  C   UNL     1       3.728   4.932  18.390  0.00  0.00    +0.000 A 
ATOM     25  C   UNL     1       4.723   4.393  17.564  0.00  0.00    +0.000 A 
ATOM     26  C   UNL     1       5.324   5.105  16.566  0.00  0.00    +0.000 A 
ATOM     27 CL   UNL     1       6.369   4.293  15.448  0.00  0.00    +0.000 Cl
ATOM     28  C   UNL     1       4.908   6.415  16.422  0.00  0.00    +0.000 A 
ATOM     29  C   UNL     1       3.993   7.016  17.424  0.00  0.00    +0.000 A 
ATOM     30  C   UNL     1       3.334   6.294  18.644  0.00  0.00    +0.000 A 
ENDBRANCH  18  20
ENDBRANCH  17  18
ENDBRANCH  16  17
ENDBRANCH   6  16
TORSDOF 5
ENDMDL
MODEL 2
REMARK VINA RESULT:      -9.0      7.114     10.047
REMARK  Name = 
REMARK  5 active torsions:
REMARK  status: ('A' for Active; 'I' for Inactive)
REMARK    1  A    between atoms: N_5  and  C_6
REMARK    2  A    between atoms: N_13  and  C_14
REMARK    3  A    between atoms: C_14  and  C_15
REMARK    4  A    between atoms: C_15  and  N_16
REMARK    5  A    between atoms: N_16  and  C_17
REMARK                            x       y       z     vdW  Elec       q    Type
REMARK                         _______ _______ _______ _____ _____    ______ ____
ROOT
ATOM      1  O   UNL     1       5.705   4.171  14.049  0.00  0.00    +0.000 OA
ATOM      2  C   UNL     1       5.911   4.377  15.223  0.00  0.00    +0.000 C 
ATOM      3  S   UNL     1       5.351   3.497  16.575  0.00  0.00    +0.000 S 
ATOM      4  C   UNL     1       5.402   4.903  17.660  0.00  0.00    +0.000 C 
ATOM      5  N   UNL     1       4.500   5.092  18.604  0.00  0.00    +0.000 NA
ATOM      6  N   UNL     1       6.553   5.612  17.294  0.00  0.00    +0.000 N 
ATOM      7  C   UNL     1       6.876   5.329  15.957  0.00  0.00    +0.000 C 
ATOM      8  O   UNL     1       7.816   5.762  15.301  0.00  0.00    +0.000 OA
ENDROOT
BRANCH   5   9
ATOM      9  C   UNL     1       3.301   4.204  18.760  0.00  0.00    +0.000 A 
ATOM     10  C   UNL     1       2.019   4.564  18.276  0.00  0.00    +0.000 A 
ATOM     11  C   UNL     1       0.882   3.736  18.288  0.00  0.00    +0.000 A 
ATOM     12  C   UNL     1       0.936   2.501  18.895  0.00  0.00    +0.000 A 
ATOM     13  C   UNL     1       2.137   2.114  19.487  0.00  0.00    +0.000 A 
ATOM     14  C   UNL     1       3.294   2.951  19.430  0.00  0.00    +0.000 A 
ATOM     15 CL   UNL     1       4.688   2.369  20.276  0.00  0.00    +0.000 Cl
ENDBRANCH   5   9
BRANCH   6  16
ATOM     16  C   UNL     1       7.435   6.656  18.020  0.00  0.00    +0.000 C 
BRANCH  16  17
ATOM     17  C   UNL     1       7.740   8.213  17.339  0.00  0.00    +0.000 C 
BRANCH  17  18
ATOM     18  N   UNL     1       8.461   9.497  18.034  0.00  0.00    +0.000 N 
ATOM     19  H   UNL     1       7.708   9.576  18.678  0.00  0.00    +0.000 HD
BRANCH  18  20
ATOM     20  C   UNL     1       9.068  10.608  18.652  0.00  0.00    +0.000 A 
ATOM     21  C   UNL     1       9.083  10.551  20.030  0.00  0.00    +0.000 A 
ATOM     22  C   UNL     1      10.313  10.948  20.428  0.00  0.00    +0.000 A 
ATOM     23  N   UNL     1      10.422  12.254  20.434  0.00  0.00    +0.000 NA
ATOM     24  C   UNL     1      10.355  12.762  19.229  0.00  0.00    +0.000 A 
ATOM     25  C   UNL     1      10.865  14.064  19.316  0.00  0.00    +0.000 A 
ATOM     26  C   UNL     1      11.365  14.736  18.238  0.00  0.00    +0.000 A 
ATOM     27 CL   UNL     1      12.186  16.243  18.480  0.00  0.00    +0.000 Cl
ATOM     28  C   UNL     1      11.324  14.064  17.033  0.00  0.00    +0.000 A 
ATOM     29  C   UNL     1      10.611  12.767  16.931  0.00  0.00    +0.000 A 
ATOM     30  C   UNL     1       9.936  11.975  18.098  0.00  0.00    +0.000 A 
ENDBRANCH  18  20
ENDBRANCH  17  18
ENDBRANCH  16  17
ENDBRANCH   6  16
TORSDOF 5
ENDMDL
MODEL 3
REMARK VINA RESULT:      -8.9      6.830      9.634
REMARK  Name = 
REMARK  5 active torsions:
REMARK  status: ('A' for Active; 'I' for Inactive)
REMARK    1  A    between atoms: N_5  and  C_6
REMARK    2  A    between atoms: N_13  and  C_14
REMARK    3  A    between atoms: C_14  and  C_15
REMARK    4  A    between atoms: C_15  and  N_16
REMARK    5  A    between atoms: N_16  and  C_17
REMARK                            x       y       z     vdW  Elec       q    Type
REMARK                         _______ _______ _______ _____ _____    ______ ____
ROOT
ATOM      1  O   UNL     1       6.070   3.267  14.970  0.00  0.00    +0.000 OA
ATOM      2  C   UNL     1       5.936   4.081  15.855  0.00  0.00    +0.000 C 
ATOM      3  S   UNL     1       5.234   3.875  17.398  0.00  0.00    +0.000 S 
ATOM      4  C   UNL     1       4.751   5.578  17.536  0.00  0.00    +0.000 C 
ATOM      5  N   UNL     1       3.624   5.941  18.118  0.00  0.00    +0.000 NA
ATOM      6  N   UNL     1       5.803   6.309  16.970  0.00  0.00    +0.000 N 
ATOM      7  C   UNL     1       6.494   5.504  16.049  0.00  0.00    +0.000 C 
ATOM      8  O   UNL     1       7.469   5.804  15.370  0.00  0.00    +0.000 OA
ENDROOT
BRANCH   5   9
ATOM      9  C   UNL     1       2.611   4.946  18.602  0.00  0.00    +0.000 A 
ATOM     10  C   UNL     1       2.285   3.776  17.874  0.00  0.00    +0.000 A 
ATOM     11  C   UNL     1       1.433   2.750  18.321  0.00  0.00    +0.000 A 
ATOM     12  C   UNL     1       0.758   2.886  19.513  0.00  0.00    +0.000 A 
ATOM     13  C   UNL     1       0.947   4.058  20.244  0.00  0.00    +0.000 A 
ATOM     14  C   UNL     1       1.848   5.073  19.794  0.00  0.00    +0.000 A 
ATOM     15 CL   UNL     1       1.918   6.503  20.768  0.00  0.00    +0.000 Cl
ENDBRANCH   5   9
BRANCH   6  16
ATOM     16  C   UNL     1       6.266   7.780  17.098  0.00  0.00    +0.000 C 
BRANCH  16  17
ATOM     17  C   UNL     1       7.802   8.189  17.773  0.00  0.00    +0.000 C 
BRANCH  17  18
ATOM     18  N   UNL     1       8.443   9.669  18.004  0.00  0.00    +0.000 N 
ATOM     19  H   UNL     1       9.311   9.258  18.257  0.00  0.00    +0.000 HD
BRANCH  18  20
ATOM     20  C   UNL     1       9.018  10.939  18.207  0.00  0.00    +0.000 A 
ATOM     21  C   UNL     1      10.357  10.908  18.536  0.00  0.00    +0.000 A 
ATOM     22  C   UNL     1      10.962  11.877  17.814  0.00  0.00    +0.000 A 
ATOM     23  N   UNL     1      10.808  13.058  18.362  0.00  0.00    +0.000 NA
ATOM     24  C   UNL     1       9.559  13.452  18.343  0.00  0.00    +0.000 A 
ATOM     25  C   UNL     1       9.573  14.833  18.578  0.00  0.00    +0.000 A 
ATOM     26  C   UNL     1       8.553  15.659  18.202  0.00  0.00    +0.000 A 
ATOM     27 CL   UNL     1       8.757  17.375  18.320  0.00  0.00    +0.000 Cl
ATOM     28  C   UNL     1       7.477  15.050  17.586  0.00  0.00    +0.000 A 
ATOM     29  C   UNL     1       7.402  13.569  17.517  0.00  0.00    +0.000 A 
ATOM     30  C   UNL     1       8.486  12.552  18.005  0.00  0.00    +0.000 A 
ENDBRANCH  18  20
ENDBRANCH  17  18
ENDBRANCH  16  17
ENDBRANCH   6  16
TORSDOF 5
ENDMDL
MODEL 4
REMARK VINA RESULT:      -8.8      6.933     10.049
REMARK  Name = 
REMARK  5 active torsions:
REMARK  status: ('A' for Active; 'I' for Inactive)
REMARK    1  A    between atoms: N_5  and  C_6
REMARK    2  A    between atoms: N_13  and  C_14
REMARK    3  A    between atoms: C_14  and  C_15
REMARK    4  A    between atoms: C_15  and  N_16
REMARK    5  A    between atoms: N_16  and  C_17
REMARK                            x       y       z     vdW  Elec       q    Type
REMARK                         _______ _______ _______ _____ _____    ______ ____
ROOT
ATOM      1  O   UNL     1       5.694   3.953  13.578  0.00  0.00    +0.000 OA
ATOM      2  C   UNL     1       5.943   4.233  14.728  0.00  0.00    +0.000 C 
ATOM      3  S   UNL     1       5.421   3.452  16.154  0.00  0.00    +0.000 S 
ATOM      4  C   UNL     1       5.527   4.925  17.141  0.00  0.00    +0.000 C 
ATOM      5  N   UNL     1       4.661   5.188  18.101  0.00  0.00    +0.000 NA
ATOM      6  N   UNL     1       6.673   5.592  16.689  0.00  0.00    +0.000 N 
ATOM      7  C   UNL     1       6.944   5.217  15.363  0.00  0.00    +0.000 C 
ATOM      8  O   UNL     1       7.866   5.593  14.648  0.00  0.00    +0.000 OA
ENDROOT
BRANCH   5   9
ATOM      9  C   UNL     1       3.458   4.330  18.357  0.00  0.00    +0.000 A 
ATOM     10  C   UNL     1       2.168   4.664  17.877  0.00  0.00    +0.000 A 
ATOM     11  C   UNL     1       1.024   3.853  17.983  0.00  0.00    +0.000 A 
ATOM     12  C   UNL     1       1.082   2.670  18.686  0.00  0.00    +0.000 A 
ATOM     13  C   UNL     1       2.293   2.317  19.277  0.00  0.00    +0.000 A 
ATOM     14  C   UNL     1       3.457   3.134  19.125  0.00  0.00    +0.000 A 
ATOM     15 CL   UNL     1       4.866   2.605  19.981  0.00  0.00    +0.000 Cl
ENDBRANCH   5   9
BRANCH   6  16
ATOM     16  C   UNL     1       7.592   6.669  17.314  0.00  0.00    +0.000 C 
BRANCH  16  17
ATOM     17  C   UNL     1       7.031   8.275  17.611  0.00  0.00    +0.000 C 
BRANCH  17  18
ATOM     18  N   UNL     1       7.910   9.617  17.893  0.00  0.00    +0.000 N 
ATOM     19  H   UNL     1       7.740   9.929  16.965  0.00  0.00    +0.000 HD
BRANCH  18  20
ATOM     20  C   UNL     1       8.664  10.786  18.117  0.00  0.00    +0.000 A 
ATOM     21  C   UNL     1       9.989  10.555  18.425  0.00  0.00    +0.000 A 
ATOM     22  C   UNL     1      10.719  11.445  17.716  0.00  0.00    +0.000 A 
ATOM     23  N   UNL     1      10.742  12.622  18.294  0.00  0.00    +0.000 NA
ATOM     24  C   UNL     1       9.562  13.191  18.302  0.00  0.00    +0.000 A 
ATOM     25  C   UNL     1       9.777  14.550  18.568  0.00  0.00    +0.000 A 
ATOM     26  C   UNL     1       8.882  15.522  18.226  0.00  0.00    +0.000 A 
ATOM     27 CL   UNL     1       9.333  17.188  18.380  0.00  0.00    +0.000 Cl
ATOM     28  C   UNL     1       7.723  15.089  17.612  0.00  0.00    +0.000 A 
ATOM     29  C   UNL     1       7.436  13.637  17.511  0.00  0.00    +0.000 A 
ATOM     30  C   UNL     1       8.367  12.463  17.959  0.00  0.00    +0.000 A 
ENDBRANCH  18  20
ENDBRANCH  17  18
ENDBRANCH  16  17
ENDBRANCH   6  16
TORSDOF 5
ENDMDL
MODEL 5
REMARK VINA RESULT:      -8.8      4.049      9.688
REMARK  Name = 
REMARK  5 active torsions:
REMARK  status: ('A' for Active; 'I' for Inactive)
REMARK    1  A    between atoms: N_5  and  C_6
REMARK    2  A    between atoms: N_13  and  C_14
REMARK    3  A    between atoms: C_14  and  C_15
REMARK    4  A    between atoms: C_15  and  N_16
REMARK    5  A    between atoms: N_16  and  C_17
REMARK                            x       y       z     vdW  Elec       q    Type
REMARK                         _______ _______ _______ _____ _____    ______ ____
ROOT
ATOM      1  O   UNL     1       4.425   1.711  21.261  0.00  0.00    +0.000 OA
ATOM      2  C   UNL     1       3.820   2.537  20.617  0.00  0.00    +0.000 C 
ATOM      3  S   UNL     1       3.828   2.789  18.928  0.00  0.00    +0.000 S 
ATOM      4  C   UNL     1       3.438   4.517  19.065  0.00  0.00    +0.000 C 
ATOM      5  N   UNL     1       3.948   5.417  18.246  0.00  0.00    +0.000 NA
ATOM      6  N   UNL     1       2.518   4.606  20.118  0.00  0.00    +0.000 N 
ATOM      7  C   UNL     1       2.687   3.515  20.986  0.00  0.00    +0.000 C 
ATOM      8  O   UNL     1       2.059   3.260  22.006  0.00  0.00    +0.000 OA
ENDROOT
BRANCH   5   9
ATOM      9  C   UNL     1       4.982   5.073  17.216  0.00  0.00    +0.000 A 
ATOM     10  C   UNL     1       4.641   4.631  15.914  0.00  0.00    +0.000 A 
ATOM     11  C   UNL     1       5.553   4.401  14.868  0.00  0.00    +0.000 A 
ATOM     12  C   UNL     1       6.907   4.506  15.098  0.00  0.00    +0.000 A 
ATOM     13  C   UNL     1       7.328   4.838  16.384  0.00  0.00    +0.000 A 
ATOM     14  C   UNL     1       6.387   5.108  17.425  0.00  0.00    +0.000 A 
ATOM     15 CL   UNL     1       7.062   5.432  18.987  0.00  0.00    +0.000 Cl
ENDBRANCH   5   9
BRANCH   6  16
ATOM     16  C   UNL     1       1.469   5.668  20.526  0.00  0.00    +0.000 C 
BRANCH  16  17
ATOM     17  C   UNL     1       1.911   7.312  20.814  0.00  0.00    +0.000 C 
BRANCH  17  18
ATOM     18  N   UNL     1       1.028   8.657  20.558  0.00  0.00    +0.000 N 
ATOM     19  H   UNL     1       0.205   8.174  20.838  0.00  0.00    +0.000 HD
BRANCH  18  20
ATOM     20  C   UNL     1       0.245   9.808  20.346  0.00  0.00    +0.000 A 
ATOM     21  C   UNL     1       0.015  10.100  19.017  0.00  0.00    +0.000 A 
ATOM     22  C   UNL     1      -1.290  10.437  18.909  0.00  0.00    +0.000 A 
ATOM     23  N   UNL     1      -1.500  11.681  19.265  0.00  0.00    +0.000 NA
ATOM     24  C   UNL     1      -1.280  11.872  20.542  0.00  0.00    +0.000 A 
ATOM     25  C   UNL     1      -1.897  13.085  20.875  0.00  0.00    +0.000 A 
ATOM     26  C   UNL     1      -2.270  13.401  22.150  0.00  0.00    +0.000 A 
ATOM     27 CL   UNL     1      -3.234  14.814  22.431  0.00  0.00    +0.000 Cl
ATOM     28  C   UNL     1      -1.985  12.457  23.116  0.00  0.00    +0.000 A 
ATOM     29  C   UNL     1      -1.166  11.268  22.771  0.00  0.00    +0.000 A 
ATOM     30  C   UNL     1      -0.626  10.880  21.356  0.00  0.00    +0.000 A 
ENDBRANCH  18  20
ENDBRANCH  17  18
ENDBRANCH  16  17
ENDBRANCH   6  16
TORSDOF 5
ENDMDL
MODEL 6
REMARK VINA RESULT:      -8.8      1.633      2.292
REMARK  Name = 
REMARK  5 active torsions:
REMARK  status: ('A' for Active; 'I' for Inactive)
REMARK    1  A    between atoms: N_5  and  C_6
REMARK    2  A    between atoms: N_13  and  C_14
REMARK    3  A    between atoms: C_14  and  C_15
REMARK    4  A    between atoms: C_15  and  N_16
REMARK    5  A    between atoms: N_16  and  C_17
REMARK                            x       y       z     vdW  Elec       q    Type
REMARK                         _______ _______ _______ _____ _____    ______ ____
ROOT
ATOM      1  O   UNL     1      -0.245  14.946  19.757  0.00  0.00    +0.000 OA
ATOM      2  C   UNL     1      -0.224  13.741  19.860  0.00  0.00    +0.000 C 
ATOM      3  S   UNL     1      -0.359  12.563  18.631  0.00  0.00    +0.000 S 
ATOM      4  C   UNL     1      -1.044  11.337  19.718  0.00  0.00    +0.000 C 
ATOM      5  N   UNL     1      -1.973  10.488  19.320  0.00  0.00    +0.000 NA
ATOM      6  N   UNL     1      -0.359  11.491  20.930  0.00  0.00    +0.000 N 
ATOM      7  C   UNL     1       0.127  12.805  21.033  0.00  0.00    +0.000 C 
ATOM      8  O   UNL     1       0.775  13.299  21.947  0.00  0.00    +0.000 OA
ENDROOT
BRANCH   5   9
ATOM      9  C   UNL     1      -2.605  10.566  17.962  0.00  0.00    +0.000 A 
ATOM     10  C   UNL     1      -2.011   9.990  16.812  0.00  0.00    +0.000 A 
ATOM     11  C   UNL     1      -2.599   9.927  15.537  0.00  0.00    +0.000 A 
ATOM     12  C   UNL     1      -3.808  10.544  15.305  0.00  0.00    +0.000 A 
ATOM     13  C   UNL     1      -4.412  11.221  16.362  0.00  0.00    +0.000 A 
ATOM     14  C   UNL     1      -3.819  11.241  17.663  0.00  0.00    +0.000 A 
ATOM     15 CL   UNL     1      -4.646  12.187  18.855  0.00  0.00    +0.000 Cl
ENDBRANCH   5   9
BRANCH   6  16
ATOM     16  C   UNL     1      -0.125  10.563  22.145  0.00  0.00    +0.000 C 
BRANCH  16  17
ATOM     17  C   UNL     1       1.166   9.416  22.172  0.00  0.00    +0.000 C 
BRANCH  17  18
ATOM     18  N   UNL     1       1.564   8.315  21.040  0.00  0.00    +0.000 N 
ATOM     19  H   UNL     1       1.990   7.747  21.736  0.00  0.00    +0.000 HD
BRANCH  18  20
ATOM     20  C   UNL     1       1.916   7.348  20.077  0.00  0.00    +0.000 A 
ATOM     21  C   UNL     1       2.133   7.859  18.815  0.00  0.00    +0.000 A 
ATOM     22  C   UNL     1       3.246   7.261  18.334  0.00  0.00    +0.000 A 
ATOM     23  N   UNL     1       2.987   6.068  17.856  0.00  0.00    +0.000 NA
ATOM     24  C   UNL     1       2.618   5.231  18.793  0.00  0.00    +0.000 A 
ATOM     25  C   UNL     1       2.753   3.945  18.254  0.00  0.00    +0.000 A 
ATOM     26  C   UNL     1       2.895   2.829  19.026  0.00  0.00    +0.000 A 
ATOM     27 CL   UNL     1       3.289   1.317  18.276  0.00  0.00    +0.000 Cl
ATOM     28  C   UNL     1       2.879   3.032  20.392  0.00  0.00    +0.000 A 
ATOM     29  C   UNL     1       2.549   4.372  20.939  0.00  0.00    +0.000 A 
ATOM     30  C   UNL     1       2.285   5.678  20.121  0.00  0.00    +0.000 A 
ENDBRANCH  18  20
ENDBRANCH  17  18
ENDBRANCH  16  17
ENDBRANCH   6  16
TORSDOF 5
ENDMDL
MODEL 7
REMARK VINA RESULT:      -8.8      6.888      9.773
REMARK  Name = 
REMARK  5 active torsions:
REMARK  status: ('A' for Active; 'I' for Inactive)
REMARK    1  A    between atoms: N_5  and  C_6
REMARK    2  A    between atoms: N_13  and  C_14
REMARK    3  A    between atoms: C_14  and  C_15
REMARK    4  A    between atoms: C_15  and  N_16
REMARK    5  A    between atoms: N_16  and  C_17
REMARK                            x       y       z     vdW  Elec       q    Type
REMARK                         _______ _______ _______ _____ _____    ______ ____
ROOT
ATOM      1  O   UNL     1       5.125   4.529  14.734  0.00  0.00    +0.000 OA
ATOM      2  C   UNL     1       5.537   4.706  15.857  0.00  0.00    +0.000 C 
ATOM      3  S   UNL     1       5.118   3.879  17.291  0.00  0.00    +0.000 S 
ATOM      4  C   UNL     1       5.486   5.265  18.338  0.00  0.00    +0.000 C 
ATOM      5  N   UNL     1       4.772   5.539  19.414  0.00  0.00    +0.000 NA
ATOM      6  N   UNL     1       6.628   5.857  17.783  0.00  0.00    +0.000 N 
ATOM      7  C   UNL     1       6.699   5.551  16.415  0.00  0.00    +0.000 C 
ATOM      8  O   UNL     1       7.560   5.891  15.611  0.00  0.00    +0.000 OA
ENDROOT
BRANCH   5   9
ATOM      9  C   UNL     1       3.530   4.777  19.771  0.00  0.00    +0.000 A 
ATOM     10  C   UNL     1       3.482   3.361  19.777  0.00  0.00    +0.000 A 
ATOM     11  C   UNL     1       2.391   2.586  20.209  0.00  0.00    +0.000 A 
ATOM     12  C   UNL     1       1.213   3.198  20.575  0.00  0.00    +0.000 A 
ATOM     13  C   UNL     1       1.146   4.588  20.499  0.00  0.00    +0.000 A 
ATOM     14  C   UNL     1       2.278   5.363  20.097  0.00  0.00    +0.000 A 
ATOM     15 CL   UNL     1       2.018   7.071  19.977  0.00  0.00    +0.000 Cl
ENDBRANCH   5   9
BRANCH   6  16
ATOM     16  C   UNL     1       7.716   6.802  18.346  0.00  0.00    +0.000 C 
BRANCH  16  17
ATOM     17  C   UNL     1       8.048   8.333  17.621  0.00  0.00    +0.000 C 
BRANCH  17  18
ATOM     18  N   UNL     1       8.637   9.679  18.324  0.00  0.00    +0.000 N 
ATOM     19  H   UNL     1       8.135  10.242  17.678  0.00  0.00    +0.000 HD
BRANCH  18  20
ATOM     20  C   UNL     1       9.133  10.856  18.919  0.00  0.00    +0.000 A 
ATOM     21  C   UNL     1      10.121  10.643  19.858  0.00  0.00    +0.000 A 
ATOM     22  C   UNL     1      11.081  11.568  19.636  0.00  0.00    +0.000 A 
ATOM     23  N   UNL     1      10.768  12.728  20.161  0.00  0.00    +0.000 NA
ATOM     24  C   UNL     1       9.732  13.272  19.574  0.00  0.00    +0.000 A 
ATOM     25  C   UNL     1       9.736  14.627  19.932  0.00  0.00    +0.000 A 
ATOM     26  C   UNL     1       9.111  15.590  19.195  0.00  0.00    +0.000 A 
ATOM     27 CL   UNL     1       9.365  17.260  19.582  0.00  0.00    +0.000 Cl
ATOM     28  C   UNL     1       8.443  15.152  18.068  0.00  0.00    +0.000 A 
ATOM     29  C   UNL     1       8.294  13.698  17.813  0.00  0.00    +0.000 A 
ATOM     30  C   UNL     1       8.904  12.531  18.657  0.00  0.00    +0.000 A 
ENDBRANCH  18  20
ENDBRANCH  17  18
ENDBRANCH  16  17
ENDBRANCH   6  16
TORSDOF 5
ENDMDL
MODEL 8
REMARK VINA RESULT:      -8.8      6.793      9.865
REMARK  Name = 
REMARK  5 active torsions:
REMARK  status: ('A' for Active; 'I' for Inactive)
REMARK    1  A    between atoms: N_5  and  C_6
REMARK    2  A    between atoms: N_13  and  C_14
REMARK    3  A    between atoms: C_14  and  C_15
REMARK    4  A    between atoms: C_15  and  N_16
REMARK    5  A    between atoms: N_16  and  C_17
REMARK                            x       y       z     vdW  Elec       q    Type
REMARK                         _______ _______ _______ _____ _____    ______ ____
ROOT
ATOM      1  O   UNL     1       5.997   3.240  15.272  0.00  0.00    +0.000 OA
ATOM      2  C   UNL     1       5.987   4.079  16.144  0.00  0.00    +0.000 C 
ATOM      3  S   UNL     1       5.502   3.919  17.773  0.00  0.00    +0.000 S 
ATOM      4  C   UNL     1       5.046   5.629  17.928  0.00  0.00    +0.000 C 
ATOM      5  N   UNL     1       4.010   6.015  18.648  0.00  0.00    +0.000 NA
ATOM      6  N   UNL     1       6.012   6.338  17.203  0.00  0.00    +0.000 N 
ATOM      7  C   UNL     1       6.568   5.504  16.219  0.00  0.00    +0.000 C 
ATOM      8  O   UNL     1       7.442   5.779  15.405  0.00  0.00    +0.000 OA
ENDROOT
BRANCH   5   9
ATOM      9  C   UNL     1       3.071   5.039  19.295  0.00  0.00    +0.000 A 
ATOM     10  C   UNL     1       3.037   4.829  20.695  0.00  0.00    +0.000 A 
ATOM     11  C   UNL     1       2.110   4.018  21.375  0.00  0.00    +0.000 A 
ATOM     12  C   UNL     1       1.201   3.268  20.663  0.00  0.00    +0.000 A 
ATOM     13  C   UNL     1       1.236   3.341  19.272  0.00  0.00    +0.000 A 
ATOM     14  C   UNL     1       2.158   4.201  18.600  0.00  0.00    +0.000 A 
ATOM     15 CL   UNL     1       2.134   4.126  16.870  0.00  0.00    +0.000 Cl
ENDBRANCH   5   9
BRANCH   6  16
ATOM     16  C   UNL     1       6.490   7.809  17.225  0.00  0.00    +0.000 C 
BRANCH  16  17
ATOM     17  C   UNL     1       7.922   8.282  18.066  0.00  0.00    +0.000 C 
BRANCH  17  18
ATOM     18  N   UNL     1       8.587   9.765  18.176  0.00  0.00    +0.000 N 
ATOM     19  H   UNL     1       8.307   9.964  17.244  0.00  0.00    +0.000 HD
BRANCH  18  20
ATOM     20  C   UNL     1       9.152  11.053  18.251  0.00  0.00    +0.000 A 
ATOM     21  C   UNL     1      10.521  11.062  18.417  0.00  0.00    +0.000 A 
ATOM     22  C   UNL     1      11.013  12.007  17.585  0.00  0.00    +0.000 A 
ATOM     23  N   UNL     1      10.898  13.209  18.094  0.00  0.00    +0.000 NA
ATOM     24  C   UNL     1       9.647  13.579  18.208  0.00  0.00    +0.000 A 
ATOM     25  C   UNL     1       9.656  14.970  18.377  0.00  0.00    +0.000 A 
ATOM     26  C   UNL     1       8.579  15.758  18.090  0.00  0.00    +0.000 A 
ATOM     27 CL   UNL     1       8.756  17.482  18.105  0.00  0.00    +0.000 Cl
ATOM     28  C   UNL     1       7.452  15.102  17.636  0.00  0.00    +0.000 A 
ATOM     29  C   UNL     1       7.405  13.618  17.644  0.00  0.00    +0.000 A 
ATOM     30  C   UNL     1       8.562  12.646  18.042  0.00  0.00    +0.000 A 
ENDBRANCH  18  20
ENDBRANCH  17  18
ENDBRANCH  16  17
ENDBRANCH   6  16
TORSDOF 5
ENDMDL
MODEL 9
REMARK VINA RESULT:      -8.7      4.443      9.576
REMARK  Name = 
REMARK  5 active torsions:
REMARK  status: ('A' for Active; 'I' for Inactive)
REMARK    1  A    between atoms: N_5  and  C_6
REMARK    2  A    between atoms: N_13  and  C_14
REMARK    3  A    between atoms: C_14  and  C_15
REMARK    4  A    between atoms: C_15  and  N_16
REMARK    5  A    between atoms: N_16  and  C_17
REMARK                            x       y       z     vdW  Elec       q    Type
REMARK                         _______ _______ _______ _____ _____    ______ ____
ROOT
ATOM      1  O   UNL     1       4.993   1.616  20.737  0.00  0.00    +0.000 OA
ATOM      2  C   UNL     1       4.303   2.415  20.147  0.00  0.00    +0.000 C 
ATOM      3  S   UNL     1       4.196   2.696  18.465  0.00  0.00    +0.000 S 
ATOM      4  C   UNL     1       3.714   4.394  18.660  0.00  0.00    +0.000 C 
ATOM      5  N   UNL     1       4.121   5.337  17.832  0.00  0.00    +0.000 NA
ATOM      6  N   UNL     1       2.855   4.411  19.767  0.00  0.00    +0.000 N 
ATOM      7  C   UNL     1       3.139   3.317  20.601  0.00  0.00    +0.000 C 
ATOM      8  O   UNL     1       2.589   3.008  21.651  0.00  0.00    +0.000 OA
ENDROOT
BRANCH   5   9
ATOM      9  C   UNL     1       5.110   5.073  16.736  0.00  0.00    +0.000 A 
ATOM     10  C   UNL     1       4.728   4.551  15.475  0.00  0.00    +0.000 A 
ATOM     11  C   UNL     1       5.582   4.387  14.370  0.00  0.00    +0.000 A 
ATOM     12  C   UNL     1       6.929   4.647  14.495  0.00  0.00    +0.000 A 
ATOM     13  C   UNL     1       7.402   5.068  15.736  0.00  0.00    +0.000 A 
ATOM     14  C   UNL     1       6.514   5.268  16.838  0.00  0.00    +0.000 A 
ATOM     15 CL   UNL     1       7.259   5.719  18.335  0.00  0.00    +0.000 Cl
ENDBRANCH   5   9
BRANCH   6  16
ATOM     16  C   UNL     1       1.772   5.401  20.257  0.00  0.00    +0.000 C 
BRANCH  16  17
ATOM     17  C   UNL     1       2.032   7.108  20.238  0.00  0.00    +0.000 C 
BRANCH  17  18
ATOM     18  N   UNL     1       1.065   8.285  20.815  0.00  0.00    +0.000 N 
ATOM     19  H   UNL     1       0.644   8.384  19.920  0.00  0.00    +0.000 HD
BRANCH  18  20
ATOM     20  C   UNL     1       0.217   9.303  21.294  0.00  0.00    +0.000 A 
ATOM     21  C   UNL     1      -0.471   8.973  22.443  0.00  0.00    +0.000 A 
ATOM     22  C   UNL     1      -0.409  10.047  23.262  0.00  0.00    +0.000 A 
ATOM     23  N   UNL     1      -1.297  10.956  22.937  0.00  0.00    +0.000 NA
ATOM     24  C   UNL     1      -1.047  11.495  21.770  0.00  0.00    +0.000 A 
ATOM     25  C   UNL     1      -1.792  12.680  21.710  0.00  0.00    +0.000 A 
ATOM     26  C   UNL     1      -1.470  13.716  20.881  0.00  0.00    +0.000 A 
ATOM     27 CL   UNL     1      -2.304  15.226  21.042  0.00  0.00    +0.000 Cl
ATOM     28  C   UNL     1      -0.366  13.525  20.074  0.00  0.00    +0.000 A 
ATOM     29  C   UNL     1       0.292  12.196  20.019  0.00  0.00    +0.000 A 
ATOM     30  C   UNL     1      -0.070  10.935  20.870  0.00  0.00    +0.000 A 
ENDBRANCH  18  20
ENDBRANCH  17  18
ENDBRANCH  16  17
ENDBRANCH   6  16
TORSDOF 5
ENDMDL
