MODEL 1
REMARK VINA RESULT:      -8.2      0.000      0.000
REMARK  Name = 
REMARK  15 active torsions:
REMARK  status: ('A' for Active; 'I' for Inactive)
REMARK    1  A    between atoms: C_1  and  C_2
REMARK    2  A    between atoms: C_2  and  N_3
REMARK    3  A    between atoms: N_3  and  C_4
REMARK    4  A    between atoms: N_3  and  C_6
REMARK    5  A    between atoms: C_4  and  C_5
REMARK    6  A    between atoms: C_6  and  C_7
REMARK    7  A    between atoms: C_7  and  O_8
REMARK    8  A    between atoms: O_8  and  C_9
REMARK    9  A    between atoms: C_12  and  C_13
REMARK   10  A    between atoms: C_13  and  C_14
REMARK   11  A    between atoms: C_14  and  C_15
REMARK   12  A    between atoms: C_15  and  C_16
REMARK   13  A    between atoms: C_15  and  C_29
REMARK   14  A    between atoms: C_16  and  C_17
REMARK   15  A    between atoms: N_31  and  O_32
REMARK                            x       y       z     vdW  Elec       q    Type
REMARK                         _______ _______ _______ _____ _____    ______ ____
ROOT
ATOM      1  C   UNL     1       3.839   3.731  18.238  0.00  0.00    +0.000 C 
ENDROOT
BRANCH   1   2
ATOM      2  C   UNL     1       2.409   3.221  18.016  0.00  0.00    +0.000 C 
ATOM      3  O   UNL     1       1.686   3.584  17.087  0.00  0.00    +0.000 OA
ATOM      4  N   UNL     1       1.963   2.294  18.929  0.00  0.00    +0.000 N 
ATOM      5  H   UNL     1       2.601   1.676  19.421  0.00  0.00    +0.000 HD
BRANCH   4   6
ATOM      6  O   UNL     1       0.687   1.752  18.634  0.00  0.00    +0.000 OA
ATOM      7  H   UNL     1       0.074   2.439  18.980  0.00  0.00    +0.000 HD
ENDBRANCH   4   6
ENDBRANCH   1   2
BRANCH   1   8
ATOM      8  C   UNL     1       4.350   4.349  16.915  0.00  0.00    +0.000 C 
BRANCH   8   9
ATOM      9  C   UNL     1       5.860   4.291  16.658  0.00  0.00    +0.000 C 
BRANCH   9  13
ATOM     10  C   UNL     1       8.159   7.461  18.454  0.00  0.00    +0.000 A 
ATOM     11  C   UNL     1       8.144   6.175  19.003  0.00  0.00    +0.000 A 
ATOM     12  C   UNL     1       7.392   5.161  18.423  0.00  0.00    +0.000 A 
ATOM     13  C   UNL     1       6.640   5.413  17.281  0.00  0.00    +0.000 A 
ATOM     14  C   UNL     1       6.662   6.696  16.713  0.00  0.00    +0.000 A 
ATOM     15  C   UNL     1       7.420   7.715  17.299  0.00  0.00    +0.000 A 
BRANCH  10  16
ATOM     16  O   UNL     1       8.869   8.521  18.971  0.00  0.00    +0.000 OA
BRANCH  16  17
ATOM     17  C   UNL     1       8.640   9.745  18.265  0.00  0.00    +0.000 C 
BRANCH  17  18
ATOM     18  C   UNL     1       8.977  10.968  19.116  0.00  0.00    +0.000 C 
BRANCH  18  19
ATOM     19  N   UNL     1      10.052  11.799  18.525  0.00  0.00    +0.000 NA
BRANCH  19  21
ATOM     20  C   UNL     1       9.144  14.090  18.013  0.00  0.00    +0.000 C 
ATOM     21  C   UNL     1       9.906  13.187  18.977  0.00  0.00    +0.000 C 
ENDBRANCH  19  21
BRANCH  19  22
ATOM     22  C   UNL     1      11.408  11.244  18.688  0.00  0.00    +0.000 C 
ATOM     23  C   UNL     1      12.263  11.871  19.785  0.00  0.00    +0.000 C 
ENDBRANCH  19  22
ENDBRANCH  18  19
ENDBRANCH  17  18
ENDBRANCH  16  17
ENDBRANCH  10  16
ENDBRANCH   9  13
ENDBRANCH   8   9
ENDBRANCH   1   8
BRANCH   1  24
ATOM     24  C   UNL     1       3.932   4.652  19.479  0.00  0.00    +0.000 C 
BRANCH  24  25
ATOM     25  C   UNL     1       3.001   5.832  19.470  0.00  0.00    +0.000 A 
ATOM     26  C   UNL     1       3.070   6.867  18.619  0.00  0.00    +0.000 A 
ATOM     27  C   UNL     1       2.169   7.996  18.825  0.00  0.00    +0.000 A 
ATOM     28  C   UNL     1       1.962   8.996  17.876  0.00  0.00    +0.000 A 
ATOM     29  C   UNL     1       1.196  10.116  18.215  0.00  0.00    +0.000 A 
ATOM     30  C   UNL     1       0.682  10.248  19.505  0.00  0.00    +0.000 A 
ATOM     31  F   UNL     1      -0.002  11.351  19.833  0.00  0.00    +0.000 F 
ATOM     32  C   UNL     1       0.853   9.248  20.450  0.00  0.00    +0.000 A 
ATOM     33  C   UNL     1       1.559   8.111  20.079  0.00  0.00    +0.000 A 
ATOM     34  O   UNL     1       1.584   7.051  20.992  0.00  0.00    +0.000 OA
ATOM     35  C   UNL     1       1.855   5.825  20.420  0.00  0.00    +0.000 A 
ATOM     36  O   UNL     1       1.266   4.801  20.730  0.00  0.00    +0.000 OA
ENDBRANCH  24  25
ENDBRANCH   1  24
TORSDOF 13
ENDMDL
MODEL 2
REMARK VINA RESULT:      -7.7      4.724      8.203
REMARK  Name = 
REMARK  15 active torsions:
REMARK  status: ('A' for Active; 'I' for Inactive)
REMARK    1  A    between atoms: C_1  and  C_2
REMARK    2  A    between atoms: C_2  and  N_3
REMARK    3  A    between atoms: N_3  and  C_4
REMARK    4  A    between atoms: N_3  and  C_6
REMARK    5  A    between atoms: C_4  and  C_5
REMARK    6  A    between atoms: C_6  and  C_7
REMARK    7  A    between atoms: C_7  and  O_8
REMARK    8  A    between atoms: O_8  and  C_9
REMARK    9  A    between atoms: C_12  and  C_13
REMARK   10  A    between atoms: C_13  and  C_14
REMARK   11  A    between atoms: C_14  and  C_15
REMARK   12  A    between atoms: C_15  and  C_16
REMARK   13  A    between atoms: C_15  and  C_29
REMARK   14  A    between atoms: C_16  and  C_17
REMARK   15  A    between atoms: N_31  and  O_32
REMARK                            x       y       z     vdW  Elec       q    Type
REMARK                         _______ _______ _______ _____ _____    ______ ____
ROOT
ATOM      1  C   UNL     1       4.046   4.156  18.761  0.00  0.00    +0.000 C 
ENDROOT
BRANCH   1   2
ATOM      2  C   UNL     1       4.077   3.093  19.867  0.00  0.00    +0.000 C 
ATOM      3  O   UNL     1       3.182   2.939  20.698  0.00  0.00    +0.000 OA
ATOM      4  N   UNL     1       5.187   2.281  19.876  0.00  0.00    +0.000 N 
ATOM      5  H   UNL     1       5.712   2.081  19.030  0.00  0.00    +0.000 HD
BRANCH   4   6
ATOM      6  O   UNL     1       5.137   1.234  20.830  0.00  0.00    +0.000 OA
ATOM      7  H   UNL     1       5.870   0.644  20.546  0.00  0.00    +0.000 HD
ENDBRANCH   4   6
ENDBRANCH   1   2
BRANCH   1   8
ATOM      8  C   UNL     1       3.025   5.248  19.159  0.00  0.00    +0.000 C 
BRANCH   8   9
ATOM      9  C   UNL     1       2.504   6.154  18.037  0.00  0.00    +0.000 C 
BRANCH   9  13
ATOM     10  C   UNL     1       1.367  10.128  19.252  0.00  0.00    +0.000 A 
ATOM     11  C   UNL     1       1.730   9.849  17.931  0.00  0.00    +0.000 A 
ATOM     12  C   UNL     1       2.105   8.567  17.550  0.00  0.00    +0.000 A 
ATOM     13  C   UNL     1       2.124   7.537  18.483  0.00  0.00    +0.000 A 
ATOM     14  C   UNL     1       1.744   7.803  19.808  0.00  0.00    +0.000 A 
ATOM     15  C   UNL     1       1.368   9.095  20.189  0.00  0.00    +0.000 A 
BRANCH  10  16
ATOM     16  O   UNL     1       0.992  11.370  19.711  0.00  0.00    +0.000 OA
BRANCH  16  17
ATOM     17  C   UNL     1      -0.398  11.446  20.046  0.00  0.00    +0.000 C 
BRANCH  17  18
ATOM     18  C   UNL     1      -0.664  12.451  21.165  0.00  0.00    +0.000 C 
BRANCH  18  19
ATOM     19  N   UNL     1      -0.620  11.836  22.512  0.00  0.00    +0.000 NA
BRANCH  19  21
ATOM     20  C   UNL     1      -2.979  12.392  23.191  0.00  0.00    +0.000 C 
ATOM     21  C   UNL     1      -1.485  12.589  23.425  0.00  0.00    +0.000 C 
ENDBRANCH  19  21
BRANCH  19  22
ATOM     22  C   UNL     1      -0.841  10.379  22.522  0.00  0.00    +0.000 C 
ATOM     23  C   UNL     1      -0.005   9.580  23.517  0.00  0.00    +0.000 C 
ENDBRANCH  19  22
ENDBRANCH  18  19
ENDBRANCH  17  18
ENDBRANCH  16  17
ENDBRANCH  10  16
ENDBRANCH   9  13
ENDBRANCH   8   9
ENDBRANCH   1   8
BRANCH   1  24
ATOM     24  C   UNL     1       5.468   4.670  18.422  0.00  0.00    +0.000 C 
BRANCH  24  25
ATOM     25  C   UNL     1       5.770   4.788  16.954  0.00  0.00    +0.000 A 
ATOM     26  C   UNL     1       5.330   3.951  16.003  0.00  0.00    +0.000 A 
ATOM     27  C   UNL     1       5.821   4.130  14.641  0.00  0.00    +0.000 A 
ATOM     28  C   UNL     1       5.250   3.506  13.531  0.00  0.00    +0.000 A 
ATOM     29  C   UNL     1       5.875   3.617  12.285  0.00  0.00    +0.000 A 
ATOM     30  C   UNL     1       7.079   4.311  12.165  0.00  0.00    +0.000 A 
ATOM     31  F   UNL     1       7.695   4.362  10.977  0.00  0.00    +0.000 F 
ATOM     32  C   UNL     1       7.642   4.962  13.252  0.00  0.00    +0.000 A 
ATOM     33  C   UNL     1       6.976   4.899  14.469  0.00  0.00    +0.000 A 
ATOM     34  O   UNL     1       7.475   5.691  15.509  0.00  0.00    +0.000 OA
ATOM     35  C   UNL     1       6.550   5.969  16.495  0.00  0.00    +0.000 A 
ATOM     36  O   UNL     1       6.439   7.070  17.012  0.00  0.00    +0.000 OA
ENDBRANCH  24  25
ENDBRANCH   1  24
TORSDOF 13
ENDMDL
MODEL 3
REMARK VINA RESULT:      -7.7      3.709      8.033
REMARK  Name = 
REMARK  15 active torsions:
REMARK  status: ('A' for Active; 'I' for Inactive)
REMARK    1  A    between atoms: C_1  and  C_2
REMARK    2  A    between atoms: C_2  and  N_3
REMARK    3  A    between atoms: N_3  and  C_4
REMARK    4  A    between atoms: N_3  and  C_6
REMARK    5  A    between atoms: C_4  and  C_5
REMARK    6  A    between atoms: C_6  and  C_7
REMARK    7  A    between atoms: C_7  and  O_8
REMARK    8  A    between atoms: O_8  and  C_9
REMARK    9  A    between atoms: C_12  and  C_13
REMARK   10  A    between atoms: C_13  and  C_14
REMARK   11  A    between atoms: C_14  and  C_15
REMARK   12  A    between atoms: C_15  and  C_16
REMARK   13  A    between atoms: C_15  and  C_29
REMARK   14  A    between atoms: C_16  and  C_17
REMARK   15  A    between atoms: N_31  and  O_32
REMARK                            x       y       z     vdW  Elec       q    Type
REMARK                         _______ _______ _______ _____ _____    ______ ____
ROOT
ATOM      1  C   UNL     1       2.458   3.645  18.010  0.00  0.00    +0.000 C 
ENDROOT
BRANCH   1   2
ATOM      2  C   UNL     1       2.315   3.213  19.474  0.00  0.00    +0.000 C 
ATOM      3  O   UNL     1       3.266   2.942  20.208  0.00  0.00    +0.000 OA
ATOM      4  N   UNL     1       1.025   3.154  19.951  0.00  0.00    +0.000 N 
ATOM      5  H   UNL     1       0.285   3.734  19.567  0.00  0.00    +0.000 HD
BRANCH   4   6
ATOM      6  O   UNL     1       0.927   2.868  21.336  0.00  0.00    +0.000 OA
ATOM      7  H   UNL     1       0.966   1.886  21.358  0.00  0.00    +0.000 HD
ENDBRANCH   4   6
ENDBRANCH   1   2
BRANCH   1   8
ATOM      8  C   UNL     1       2.166   5.162  17.916  0.00  0.00    +0.000 C 
BRANCH   8   9
ATOM      9  C   UNL     1       2.669   6.039  19.068  0.00  0.00    +0.000 C 
BRANCH   9  13
ATOM     10  C   UNL     1       0.845   9.942  19.164  0.00  0.00    +0.000 A 
ATOM     11  C   UNL     1       1.360   9.410  17.977  0.00  0.00    +0.000 A 
ATOM     12  C   UNL     1       1.954   8.155  17.957  0.00  0.00    +0.000 A 
ATOM     13  C   UNL     1       2.047   7.405  19.124  0.00  0.00    +0.000 A 
ATOM     14  C   UNL     1       1.519   7.923  20.316  0.00  0.00    +0.000 A 
ATOM     15  C   UNL     1       0.920   9.187  20.334  0.00  0.00    +0.000 A 
BRANCH  10  16
ATOM     16  O   UNL     1       0.249  11.178  19.270  0.00  0.00    +0.000 OA
BRANCH  16  17
ATOM     17  C   UNL     1      -1.135  11.102  19.629  0.00  0.00    +0.000 C 
BRANCH  17  18
ATOM     18  C   UNL     1      -2.005  10.643  18.460  0.00  0.00    +0.000 C 
BRANCH  18  19
ATOM     19  N   UNL     1      -2.934  11.697  17.987  0.00  0.00    +0.000 NA
BRANCH  19  21
ATOM     20  C   UNL     1      -2.635  10.593  15.745  0.00  0.00    +0.000 C 
ATOM     21  C   UNL     1      -3.574  11.265  16.741  0.00  0.00    +0.000 C 
ENDBRANCH  19  21
BRANCH  19  22
ATOM     22  C   UNL     1      -3.868  12.189  19.015  0.00  0.00    +0.000 C 
ATOM     23  C   UNL     1      -5.276  11.602  18.979  0.00  0.00    +0.000 C 
ENDBRANCH  19  22
ENDBRANCH  18  19
ENDBRANCH  17  18
ENDBRANCH  16  17
ENDBRANCH  10  16
ENDBRANCH   9  13
ENDBRANCH   8   9
ENDBRANCH   1   8
BRANCH   1  24
ATOM     24  C   UNL     1       3.812   3.192  17.409  0.00  0.00    +0.000 C 
BRANCH  24  25
ATOM     25  C   UNL     1       4.880   4.249  17.375  0.00  0.00    +0.000 A 
ATOM     26  C   UNL     1       5.745   4.509  18.367  0.00  0.00    +0.000 A 
ATOM     27  C   UNL     1       6.637   5.655  18.227  0.00  0.00    +0.000 A 
ATOM     28  C   UNL     1       7.742   5.872  19.050  0.00  0.00    +0.000 A 
ATOM     29  C   UNL     1       8.453   7.071  18.941  0.00  0.00    +0.000 A 
ATOM     30  C   UNL     1       8.034   8.055  18.045  0.00  0.00    +0.000 A 
ATOM     31  F   UNL     1       8.692   9.220  17.989  0.00  0.00    +0.000 F 
ATOM     32  C   UNL     1       6.957   7.841  17.198  0.00  0.00    +0.000 A 
ATOM     33  C   UNL     1       6.300   6.619  17.271  0.00  0.00    +0.000 A 
ATOM     34  O   UNL     1       5.322   6.363  16.304  0.00  0.00    +0.000 OA
ATOM     35  C   UNL     1       5.058   5.022  16.115  0.00  0.00    +0.000 A 
ATOM     36  O   UNL     1       4.895   4.524  15.012  0.00  0.00    +0.000 OA
ENDBRANCH  24  25
ENDBRANCH   1  24
TORSDOF 13
ENDMDL
MODEL 4
REMARK VINA RESULT:      -7.7      0.909      1.391
REMARK  Name = 
REMARK  15 active torsions:
REMARK  status: ('A' for Active; 'I' for Inactive)
REMARK    1  A    between atoms: C_1  and  C_2
REMARK    2  A    between atoms: C_2  and  N_3
REMARK    3  A    between atoms: N_3  and  C_4
REMARK    4  A    between atoms: N_3  and  C_6
REMARK    5  A    between atoms: C_4  and  C_5
REMARK    6  A    between atoms: C_6  and  C_7
REMARK    7  A    between atoms: C_7  and  O_8
REMARK    8  A    between atoms: O_8  and  C_9
REMARK    9  A    between atoms: C_12  and  C_13
REMARK   10  A    between atoms: C_13  and  C_14
REMARK   11  A    between atoms: C_14  and  C_15
REMARK   12  A    between atoms: C_15  and  C_16
REMARK   13  A    between atoms: C_15  and  C_29
REMARK   14  A    between atoms: C_16  and  C_17
REMARK   15  A    between atoms: N_31  and  O_32
REMARK                            x       y       z     vdW  Elec       q    Type
REMARK                         _______ _______ _______ _____ _____    ______ ____
ROOT
ATOM      1  C   UNL     1       3.877   3.606  18.597  0.00  0.00    +0.000 C 
ENDROOT
BRANCH   1   2
ATOM      2  C   UNL     1       2.736   2.582  18.644  0.00  0.00    +0.000 C 
ATOM      3  O   UNL     1       2.886   1.397  18.943  0.00  0.00    +0.000 OA
ATOM      4  N   UNL     1       1.488   3.074  18.338  0.00  0.00    +0.000 N 
ATOM      5  H   UNL     1       1.241   4.046  18.495  0.00  0.00    +0.000 HD
BRANCH   4   6
ATOM      6  O   UNL     1       0.436   2.138  18.503  0.00  0.00    +0.000 OA
ATOM      7  H   UNL     1       0.237   2.201  19.463  0.00  0.00    +0.000 HD
ENDBRANCH   4   6
ENDBRANCH   1   2
BRANCH   1   8
ATOM      8  C   UNL     1       3.854   4.304  17.216  0.00  0.00    +0.000 C 
BRANCH   8   9
ATOM      9  C   UNL     1       5.186   4.402  16.464  0.00  0.00    +0.000 C 
BRANCH   9  13
ATOM     10  C   UNL     1       7.961   7.200  18.209  0.00  0.00    +0.000 A 
ATOM     11  C   UNL     1       7.126   7.569  17.148  0.00  0.00    +0.000 A 
ATOM     12  C   UNL     1       6.242   6.659  16.586  0.00  0.00    +0.000 A 
ATOM     13  C   UNL     1       6.173   5.358  17.072  0.00  0.00    +0.000 A 
ATOM     14  C   UNL     1       6.993   4.982  18.146  0.00  0.00    +0.000 A 
ATOM     15  C   UNL     1       7.884   5.901  18.711  0.00  0.00    +0.000 A 
BRANCH  10  16
ATOM     16  O   UNL     1       8.868   8.038  18.815  0.00  0.00    +0.000 OA
BRANCH  16  17
ATOM     17  C   UNL     1       8.570   9.423  18.615  0.00  0.00    +0.000 C 
BRANCH  17  18
ATOM     18  C   UNL     1       8.964  10.274  19.821  0.00  0.00    +0.000 C 
BRANCH  18  19
ATOM     19  N   UNL     1      10.154  11.119  19.563  0.00  0.00    +0.000 NA
BRANCH  19  21
ATOM     20  C   UNL     1      11.242  11.927  17.442  0.00  0.00    +0.000 C 
ATOM     21  C   UNL     1       9.982  11.836  18.295  0.00  0.00    +0.000 C 
ENDBRANCH  19  21
BRANCH  19  22
ATOM     22  C   UNL     1      10.551  11.971  20.698  0.00  0.00    +0.000 C 
ATOM     23  C   UNL     1      10.169  13.445  20.597  0.00  0.00    +0.000 C 
ENDBRANCH  19  22
ENDBRANCH  18  19
ENDBRANCH  17  18
ENDBRANCH  16  17
ENDBRANCH  10  16
ENDBRANCH   9  13
ENDBRANCH   8   9
ENDBRANCH   1   8
BRANCH   1  24
ATOM     24  C   UNL     1       3.845   4.556  19.820  0.00  0.00    +0.000 C 
BRANCH  24  25
ATOM     25  C   UNL     1       2.972   5.770  19.662  0.00  0.00    +0.000 A 
ATOM     26  C   UNL     1       3.158   6.747  18.761  0.00  0.00    +0.000 A 
ATOM     27  C   UNL     1       2.295   7.921  18.824  0.00  0.00    +0.000 A 
ATOM     28  C   UNL     1       2.212   8.867  17.803  0.00  0.00    +0.000 A 
ATOM     29  C   UNL     1       1.473  10.037  18.009  0.00  0.00    +0.000 A 
ATOM     30  C   UNL     1       0.861  10.269  19.241  0.00  0.00    +0.000 A 
ATOM     31  F   UNL     1       0.203  11.418  19.444  0.00  0.00    +0.000 F 
ATOM     32  C   UNL     1       0.908   9.324  20.255  0.00  0.00    +0.000 A 
ATOM     33  C   UNL     1       1.590   8.138  20.012  0.00  0.00    +0.000 A 
ATOM     34  O   UNL     1       1.491   7.137  20.984  0.00  0.00    +0.000 OA
ATOM     35  C   UNL     1       1.753   5.868  20.510  0.00  0.00    +0.000 A 
ATOM     36  O   UNL     1       1.094   4.890  20.829  0.00  0.00    +0.000 OA
ENDBRANCH  24  25
ENDBRANCH   1  24
TORSDOF 13
ENDMDL
MODEL 5
REMARK VINA RESULT:      -7.6      3.762      7.910
REMARK  Name = 
REMARK  15 active torsions:
REMARK  status: ('A' for Active; 'I' for Inactive)
REMARK    1  A    between atoms: C_1  and  C_2
REMARK    2  A    between atoms: C_2  and  N_3
REMARK    3  A    between atoms: N_3  and  C_4
REMARK    4  A    between atoms: N_3  and  C_6
REMARK    5  A    between atoms: C_4  and  C_5
REMARK    6  A    between atoms: C_6  and  C_7
REMARK    7  A    between atoms: C_7  and  O_8
REMARK    8  A    between atoms: O_8  and  C_9
REMARK    9  A    between atoms: C_12  and  C_13
REMARK   10  A    between atoms: C_13  and  C_14
REMARK   11  A    between atoms: C_14  and  C_15
REMARK   12  A    between atoms: C_15  and  C_16
REMARK   13  A    between atoms: C_15  and  C_29
REMARK   14  A    between atoms: C_16  and  C_17
REMARK   15  A    between atoms: N_31  and  O_32
REMARK                            x       y       z     vdW  Elec       q    Type
REMARK                         _______ _______ _______ _____ _____    ______ ____
ROOT
ATOM      1  C   UNL     1       2.432   3.440  18.018  0.00  0.00    +0.000 C 
ENDROOT
BRANCH   1   2
ATOM      2  C   UNL     1       2.220   3.008  19.474  0.00  0.00    +0.000 C 
ATOM      3  O   UNL     1       3.120   2.597  20.207  0.00  0.00    +0.000 OA
ATOM      4  N   UNL     1       0.932   3.119  19.943  0.00  0.00    +0.000 N 
ATOM      5  H   UNL     1       0.281   3.801  19.566  0.00  0.00    +0.000 HD
BRANCH   4   6
ATOM      6  O   UNL     1       0.785   2.826  21.322  0.00  0.00    +0.000 OA
ATOM      7  H   UNL     1       0.486   1.890  21.315  0.00  0.00    +0.000 HD
ENDBRANCH   4   6
ENDBRANCH   1   2
BRANCH   1   8
ATOM      8  C   UNL     1       2.159   4.960  17.913  0.00  0.00    +0.000 C 
BRANCH   8   9
ATOM      9  C   UNL     1       2.771   5.852  18.998  0.00  0.00    +0.000 C 
BRANCH   9  13
ATOM     10  C   UNL     1       1.240   9.876  19.169  0.00  0.00    +0.000 A 
ATOM     11  C   UNL     1       1.207   9.038  20.289  0.00  0.00    +0.000 A 
ATOM     12  C   UNL     1       1.694   7.739  20.223  0.00  0.00    +0.000 A 
ATOM     13  C   UNL     1       2.225   7.250  19.034  0.00  0.00    +0.000 A 
ATOM     14  C   UNL     1       2.277   8.088  17.910  0.00  0.00    +0.000 A 
ATOM     15  C   UNL     1       1.786   9.396  17.979  0.00  0.00    +0.000 A 
BRANCH  10  16
ATOM     16  O   UNL     1       0.771  11.169  19.149  0.00  0.00    +0.000 OA
BRANCH  16  17
ATOM     17  C   UNL     1      -0.548  11.294  19.693  0.00  0.00    +0.000 C 
BRANCH  17  18
ATOM     18  C   UNL     1      -1.624  11.179  18.615  0.00  0.00    +0.000 C 
BRANCH  18  19
ATOM     19  N   UNL     1      -2.963  11.596  19.094  0.00  0.00    +0.000 NA
BRANCH  19  21
ATOM     20  C   UNL     1      -4.112  13.156  20.701  0.00  0.00    +0.000 C 
ATOM     21  C   UNL     1      -2.828  12.755  19.982  0.00  0.00    +0.000 C 
ENDBRANCH  19  21
BRANCH  19  22
ATOM     22  C   UNL     1      -3.967  11.756  18.028  0.00  0.00    +0.000 C 
ATOM     23  C   UNL     1      -5.096  10.729  18.009  0.00  0.00    +0.000 C 
ENDBRANCH  19  22
ENDBRANCH  18  19
ENDBRANCH  17  18
ENDBRANCH  16  17
ENDBRANCH  10  16
ENDBRANCH   9  13
ENDBRANCH   8   9
ENDBRANCH   1   8
BRANCH   1  24
ATOM     24  C   UNL     1       3.806   2.975  17.476  0.00  0.00    +0.000 C 
BRANCH  24  25
ATOM     25  C   UNL     1       4.865   4.040  17.423  0.00  0.00    +0.000 A 
ATOM     26  C   UNL     1       5.688   4.365  18.432  0.00  0.00    +0.000 A 
ATOM     27  C   UNL     1       6.574   5.511  18.262  0.00  0.00    +0.000 A 
ATOM     28  C   UNL     1       7.643   5.788  19.113  0.00  0.00    +0.000 A 
ATOM     29  C   UNL     1       8.348   6.987  18.963  0.00  0.00    +0.000 A 
ATOM     30  C   UNL     1       7.955   7.913  17.997  0.00  0.00    +0.000 A 
ATOM     31  F   UNL     1       8.604   9.081  17.901  0.00  0.00    +0.000 F 
ATOM     32  C   UNL     1       6.914   7.639  17.123  0.00  0.00    +0.000 A 
ATOM     33  C   UNL     1       6.266   6.416  17.240  0.00  0.00    +0.000 A 
ATOM     34  O   UNL     1       5.330   6.095  16.252  0.00  0.00    +0.000 OA
ATOM     35  C   UNL     1       5.085   4.742  16.130  0.00  0.00    +0.000 A 
ATOM     36  O   UNL     1       4.971   4.181  15.051  0.00  0.00    +0.000 OA
ENDBRANCH  24  25
ENDBRANCH   1  24
TORSDOF 13
ENDMDL
MODEL 6
REMARK VINA RESULT:      -7.6      4.779      8.051
REMARK  Name = 
REMARK  15 active torsions:
REMARK  status: ('A' for Active; 'I' for Inactive)
REMARK    1  A    between atoms: C_1  and  C_2
REMARK    2  A    between atoms: C_2  and  N_3
REMARK    3  A    between atoms: N_3  and  C_4
REMARK    4  A    between atoms: N_3  and  C_6
REMARK    5  A    between atoms: C_4  and  C_5
REMARK    6  A    between atoms: C_6  and  C_7
REMARK    7  A    between atoms: C_7  and  O_8
REMARK    8  A    between atoms: O_8  and  C_9
REMARK    9  A    between atoms: C_12  and  C_13
REMARK   10  A    between atoms: C_13  and  C_14
REMARK   11  A    between atoms: C_14  and  C_15
REMARK   12  A    between atoms: C_15  and  C_16
REMARK   13  A    between atoms: C_15  and  C_29
REMARK   14  A    between atoms: C_16  and  C_17
REMARK   15  A    between atoms: N_31  and  O_32
REMARK                            x       y       z     vdW  Elec       q    Type
REMARK                         _______ _______ _______ _____ _____    ______ ____
ROOT
ATOM      1  C   UNL     1       3.759   4.188  18.670  0.00  0.00    +0.000 C 
ENDROOT
BRANCH   1   2
ATOM      2  C   UNL     1       3.902   3.202  19.837  0.00  0.00    +0.000 C 
ATOM      3  O   UNL     1       4.902   2.512  20.035  0.00  0.00    +0.000 OA
ATOM      4  N   UNL     1       2.825   3.135  20.690  0.00  0.00    +0.000 N 
ATOM      5  H   UNL     1       2.199   3.923  20.827  0.00  0.00    +0.000 HD
BRANCH   4   6
ATOM      6  O   UNL     1       3.028   2.307  21.823  0.00  0.00    +0.000 OA
ATOM      7  H   UNL     1       2.477   2.741  22.511  0.00  0.00    +0.000 HD
ENDBRANCH   4   6
ENDBRANCH   1   2
BRANCH   1   8
ATOM      8  C   UNL     1       2.547   5.108  18.952  0.00  0.00    +0.000 C 
BRANCH   8   9
ATOM      9  C   UNL     1       2.738   6.209  20.000  0.00  0.00    +0.000 C 
BRANCH   9  13
ATOM     10  C   UNL     1       0.907   9.952  18.902  0.00  0.00    +0.000 A 
ATOM     11  C   UNL     1       1.580   9.168  17.958  0.00  0.00    +0.000 A 
ATOM     12  C   UNL     1       2.176   7.968  18.323  0.00  0.00    +0.000 A 
ATOM     13  C   UNL     1       2.111   7.526  19.640  0.00  0.00    +0.000 A 
ATOM     14  C   UNL     1       1.423   8.296  20.589  0.00  0.00    +0.000 A 
ATOM     15  C   UNL     1       0.824   9.505  20.220  0.00  0.00    +0.000 A 
BRANCH  10  16
ATOM     16  O   UNL     1       0.299  11.154  18.624  0.00  0.00    +0.000 OA
BRANCH  16  17
ATOM     17  C   UNL     1      -1.129  11.090  18.705  0.00  0.00    +0.000 C 
BRANCH  17  18
ATOM     18  C   UNL     1      -1.688  12.059  19.745  0.00  0.00    +0.000 C 
BRANCH  18  19
ATOM     19  N   UNL     1      -0.640  12.906  20.362  0.00  0.00    +0.000 NA
BRANCH  19  21
ATOM     20  C   UNL     1      -0.172  14.858  18.843  0.00  0.00    +0.000 C 
ATOM     21  C   UNL     1      -0.909  14.316  20.063  0.00  0.00    +0.000 C 
ENDBRANCH  19  21
BRANCH  19  22
ATOM     22  C   UNL     1      -0.388  12.621  21.786  0.00  0.00    +0.000 C 
ATOM     23  C   UNL     1      -1.402  11.714  22.478  0.00  0.00    +0.000 C 
ENDBRANCH  19  22
ENDBRANCH  18  19
ENDBRANCH  17  18
ENDBRANCH  16  17
ENDBRANCH  10  16
ENDBRANCH   9  13
ENDBRANCH   8   9
ENDBRANCH   1   8
BRANCH   1  24
ATOM     24  C   UNL     1       5.091   4.920  18.373  0.00  0.00    +0.000 C 
BRANCH  24  25
ATOM     25  C   UNL     1       5.487   4.960  16.923  0.00  0.00    +0.000 A 
ATOM     26  C   UNL     1       5.044   4.119  15.975  0.00  0.00    +0.000 A 
ATOM     27  C   UNL     1       5.626   4.210  14.641  0.00  0.00    +0.000 A 
ATOM     28  C   UNL     1       5.078   3.586  13.521  0.00  0.00    +0.000 A 
ATOM     29  C   UNL     1       5.782   3.604  12.312  0.00  0.00    +0.000 A 
ATOM     30  C   UNL     1       7.038   4.206  12.243  0.00  0.00    +0.000 A 
ATOM     31  F   UNL     1       7.725   4.169  11.094  0.00  0.00    +0.000 F 
ATOM     32  C   UNL     1       7.582   4.858  13.339  0.00  0.00    +0.000 A 
ATOM     33  C   UNL     1       6.842   4.889  14.515  0.00  0.00    +0.000 A 
ATOM     34  O   UNL     1       7.335   5.684  15.555  0.00  0.00    +0.000 OA
ATOM     35  C   UNL     1       6.376   6.064  16.472  0.00  0.00    +0.000 A 
ATOM     36  O   UNL     1       6.315   7.190  16.943  0.00  0.00    +0.000 OA
ENDBRANCH  24  25
ENDBRANCH   1  24
TORSDOF 13
ENDMDL
MODEL 7
REMARK VINA RESULT:      -7.5      4.499      7.569
REMARK  Name = 
REMARK  15 active torsions:
REMARK  status: ('A' for Active; 'I' for Inactive)
REMARK    1  A    between atoms: C_1  and  C_2
REMARK    2  A    between atoms: C_2  and  N_3
REMARK    3  A    between atoms: N_3  and  C_4
REMARK    4  A    between atoms: N_3  and  C_6
REMARK    5  A    between atoms: C_4  and  C_5
REMARK    6  A    between atoms: C_6  and  C_7
REMARK    7  A    between atoms: C_7  and  O_8
REMARK    8  A    between atoms: O_8  and  C_9
REMARK    9  A    between atoms: C_12  and  C_13
REMARK   10  A    between atoms: C_13  and  C_14
REMARK   11  A    between atoms: C_14  and  C_15
REMARK   12  A    between atoms: C_15  and  C_16
REMARK   13  A    between atoms: C_15  and  C_29
REMARK   14  A    between atoms: C_16  and  C_17
REMARK   15  A    between atoms: N_31  and  O_32
REMARK                            x       y       z     vdW  Elec       q    Type
REMARK                         _______ _______ _______ _____ _____    ______ ____
ROOT
ATOM      1  C   UNL     1       4.035   3.782  18.620  0.00  0.00    +0.000 C 
ENDROOT
BRANCH   1   2
ATOM      2  C   UNL     1       3.982   2.923  19.889  0.00  0.00    +0.000 C 
ATOM      3  O   UNL     1       2.983   2.807  20.600  0.00  0.00    +0.000 OA
ATOM      4  N   UNL     1       5.143   2.253  20.199  0.00  0.00    +0.000 N 
ATOM      5  H   UNL     1       5.810   1.978  19.484  0.00  0.00    +0.000 HD
BRANCH   4   6
ATOM      6  O   UNL     1       5.032   1.375  21.307  0.00  0.00    +0.000 OA
ATOM      7  H   UNL     1       4.062   1.338  21.459  0.00  0.00    +0.000 HD
ENDBRANCH   4   6
ENDBRANCH   1   2
BRANCH   1   8
ATOM      8  C   UNL     1       2.968   4.897  18.737  0.00  0.00    +0.000 C 
BRANCH   8   9
ATOM      9  C   UNL     1       3.350   6.143  19.543  0.00  0.00    +0.000 C 
BRANCH   9  13
ATOM     10  C   UNL     1       0.820   9.579  18.946  0.00  0.00    +0.000 A 
ATOM     11  C   UNL     1       0.896   8.941  20.188  0.00  0.00    +0.000 A 
ATOM     12  C   UNL     1       1.706   7.828  20.369  0.00  0.00    +0.000 A 
ATOM     13  C   UNL     1       2.459   7.330  19.311  0.00  0.00    +0.000 A 
ATOM     14  C   UNL     1       2.403   7.973  18.066  0.00  0.00    +0.000 A 
ATOM     15  C   UNL     1       1.585   9.094  17.886  0.00  0.00    +0.000 A 
BRANCH  10  16
ATOM     16  O   UNL     1       0.037  10.680  18.682  0.00  0.00    +0.000 OA
BRANCH  16  17
ATOM     17  C   UNL     1      -0.345  11.390  19.864  0.00  0.00    +0.000 C 
BRANCH  17  18
ATOM     18  C   UNL     1       0.444  12.688  20.033  0.00  0.00    +0.000 C 
BRANCH  18  19
ATOM     19  N   UNL     1       0.663  13.397  18.750  0.00  0.00    +0.000 NA
BRANCH  19  21
ATOM     20  C   UNL     1      -0.573  15.100  20.132  0.00  0.00    +0.000 C 
ATOM     21  C   UNL     1      -0.074  14.665  18.758  0.00  0.00    +0.000 C 
ENDBRANCH  19  21
BRANCH  19  22
ATOM     22  C   UNL     1       2.077  13.514  18.354  0.00  0.00    +0.000 C 
ATOM     23  C   UNL     1       3.035  14.021  19.428  0.00  0.00    +0.000 C 
ENDBRANCH  19  22
ENDBRANCH  18  19
ENDBRANCH  17  18
ENDBRANCH  16  17
ENDBRANCH  10  16
ENDBRANCH   9  13
ENDBRANCH   8   9
ENDBRANCH   1   8
BRANCH   1  24
ATOM     24  C   UNL     1       5.473   4.271  18.319  0.00  0.00    +0.000 C 
BRANCH  24  25
ATOM     25  C   UNL     1       5.769   4.527  16.867  0.00  0.00    +0.000 A 
ATOM     26  C   UNL     1       5.439   3.712  15.853  0.00  0.00    +0.000 A 
ATOM     27  C   UNL     1       5.914   4.044  14.515  0.00  0.00    +0.000 A 
ATOM     28  C   UNL     1       5.429   3.437  13.356  0.00  0.00    +0.000 A 
ATOM     29  C   UNL     1       6.044   3.708  12.130  0.00  0.00    +0.000 A 
ATOM     30  C   UNL     1       7.159   4.546  12.077  0.00  0.00    +0.000 A 
ATOM     31  F   UNL     1       7.772   4.753  10.904  0.00  0.00    +0.000 F 
ATOM     32  C   UNL     1       7.633   5.181  13.214  0.00  0.00    +0.000 A 
ATOM     33  C   UNL     1       6.971   4.954  14.414  0.00  0.00    +0.000 A 
ATOM     34  O   UNL     1       7.365   5.724  15.514  0.00  0.00    +0.000 OA
ATOM     35  C   UNL     1       6.407   5.821  16.502  0.00  0.00    +0.000 A 
ATOM     36  O   UNL     1       6.162   6.863  17.092  0.00  0.00    +0.000 OA
ENDBRANCH  24  25
ENDBRANCH   1  24
TORSDOF 13
ENDMDL
MODEL 8
REMARK VINA RESULT:      -7.5      4.624      7.725
REMARK  Name = 
REMARK  15 active torsions:
REMARK  status: ('A' for Active; 'I' for Inactive)
REMARK    1  A    between atoms: C_1  and  C_2
REMARK    2  A    between atoms: C_2  and  N_3
REMARK    3  A    between atoms: N_3  and  C_4
REMARK    4  A    between atoms: N_3  and  C_6
REMARK    5  A    between atoms: C_4  and  C_5
REMARK    6  A    between atoms: C_6  and  C_7
REMARK    7  A    between atoms: C_7  and  O_8
REMARK    8  A    between atoms: O_8  and  C_9
REMARK    9  A    between atoms: C_12  and  C_13
REMARK   10  A    between atoms: C_13  and  C_14
REMARK   11  A    between atoms: C_14  and  C_15
REMARK   12  A    between atoms: C_15  and  C_16
REMARK   13  A    between atoms: C_15  and  C_29
REMARK   14  A    between atoms: C_16  and  C_17
REMARK   15  A    between atoms: N_31  and  O_32
REMARK                            x       y       z     vdW  Elec       q    Type
REMARK                         _______ _______ _______ _____ _____    ______ ____
ROOT
ATOM      1  C   UNL     1       4.139   3.443  18.530  0.00  0.00    +0.000 C 
ENDROOT
BRANCH   1   2
ATOM      2  C   UNL     1       4.123   2.741  19.895  0.00  0.00    +0.000 C 
ATOM      3  O   UNL     1       5.075   2.110  20.355  0.00  0.00    +0.000 OA
ATOM      4  N   UNL     1       2.957   2.869  20.612  0.00  0.00    +0.000 N 
ATOM      5  H   UNL     1       2.342   3.670  20.499  0.00  0.00    +0.000 HD
BRANCH   4   6
ATOM      6  O   UNL     1       3.009   2.315  21.916  0.00  0.00    +0.000 OA
ATOM      7  H   UNL     1       3.780   1.708  21.863  0.00  0.00    +0.000 HD
ENDBRANCH   4   6
ENDBRANCH   1   2
BRANCH   1   8
ATOM      8  C   UNL     1       2.841   4.275  18.392  0.00  0.00    +0.000 C 
BRANCH   8   9
ATOM      9  C   UNL     1       2.989   5.713  17.883  0.00  0.00    +0.000 C 
BRANCH   9  13
ATOM     10  C   UNL     1       1.257   8.672  20.492  0.00  0.00    +0.000 A 
ATOM     11  C   UNL     1       1.471   7.359  20.925  0.00  0.00    +0.000 A 
ATOM     12  C   UNL     1       2.021   6.409  20.074  0.00  0.00    +0.000 A 
ATOM     13  C   UNL     1       2.368   6.752  18.772  0.00  0.00    +0.000 A 
ATOM     14  C   UNL     1       2.173   8.071  18.335  0.00  0.00    +0.000 A 
ATOM     15  C   UNL     1       1.618   9.026  19.193  0.00  0.00    +0.000 A 
BRANCH  10  16
ATOM     16  O   UNL     1       0.710   9.669  21.268  0.00  0.00    +0.000 OA
BRANCH  16  17
ATOM     17  C   UNL     1       0.984  10.981  20.767  0.00  0.00    +0.000 C 
BRANCH  17  18
ATOM     18  C   UNL     1      -0.276  11.672  20.250  0.00  0.00    +0.000 C 
BRANCH  18  19
ATOM     19  N   UNL     1      -0.128  12.176  18.864  0.00  0.00    +0.000 NA
BRANCH  19  21
ATOM     20  C   UNL     1      -2.626  12.021  19.133  0.00  0.00    +0.000 C 
ATOM     21  C   UNL     1      -1.433  12.165  18.195  0.00  0.00    +0.000 C 
ENDBRANCH  19  21
BRANCH  19  22
ATOM     22  C   UNL     1       0.603  13.451  18.757  0.00  0.00    +0.000 C 
ATOM     23  C   UNL     1       1.991  13.377  18.128  0.00  0.00    +0.000 C 
ENDBRANCH  19  22
ENDBRANCH  18  19
ENDBRANCH  17  18
ENDBRANCH  16  17
ENDBRANCH  10  16
ENDBRANCH   9  13
ENDBRANCH   8   9
ENDBRANCH   1   8
BRANCH   1  24
ATOM     24  C   UNL     1       5.455   4.226  18.304  0.00  0.00    +0.000 C 
BRANCH  24  25
ATOM     25  C   UNL     1       5.790   4.510  16.866  0.00  0.00    +0.000 A 
ATOM     26  C   UNL     1       5.435   3.745  15.822  0.00  0.00    +0.000 A 
ATOM     27  C   UNL     1       5.950   4.091  14.502  0.00  0.00    +0.000 A 
ATOM     28  C   UNL     1       5.455   3.546  13.318  0.00  0.00    +0.000 A 
ATOM     29  C   UNL     1       6.105   3.822  12.111  0.00  0.00    +0.000 A 
ATOM     30  C   UNL     1       7.262   4.601  12.102  0.00  0.00    +0.000 A 
ATOM     31  F   UNL     1       7.906   4.812  10.946  0.00  0.00    +0.000 F 
ATOM     32  C   UNL     1       7.749   5.176  13.266  0.00  0.00    +0.000 A 
ATOM     33  C   UNL     1       7.055   4.948  14.448  0.00  0.00    +0.000 A 
ATOM     34  O   UNL     1       7.469   5.662  15.577  0.00  0.00    +0.000 OA
ATOM     35  C   UNL     1       6.500   5.780  16.552  0.00  0.00    +0.000 A 
ATOM     36  O   UNL     1       6.299   6.814  17.170  0.00  0.00    +0.000 OA
ENDBRANCH  24  25
ENDBRANCH   1  24
TORSDOF 13
ENDMDL
MODEL 9
REMARK VINA RESULT:      -7.5      3.335      6.334
REMARK  Name = 
REMARK  15 active torsions:
REMARK  status: ('A' for Active; 'I' for Inactive)
REMARK    1  A    between atoms: C_1  and  C_2
REMARK    2  A    between atoms: C_2  and  N_3
REMARK    3  A    between atoms: N_3  and  C_4
REMARK    4  A    between atoms: N_3  and  C_6
REMARK    5  A    between atoms: C_4  and  C_5
REMARK    6  A    between atoms: C_6  and  C_7
REMARK    7  A    between atoms: C_7  and  O_8
REMARK    8  A    between atoms: O_8  and  C_9
REMARK    9  A    between atoms: C_12  and  C_13
REMARK   10  A    between atoms: C_13  and  C_14
REMARK   11  A    between atoms: C_14  and  C_15
REMARK   12  A    between atoms: C_15  and  C_16
REMARK   13  A    between atoms: C_15  and  C_29
REMARK   14  A    between atoms: C_16  and  C_17
REMARK   15  A    between atoms: N_31  and  O_32
REMARK                            x       y       z     vdW  Elec       q    Type
REMARK                         _______ _______ _______ _____ _____    ______ ____
ROOT
ATOM      1  C   UNL     1       2.304   3.391  18.582  0.00  0.00    +0.000 C 
ENDROOT
BRANCH   1   2
ATOM      2  C   UNL     1       2.269   3.012  20.068  0.00  0.00    +0.000 C 
ATOM      3  O   UNL     1       3.268   2.722  20.728  0.00  0.00    +0.000 OA
ATOM      4  N   UNL     1       1.024   3.025  20.652  0.00  0.00    +0.000 N 
ATOM      5  H   UNL     1       0.279   3.625  20.313  0.00  0.00    +0.000 HD
BRANCH   4   6
ATOM      6  O   UNL     1       1.033   2.788  22.050  0.00  0.00    +0.000 OA
ATOM      7  H   UNL     1       0.426   3.481  22.392  0.00  0.00    +0.000 HD
ENDBRANCH   4   6
ENDBRANCH   1   2
BRANCH   1   8
ATOM      8  C   UNL     1       2.015   4.906  18.455  0.00  0.00    +0.000 C 
BRANCH   8   9
ATOM      9  C   UNL     1       2.536   5.809  19.579  0.00  0.00    +0.000 C 
BRANCH   9  13
ATOM     10  C   UNL     1       1.320   9.922  19.167  0.00  0.00    +0.000 A 
ATOM     11  C   UNL     1       1.852   9.210  18.086  0.00  0.00    +0.000 A 
ATOM     12  C   UNL     1       2.250   7.888  18.230  0.00  0.00    +0.000 A 
ATOM     13  C   UNL     1       2.125   7.249  19.459  0.00  0.00    +0.000 A 
ATOM     14  C   UNL     1       1.577   7.949  20.544  0.00  0.00    +0.000 A 
ATOM     15  C   UNL     1       1.177   9.281  20.397  0.00  0.00    +0.000 A 
BRANCH  10  16
ATOM     16  O   UNL     1       0.910  11.234  19.109  0.00  0.00    +0.000 OA
BRANCH  16  17
ATOM     17  C   UNL     1       1.923  12.115  18.612  0.00  0.00    +0.000 C 
BRANCH  17  18
ATOM     18  C   UNL     1       2.038  13.387  19.451  0.00  0.00    +0.000 C 
BRANCH  18  19
ATOM     19  N   UNL     1       2.326  14.589  18.634  0.00  0.00    +0.000 NA
BRANCH  19  21
ATOM     20  C   UNL     1      -0.121  14.900  19.131  0.00  0.00    +0.000 C 
ATOM     21  C   UNL     1       1.208  15.532  18.736  0.00  0.00    +0.000 C 
ENDBRANCH  19  21
BRANCH  19  22
ATOM     22  C   UNL     1       3.652  15.184  18.876  0.00  0.00    +0.000 C 
ATOM     23  C   UNL     1       4.763  14.760  17.920  0.00  0.00    +0.000 C 
ENDBRANCH  19  22
ENDBRANCH  18  19
ENDBRANCH  17  18
ENDBRANCH  16  17
ENDBRANCH  10  16
ENDBRANCH   9  13
ENDBRANCH   8   9
ENDBRANCH   1   8
BRANCH   1  24
ATOM     24  C   UNL     1       3.607   2.906  17.898  0.00  0.00    +0.000 C 
BRANCH  24  25
ATOM     25  C   UNL     1       4.670   3.956  17.733  0.00  0.00    +0.000 A 
ATOM     26  C   UNL     1       5.560   4.312  18.673  0.00  0.00    +0.000 A 
ATOM     27  C   UNL     1       6.443   5.440  18.399  0.00  0.00    +0.000 A 
ATOM     28  C   UNL     1       7.568   5.738  19.168  0.00  0.00    +0.000 A 
ATOM     29  C   UNL     1       8.272   6.921  18.924  0.00  0.00    +0.000 A 
ATOM     30  C   UNL     1       7.826   7.812  17.947  0.00  0.00    +0.000 A 
ATOM     31  F   UNL     1       8.478   8.967  17.761  0.00  0.00    +0.000 F 
ATOM     32  C   UNL     1       6.729   7.515  17.153  0.00  0.00    +0.000 A 
ATOM     33  C   UNL     1       6.078   6.306  17.363  0.00  0.00    +0.000 A 
ATOM     34  O   UNL     1       5.077   5.956  16.451  0.00  0.00    +0.000 OA
ATOM     35  C   UNL     1       4.813   4.602  16.400  0.00  0.00    +0.000 A 
ATOM     36  O   UNL     1       4.624   3.999  15.355  0.00  0.00    +0.000 OA
ENDBRANCH  24  25
ENDBRANCH   1  24
TORSDOF 13
ENDMDL
