MODEL 1
REMARK VINA RESULT:      -7.5      0.000      0.000
REMARK  Name = 
REMARK  13 active torsions:
REMARK  status: ('A' for Active; 'I' for Inactive)
REMARK    1  A    between atoms: C_1  and  C_2
REMARK    2  A    between atoms: C_2  and  O_3
REMARK    3  A    between atoms: O_3  and  C_4
REMARK    4  A    between atoms: C_7  and  C_8
REMARK    5  A    between atoms: C_8  and  C_9
REMARK    6  A    between atoms: C_9  and  N_10
REMARK    7  A    between atoms: C_11  and  C_13
REMARK    8  A    between atoms: N_18  and  C_19
REMARK    9  A    between atoms: C_19  and  C_20
REMARK   10  A    between atoms: C_20  and  C_21
REMARK   11  A    between atoms: C_28  and  O_29
REMARK   12  A    between atoms: O_29  and  C_30
REMARK   13  A    between atoms: C_30  and  C_31
REMARK                            x       y       z     vdW  Elec       q    Type
REMARK                         _______ _______ _______ _____ _____    ______ ____
ROOT
ATOM      1  N   UNL     1       2.150   5.649  18.586  0.00  0.00    +0.000 N 
ATOM      2  C   UNL     1       1.690   4.405  18.195  0.00  0.00    +0.000 C 
ATOM      3  O   UNL     1       1.226   4.193  17.075  0.00  0.00    +0.000 OA
ATOM      4  H   UNL     1       2.738   5.684  19.413  0.00  0.00    +0.000 HD
ENDROOT
BRANCH   2   5
ATOM      5  C   UNL     1       1.700   3.303  19.264  0.00  0.00    +0.000 C 
ATOM      6  C   UNL     1       0.743   3.618  20.407  0.00  0.00    +0.000 C 
ATOM      7  C   UNL     1       1.239   2.731  21.538  0.00  0.00    +0.000 C 
ATOM      8  C   UNL     1       2.713   2.589  21.250  0.00  0.00    +0.000 C 
ATOM      9  O   UNL     1       3.522   2.081  22.007  0.00  0.00    +0.000 OA
ATOM     10  N   UNL     1       2.957   3.058  19.956  0.00  0.00    +0.000 N 
BRANCH  10  11
ATOM     11  C   UNL     1       4.181   2.680  19.247  0.00  0.00    +0.000 C 
BRANCH  11  12
ATOM     12  C   UNL     1       5.271   3.761  19.219  0.00  0.00    +0.000 C 
BRANCH  12  13
ATOM     13  C   UNL     1       5.385   4.574  17.948  0.00  0.00    +0.000 A 
ATOM     14  C   UNL     1       5.851   5.894  17.925  0.00  0.00    +0.000 A 
ATOM     15  C   UNL     1       5.887   6.617  16.732  0.00  0.00    +0.000 A 
ATOM     16  C   UNL     1       5.471   6.030  15.539  0.00  0.00    +0.000 A 
ATOM     17  C   UNL     1       5.057   4.704  15.537  0.00  0.00    +0.000 A 
ATOM     18  C   UNL     1       5.040   3.975  16.728  0.00  0.00    +0.000 A 
ENDBRANCH  12  13
ENDBRANCH  11  12
ENDBRANCH  10  11
ENDBRANCH   2   5
BRANCH   1  19
ATOM     19  C   UNL     1       2.260   6.704  17.589  0.00  0.00    +0.000 C 
BRANCH  19  20
ATOM     20  C   UNL     1       2.713   8.048  18.156  0.00  0.00    +0.000 C 
BRANCH  20  24
ATOM     21  C   UNL     1      -0.425  10.266  20.146  0.00  0.00    +0.000 A 
ATOM     22  C   UNL     1       0.455   9.462  20.887  0.00  0.00    +0.000 A 
ATOM     23  C   UNL     1       1.464   8.729  20.254  0.00  0.00    +0.000 A 
ATOM     24  C   UNL     1       1.592   8.771  18.860  0.00  0.00    +0.000 A 
ATOM     25  C   UNL     1       0.675   9.516  18.123  0.00  0.00    +0.000 A 
ATOM     26  C   UNL     1      -0.352  10.240  18.746  0.00  0.00    +0.000 A 
BRANCH  21  27
ATOM     27  O   UNL     1      -1.338  11.096  20.746  0.00  0.00    +0.000 OA
BRANCH  27  29
ATOM     28  C   UNL     1      -1.151  12.182  22.872  0.00  0.00    +0.000 C 
ATOM     29  C   UNL     1      -0.806  12.254  21.396  0.00  0.00    +0.000 C 
ENDBRANCH  27  29
ENDBRANCH  21  27
BRANCH  26  30
ATOM     30  O   UNL     1      -1.153  10.895  17.848  0.00  0.00    +0.000 OA
BRANCH  30  31
ATOM     31  C   UNL     1      -2.011  10.098  17.034  0.00  0.00    +0.000 C 
ATOM     32  C   UNL     1      -3.441  10.554  17.279  0.00  0.00    +0.000 C 
ENDBRANCH  30  31
ENDBRANCH  26  30
ENDBRANCH  20  24
ENDBRANCH  19  20
ENDBRANCH   1  19
TORSDOF 11
ENDMDL
MODEL 2
REMARK VINA RESULT:      -7.2      2.042      4.176
REMARK  Name = 
REMARK  13 active torsions:
REMARK  status: ('A' for Active; 'I' for Inactive)
REMARK    1  A    between atoms: C_1  and  C_2
REMARK    2  A    between atoms: C_2  and  O_3
REMARK    3  A    between atoms: O_3  and  C_4
REMARK    4  A    between atoms: C_7  and  C_8
REMARK    5  A    between atoms: C_8  and  C_9
REMARK    6  A    between atoms: C_9  and  N_10
REMARK    7  A    between atoms: C_11  and  C_13
REMARK    8  A    between atoms: N_18  and  C_19
REMARK    9  A    between atoms: C_19  and  C_20
REMARK   10  A    between atoms: C_20  and  C_21
REMARK   11  A    between atoms: C_28  and  O_29
REMARK   12  A    between atoms: O_29  and  C_30
REMARK   13  A    between atoms: C_30  and  C_31
REMARK                            x       y       z     vdW  Elec       q    Type
REMARK                         _______ _______ _______ _____ _____    ______ ____
ROOT
ATOM      1  N   UNL     1       3.026   6.668  19.232  0.00  0.00    +0.000 N 
ATOM      2  C   UNL     1       3.768   6.768  18.071  0.00  0.00    +0.000 C 
ATOM      3  O   UNL     1       3.493   7.568  17.177  0.00  0.00    +0.000 OA
ATOM      4  H   UNL     1       3.453   6.177  20.012  0.00  0.00    +0.000 HD
ENDROOT
BRANCH   2   5
ATOM      5  C   UNL     1       4.915   5.761  17.900  0.00  0.00    +0.000 C 
ATOM      6  C   UNL     1       6.234   6.458  17.587  0.00  0.00    +0.000 C 
ATOM      7  C   UNL     1       7.084   5.352  16.983  0.00  0.00    +0.000 C 
ATOM      8  C   UNL     1       6.066   4.435  16.351  0.00  0.00    +0.000 C 
ATOM      9  O   UNL     1       6.336   3.498  15.620  0.00  0.00    +0.000 OA
ATOM     10  N   UNL     1       4.798   4.796  16.816  0.00  0.00    +0.000 N 
BRANCH  10  11
ATOM     11  C   UNL     1       3.676   3.861  16.719  0.00  0.00    +0.000 C 
BRANCH  11  12
ATOM     12  C   UNL     1       3.689   2.726  17.752  0.00  0.00    +0.000 C 
BRANCH  12  13
ATOM     13  C   UNL     1       2.837   2.925  18.987  0.00  0.00    +0.000 A 
ATOM     14  C   UNL     1       1.537   3.443  18.943  0.00  0.00    +0.000 A 
ATOM     15  C   UNL     1       0.813   3.655  20.117  0.00  0.00    +0.000 A 
ATOM     16  C   UNL     1       1.371   3.342  21.355  0.00  0.00    +0.000 A 
ATOM     17  C   UNL     1       2.639   2.777  21.411  0.00  0.00    +0.000 A 
ATOM     18  C   UNL     1       3.355   2.547  20.234  0.00  0.00    +0.000 A 
ENDBRANCH  12  13
ENDBRANCH  11  12
ENDBRANCH  10  11
ENDBRANCH   2   5
BRANCH   1  19
ATOM     19  C   UNL     1       1.993   7.660  19.495  0.00  0.00    +0.000 C 
BRANCH  19  20
ATOM     20  C   UNL     1       1.525   7.696  20.949  0.00  0.00    +0.000 C 
BRANCH  20  24
ATOM     21  C   UNL     1      -0.914  11.190  21.708  0.00  0.00    +0.000 A 
ATOM     22  C   UNL     1      -0.547  10.339  22.762  0.00  0.00    +0.000 A 
ATOM     23  C   UNL     1       0.229   9.198  22.527  0.00  0.00    +0.000 A 
ATOM     24  C   UNL     1       0.629   8.879  21.224  0.00  0.00    +0.000 A 
ATOM     25  C   UNL     1       0.206   9.689  20.173  0.00  0.00    +0.000 A 
ATOM     26  C   UNL     1      -0.586  10.824  20.394  0.00  0.00    +0.000 A 
BRANCH  21  27
ATOM     27  O   UNL     1      -1.560  12.382  21.922  0.00  0.00    +0.000 OA
BRANCH  27  29
ATOM     28  C   UNL     1      -3.133  12.895  23.653  0.00  0.00    +0.000 C 
ATOM     29  C   UNL     1      -1.663  12.807  23.284  0.00  0.00    +0.000 C 
ENDBRANCH  27  29
ENDBRANCH  21  27
BRANCH  26  30
ATOM     30  O   UNL     1      -0.905  11.478  19.234  0.00  0.00    +0.000 OA
BRANCH  30  31
ATOM     31  C   UNL     1      -2.233  11.320  18.737  0.00  0.00    +0.000 C 
ATOM     32  C   UNL     1      -2.154  11.220  17.222  0.00  0.00    +0.000 C 
ENDBRANCH  30  31
ENDBRANCH  26  30
ENDBRANCH  20  24
ENDBRANCH  19  20
ENDBRANCH   1  19
TORSDOF 11
ENDMDL
MODEL 3
REMARK VINA RESULT:      -7.2      2.451      4.507
REMARK  Name = 
REMARK  13 active torsions:
REMARK  status: ('A' for Active; 'I' for Inactive)
REMARK    1  A    between atoms: C_1  and  C_2
REMARK    2  A    between atoms: C_2  and  O_3
REMARK    3  A    between atoms: O_3  and  C_4
REMARK    4  A    between atoms: C_7  and  C_8
REMARK    5  A    between atoms: C_8  and  C_9
REMARK    6  A    between atoms: C_9  and  N_10
REMARK    7  A    between atoms: C_11  and  C_13
REMARK    8  A    between atoms: N_18  and  C_19
REMARK    9  A    between atoms: C_19  and  C_20
REMARK   10  A    between atoms: C_20  and  C_21
REMARK   11  A    between atoms: C_28  and  O_29
REMARK   12  A    between atoms: O_29  and  C_30
REMARK   13  A    between atoms: C_30  and  C_31
REMARK                            x       y       z     vdW  Elec       q    Type
REMARK                         _______ _______ _______ _____ _____    ______ ____
ROOT
ATOM      1  N   UNL     1       3.016   6.691  19.183  0.00  0.00    +0.000 N 
ATOM      2  C   UNL     1       3.767   6.890  18.040  0.00  0.00    +0.000 C 
ATOM      3  O   UNL     1       3.492   7.757  17.211  0.00  0.00    +0.000 OA
ATOM      4  H   UNL     1       3.442   6.143  19.925  0.00  0.00    +0.000 HD
ENDROOT
BRANCH   2   5
ATOM      5  C   UNL     1       4.925   5.910  17.800  0.00  0.00    +0.000 C 
ATOM      6  C   UNL     1       6.189   6.632  17.349  0.00  0.00    +0.000 C 
ATOM      7  C   UNL     1       7.016   5.531  16.706  0.00  0.00    +0.000 C 
ATOM      8  C   UNL     1       5.975   4.564  16.198  0.00  0.00    +0.000 C 
ATOM      9  O   UNL     1       6.208   3.611  15.475  0.00  0.00    +0.000 OA
ATOM     10  N   UNL     1       4.743   4.906  16.762  0.00  0.00    +0.000 N 
BRANCH  10  11
ATOM     11  C   UNL     1       3.646   3.936  16.795  0.00  0.00    +0.000 C 
BRANCH  11  12
ATOM     12  C   UNL     1       3.782   2.842  17.863  0.00  0.00    +0.000 C 
BRANCH  12  13
ATOM     13  C   UNL     1       2.893   2.971  19.081  0.00  0.00    +0.000 A 
ATOM     14  C   UNL     1       1.583   3.464  19.022  0.00  0.00    +0.000 A 
ATOM     15  C   UNL     1       0.823   3.611  20.184  0.00  0.00    +0.000 A 
ATOM     16  C   UNL     1       1.353   3.255  21.422  0.00  0.00    +0.000 A 
ATOM     17  C   UNL     1       2.631   2.714  21.490  0.00  0.00    +0.000 A 
ATOM     18  C   UNL     1       3.383   2.549  20.325  0.00  0.00    +0.000 A 
ENDBRANCH  12  13
ENDBRANCH  11  12
ENDBRANCH  10  11
ENDBRANCH   2   5
BRANCH   1  19
ATOM     19  C   UNL     1       1.972   7.649  19.515  0.00  0.00    +0.000 C 
BRANCH  19  20
ATOM     20  C   UNL     1       1.434   7.511  20.938  0.00  0.00    +0.000 C 
BRANCH  20  24
ATOM     21  C   UNL     1      -0.521  11.142  22.253  0.00  0.00    +0.000 A 
ATOM     22  C   UNL     1      -0.567   9.984  23.046  0.00  0.00    +0.000 A 
ATOM     23  C   UNL     1       0.048   8.800  22.625  0.00  0.00    +0.000 A 
ATOM     24  C   UNL     1       0.701   8.752  21.387  0.00  0.00    +0.000 A 
ATOM     25  C   UNL     1       0.686   9.882  20.574  0.00  0.00    +0.000 A 
ATOM     26  C   UNL     1       0.057  11.069  20.978  0.00  0.00    +0.000 A 
BRANCH  21  27
ATOM     27  O   UNL     1      -0.999  12.350  22.696  0.00  0.00    +0.000 OA
BRANCH  27  29
ATOM     28  C   UNL     1      -3.258  12.703  21.985  0.00  0.00    +0.000 C 
ATOM     29  C   UNL     1      -2.353  12.361  23.155  0.00  0.00    +0.000 C 
ENDBRANCH  27  29
ENDBRANCH  21  27
BRANCH  26  30
ATOM     30  O   UNL     1       0.144  12.058  20.035  0.00  0.00    +0.000 OA
BRANCH  30  31
ATOM     31  C   UNL     1       1.432  12.623  19.795  0.00  0.00    +0.000 C 
ATOM     32  C   UNL     1       1.234  14.073  19.382  0.00  0.00    +0.000 C 
ENDBRANCH  30  31
ENDBRANCH  26  30
ENDBRANCH  20  24
ENDBRANCH  19  20
ENDBRANCH   1  19
TORSDOF 11
ENDMDL
MODEL 4
REMARK VINA RESULT:      -7.2      1.866      4.104
REMARK  Name = 
REMARK  13 active torsions:
REMARK  status: ('A' for Active; 'I' for Inactive)
REMARK    1  A    between atoms: C_1  and  C_2
REMARK    2  A    between atoms: C_2  and  O_3
REMARK    3  A    between atoms: O_3  and  C_4
REMARK    4  A    between atoms: C_7  and  C_8
REMARK    5  A    between atoms: C_8  and  C_9
REMARK    6  A    between atoms: C_9  and  N_10
REMARK    7  A    between atoms: C_11  and  C_13
REMARK    8  A    between atoms: N_18  and  C_19
REMARK    9  A    between atoms: C_19  and  C_20
REMARK   10  A    between atoms: C_20  and  C_21
REMARK   11  A    between atoms: C_28  and  O_29
REMARK   12  A    between atoms: O_29  and  C_30
REMARK   13  A    between atoms: C_30  and  C_31
REMARK                            x       y       z     vdW  Elec       q    Type
REMARK                         _______ _______ _______ _____ _____    ______ ____
ROOT
ATOM      1  N   UNL     1       3.418   7.002  18.066  0.00  0.00    +0.000 N 
ATOM      2  C   UNL     1       3.911   5.993  18.872  0.00  0.00    +0.000 C 
ATOM      3  O   UNL     1       3.522   5.820  20.027  0.00  0.00    +0.000 OA
ATOM      4  H   UNL     1       3.596   6.924  17.069  0.00  0.00    +0.000 HD
ENDROOT
BRANCH   2   5
ATOM      5  C   UNL     1       5.045   5.139  18.288  0.00  0.00    +0.000 C 
ATOM      6  C   UNL     1       6.287   5.974  17.998  0.00  0.00    +0.000 C 
ATOM      7  C   UNL     1       7.067   5.119  17.013  0.00  0.00    +0.000 C 
ATOM      8  C   UNL     1       5.991   4.336  16.302  0.00  0.00    +0.000 C 
ATOM      9  O   UNL     1       6.175   3.640  15.318  0.00  0.00    +0.000 OA
ATOM     10  N   UNL     1       4.796   4.484  17.012  0.00  0.00    +0.000 N 
BRANCH  10  11
ATOM     11  C   UNL     1       3.695   3.538  16.819  0.00  0.00    +0.000 C 
BRANCH  11  12
ATOM     12  C   UNL     1       3.662   2.372  17.817  0.00  0.00    +0.000 C 
BRANCH  12  13
ATOM     13  C   UNL     1       2.813   2.565  19.055  0.00  0.00    +0.000 A 
ATOM     14  C   UNL     1       1.451   2.886  19.005  0.00  0.00    +0.000 A 
ATOM     15  C   UNL     1       0.725   3.103  20.177  0.00  0.00    +0.000 A 
ATOM     16  C   UNL     1       1.344   2.990  21.420  0.00  0.00    +0.000 A 
ATOM     17  C   UNL     1       2.681   2.619  21.488  0.00  0.00    +0.000 A 
ATOM     18  C   UNL     1       3.402   2.382  20.314  0.00  0.00    +0.000 A 
ENDBRANCH  12  13
ENDBRANCH  11  12
ENDBRANCH  10  11
ENDBRANCH   2   5
BRANCH   1  19
ATOM     19  C   UNL     1       2.275   7.776  18.527  0.00  0.00    +0.000 C 
BRANCH  19  20
ATOM     20  C   UNL     1       2.029   9.055  17.727  0.00  0.00    +0.000 C 
BRANCH  20  24
ATOM     21  C   UNL     1      -1.019  11.632  19.399  0.00  0.00    +0.000 A 
ATOM     22  C   UNL     1       0.259  11.578  19.977  0.00  0.00    +0.000 A 
ATOM     23  C   UNL     1       1.249  10.738  19.455  0.00  0.00    +0.000 A 
ATOM     24  C   UNL     1       0.963   9.918  18.357  0.00  0.00    +0.000 A 
ATOM     25  C   UNL     1      -0.326   9.924  17.829  0.00  0.00    +0.000 A 
ATOM     26  C   UNL     1      -1.331  10.749  18.356  0.00  0.00    +0.000 A 
BRANCH  21  27
ATOM     27  O   UNL     1      -1.967  12.539  19.805  0.00  0.00    +0.000 OA
BRANCH  27  29
ATOM     28  C   UNL     1      -2.552  13.809  21.748  0.00  0.00    +0.000 C 
ATOM     29  C   UNL     1      -2.417  12.417  21.157  0.00  0.00    +0.000 C 
ENDBRANCH  27  29
ENDBRANCH  21  27
BRANCH  26  30
ATOM     30  O   UNL     1      -2.528  10.600  17.707  0.00  0.00    +0.000 OA
BRANCH  30  31
ATOM     31  C   UNL     1      -2.523   9.863  16.486  0.00  0.00    +0.000 C 
ATOM     32  C   UNL     1      -3.013  10.788  15.383  0.00  0.00    +0.000 C 
ENDBRANCH  30  31
ENDBRANCH  26  30
ENDBRANCH  20  24
ENDBRANCH  19  20
ENDBRANCH   1  19
TORSDOF 11
ENDMDL
MODEL 5
REMARK VINA RESULT:      -7.1      2.005      4.875
REMARK  Name = 
REMARK  13 active torsions:
REMARK  status: ('A' for Active; 'I' for Inactive)
REMARK    1  A    between atoms: C_1  and  C_2
REMARK    2  A    between atoms: C_2  and  O_3
REMARK    3  A    between atoms: O_3  and  C_4
REMARK    4  A    between atoms: C_7  and  C_8
REMARK    5  A    between atoms: C_8  and  C_9
REMARK    6  A    between atoms: C_9  and  N_10
REMARK    7  A    between atoms: C_11  and  C_13
REMARK    8  A    between atoms: N_18  and  C_19
REMARK    9  A    between atoms: C_19  and  C_20
REMARK   10  A    between atoms: C_20  and  C_21
REMARK   11  A    between atoms: C_28  and  O_29
REMARK   12  A    between atoms: O_29  and  C_30
REMARK   13  A    between atoms: C_30  and  C_31
REMARK                            x       y       z     vdW  Elec       q    Type
REMARK                         _______ _______ _______ _____ _____    ______ ____
ROOT
ATOM      1  N   UNL     1       4.292   5.819  18.657  0.00  0.00    +0.000 N 
ATOM      2  C   UNL     1       5.513   5.176  18.727  0.00  0.00    +0.000 C 
ATOM      3  O   UNL     1       6.202   5.173  19.747  0.00  0.00    +0.000 OA
ATOM      4  H   UNL     1       3.681   5.567  17.885  0.00  0.00    +0.000 HD
ENDROOT
BRANCH   2   5
ATOM      5  C   UNL     1       6.024   4.529  17.432  0.00  0.00    +0.000 C 
ATOM      6  C   UNL     1       7.082   5.390  16.752  0.00  0.00    +0.000 C 
ATOM      7  C   UNL     1       7.093   4.876  15.322  0.00  0.00    +0.000 C 
ATOM      8  C   UNL     1       5.683   4.376  15.120  0.00  0.00    +0.000 C 
ATOM      9  O   UNL     1       5.219   4.023  14.050  0.00  0.00    +0.000 OA
ATOM     10  N   UNL     1       5.055   4.314  16.367  0.00  0.00    +0.000 N 
BRANCH  10  11
ATOM     11  C   UNL     1       3.854   3.497  16.555  0.00  0.00    +0.000 C 
BRANCH  11  12
ATOM     12  C   UNL     1       3.944   2.467  17.690  0.00  0.00    +0.000 C 
BRANCH  12  13
ATOM     13  C   UNL     1       2.967   2.634  18.833  0.00  0.00    +0.000 A 
ATOM     14  C   UNL     1       1.592   2.817  18.643  0.00  0.00    +0.000 A 
ATOM     15  C   UNL     1       0.741   3.017  19.730  0.00  0.00    +0.000 A 
ATOM     16  C   UNL     1       1.247   3.024  21.029  0.00  0.00    +0.000 A 
ATOM     17  C   UNL     1       2.600   2.790  21.238  0.00  0.00    +0.000 A 
ATOM     18  C   UNL     1       3.448   2.570  20.149  0.00  0.00    +0.000 A 
ENDBRANCH  12  13
ENDBRANCH  11  12
ENDBRANCH  10  11
ENDBRANCH   2   5
BRANCH   1  19
ATOM     19  C   UNL     1       3.710   6.360  19.877  0.00  0.00    +0.000 C 
BRANCH  19  20
ATOM     20  C   UNL     1       2.193   6.531  19.817  0.00  0.00    +0.000 C 
BRANCH  20  24
ATOM     21  C   UNL     1       0.895  10.620  19.241  0.00  0.00    +0.000 A 
ATOM     22  C   UNL     1       1.350   9.860  18.152  0.00  0.00    +0.000 A 
ATOM     23  C   UNL     1       1.786   8.542  18.328  0.00  0.00    +0.000 A 
ATOM     24  C   UNL     1       1.796   7.972  19.607  0.00  0.00    +0.000 A 
ATOM     25  C   UNL     1       1.408   8.751  20.694  0.00  0.00    +0.000 A 
ATOM     26  C   UNL     1       0.986  10.079  20.532  0.00  0.00    +0.000 A 
BRANCH  21  27
ATOM     27  O   UNL     1       0.340  11.865  19.082  0.00  0.00    +0.000 OA
BRANCH  27  29
ATOM     28  C   UNL     1      -1.716  11.785  17.858  0.00  0.00    +0.000 C 
ATOM     29  C   UNL     1      -1.080  11.945  19.227  0.00  0.00    +0.000 C 
ENDBRANCH  27  29
ENDBRANCH  21  27
BRANCH  26  30
ATOM     30  O   UNL     1       0.659  10.676  21.720  0.00  0.00    +0.000 OA
BRANCH  30  31
ATOM     31  C   UNL     1      -0.111   9.912  22.646  0.00  0.00    +0.000 C 
ATOM     32  C   UNL     1      -1.237  10.799  23.156  0.00  0.00    +0.000 C 
ENDBRANCH  30  31
ENDBRANCH  26  30
ENDBRANCH  20  24
ENDBRANCH  19  20
ENDBRANCH   1  19
TORSDOF 11
ENDMDL
MODEL 6
REMARK VINA RESULT:      -7.1      2.658      4.604
REMARK  Name = 
REMARK  13 active torsions:
REMARK  status: ('A' for Active; 'I' for Inactive)
REMARK    1  A    between atoms: C_1  and  C_2
REMARK    2  A    between atoms: C_2  and  O_3
REMARK    3  A    between atoms: O_3  and  C_4
REMARK    4  A    between atoms: C_7  and  C_8
REMARK    5  A    between atoms: C_8  and  C_9
REMARK    6  A    between atoms: C_9  and  N_10
REMARK    7  A    between atoms: C_11  and  C_13
REMARK    8  A    between atoms: N_18  and  C_19
REMARK    9  A    between atoms: C_19  and  C_20
REMARK   10  A    between atoms: C_20  and  C_21
REMARK   11  A    between atoms: C_28  and  O_29
REMARK   12  A    between atoms: O_29  and  C_30
REMARK   13  A    between atoms: C_30  and  C_31
REMARK                            x       y       z     vdW  Elec       q    Type
REMARK                         _______ _______ _______ _____ _____    ______ ____
ROOT
ATOM      1  N   UNL     1       4.071   5.168  19.636  0.00  0.00    +0.000 N 
ATOM      2  C   UNL     1       4.836   4.392  18.785  0.00  0.00    +0.000 C 
ATOM      3  O   UNL     1       4.516   3.247  18.467  0.00  0.00    +0.000 OA
ATOM      4  H   UNL     1       4.263   6.166  19.647  0.00  0.00    +0.000 HD
ENDROOT
BRANCH   2   5
ATOM      5  C   UNL     1       6.168   4.995  18.317  0.00  0.00    +0.000 C 
ATOM      6  C   UNL     1       7.022   5.456  19.492  0.00  0.00    +0.000 C 
ATOM      7  C   UNL     1       8.005   6.427  18.857  0.00  0.00    +0.000 C 
ATOM      8  C   UNL     1       7.238   6.978  17.680  0.00  0.00    +0.000 C 
ATOM      9  O   UNL     1       7.607   7.911  16.988  0.00  0.00    +0.000 OA
ATOM     10  N   UNL     1       6.104   6.186  17.483  0.00  0.00    +0.000 N 
BRANCH  10  11
ATOM     11  C   UNL     1       5.397   6.206  16.200  0.00  0.00    +0.000 C 
BRANCH  11  12
ATOM     12  C   UNL     1       5.183   4.828  15.559  0.00  0.00    +0.000 C 
BRANCH  12  13
ATOM     13  C   UNL     1       5.949   4.550  14.284  0.00  0.00    +0.000 A 
ATOM     14  C   UNL     1       7.167   5.166  13.974  0.00  0.00    +0.000 A 
ATOM     15  C   UNL     1       7.808   4.912  12.761  0.00  0.00    +0.000 A 
ATOM     16  C   UNL     1       7.249   4.027  11.841  0.00  0.00    +0.000 A 
ATOM     17  C   UNL     1       6.068   3.366  12.156  0.00  0.00    +0.000 A 
ATOM     18  C   UNL     1       5.438   3.607  13.380  0.00  0.00    +0.000 A 
ENDBRANCH  12  13
ENDBRANCH  11  12
ENDBRANCH  10  11
ENDBRANCH   2   5
BRANCH   1  19
ATOM     19  C   UNL     1       2.753   4.692  20.029  0.00  0.00    +0.000 C 
BRANCH  19  20
ATOM     20  C   UNL     1       1.947   5.702  20.844  0.00  0.00    +0.000 C 
BRANCH  20  24
ATOM     21  C   UNL     1       1.473   9.509  18.841  0.00  0.00    +0.000 A 
ATOM     22  C   UNL     1       1.977   8.399  18.145  0.00  0.00    +0.000 A 
ATOM     23  C   UNL     1       2.149   7.167  18.785  0.00  0.00    +0.000 A 
ATOM     24  C   UNL     1       1.840   7.034  20.144  0.00  0.00    +0.000 A 
ATOM     25  C   UNL     1       1.404   8.155  20.847  0.00  0.00    +0.000 A 
ATOM     26  C   UNL     1       1.245   9.399  20.220  0.00  0.00    +0.000 A 
BRANCH  21  27
ATOM     27  O   UNL     1       1.170  10.691  18.212  0.00  0.00    +0.000 OA
BRANCH  27  29
ATOM     28  C   UNL     1       1.427  13.054  18.496  0.00  0.00    +0.000 C 
ATOM     29  C   UNL     1       2.147  11.730  18.319  0.00  0.00    +0.000 C 
ENDBRANCH  27  29
ENDBRANCH  21  27
BRANCH  26  30
ATOM     30  O   UNL     1       0.820  10.374  21.084  0.00  0.00    +0.000 OA
BRANCH  30  31
ATOM     31  C   UNL     1      -0.539  10.321  21.512  0.00  0.00    +0.000 C 
ATOM     32  C   UNL     1      -0.545  10.239  23.030  0.00  0.00    +0.000 C 
ENDBRANCH  30  31
ENDBRANCH  26  30
ENDBRANCH  20  24
ENDBRANCH  19  20
ENDBRANCH   1  19
TORSDOF 11
ENDMDL
MODEL 7
REMARK VINA RESULT:      -7.0      0.775      1.122
REMARK  Name = 
REMARK  13 active torsions:
REMARK  status: ('A' for Active; 'I' for Inactive)
REMARK    1  A    between atoms: C_1  and  C_2
REMARK    2  A    between atoms: C_2  and  O_3
REMARK    3  A    between atoms: O_3  and  C_4
REMARK    4  A    between atoms: C_7  and  C_8
REMARK    5  A    between atoms: C_8  and  C_9
REMARK    6  A    between atoms: C_9  and  N_10
REMARK    7  A    between atoms: C_11  and  C_13
REMARK    8  A    between atoms: N_18  and  C_19
REMARK    9  A    between atoms: C_19  and  C_20
REMARK   10  A    between atoms: C_20  and  C_21
REMARK   11  A    between atoms: C_28  and  O_29
REMARK   12  A    between atoms: O_29  and  C_30
REMARK   13  A    between atoms: C_30  and  C_31
REMARK                            x       y       z     vdW  Elec       q    Type
REMARK                         _______ _______ _______ _____ _____    ______ ____
ROOT
ATOM      1  N   UNL     1       2.143   5.689  18.610  0.00  0.00    +0.000 N 
ATOM      2  C   UNL     1       1.617   4.461  18.255  0.00  0.00    +0.000 C 
ATOM      3  O   UNL     1       1.030   4.276  17.188  0.00  0.00    +0.000 OA
ATOM      4  H   UNL     1       2.818   5.699  19.369  0.00  0.00    +0.000 HD
ENDROOT
BRANCH   2   5
ATOM      5  C   UNL     1       1.718   3.342  19.301  0.00  0.00    +0.000 C 
ATOM      6  C   UNL     1       1.013   3.717  20.598  0.00  0.00    +0.000 C 
ATOM      7  C   UNL     1       1.620   2.769  21.619  0.00  0.00    +0.000 C 
ATOM      8  C   UNL     1       3.001   2.504  21.071  0.00  0.00    +0.000 C 
ATOM      9  O   UNL     1       3.883   1.913  21.669  0.00  0.00    +0.000 OA
ATOM     10  N   UNL     1       3.051   2.974  19.756  0.00  0.00    +0.000 N 
BRANCH  10  11
ATOM     11  C   UNL     1       4.090   2.504  18.838  0.00  0.00    +0.000 C 
BRANCH  11  12
ATOM     12  C   UNL     1       4.284   3.368  17.584  0.00  0.00    +0.000 C 
BRANCH  12  13
ATOM     13  C   UNL     1       5.310   4.476  17.677  0.00  0.00    +0.000 A 
ATOM     14  C   UNL     1       6.161   4.639  18.777  0.00  0.00    +0.000 A 
ATOM     15  C   UNL     1       7.056   5.708  18.835  0.00  0.00    +0.000 A 
ATOM     16  C   UNL     1       7.125   6.627  17.790  0.00  0.00    +0.000 A 
ATOM     17  C   UNL     1       6.326   6.448  16.668  0.00  0.00    +0.000 A 
ATOM     18  C   UNL     1       5.445   5.366  16.602  0.00  0.00    +0.000 A 
ENDBRANCH  12  13
ENDBRANCH  11  12
ENDBRANCH  10  11
ENDBRANCH   2   5
BRANCH   1  19
ATOM     19  C   UNL     1       2.168   6.757  17.621  0.00  0.00    +0.000 C 
BRANCH  19  20
ATOM     20  C   UNL     1       2.694   8.086  18.159  0.00  0.00    +0.000 C 
BRANCH  20  24
ATOM     21  C   UNL     1      -0.203  10.333  20.460  0.00  0.00    +0.000 A 
ATOM     22  C   UNL     1       0.576   9.340  21.075  0.00  0.00    +0.000 A 
ATOM     23  C   UNL     1       1.505   8.597  20.339  0.00  0.00    +0.000 A 
ATOM     24  C   UNL     1       1.651   8.822  18.965  0.00  0.00    +0.000 A 
ATOM     25  C   UNL     1       0.829   9.760  18.346  0.00  0.00    +0.000 A 
ATOM     26  C   UNL     1      -0.118  10.498  19.070  0.00  0.00    +0.000 A 
BRANCH  21  27
ATOM     27  O   UNL     1      -1.025  11.165  21.177  0.00  0.00    +0.000 OA
BRANCH  27  29
ATOM     28  C   UNL     1      -2.140  11.827  23.190  0.00  0.00    +0.000 C 
ATOM     29  C   UNL     1      -1.035  10.975  22.594  0.00  0.00    +0.000 C 
ENDBRANCH  27  29
ENDBRANCH  21  27
BRANCH  26  30
ATOM     30  O   UNL     1      -0.833  11.357  18.279  0.00  0.00    +0.000 OA
BRANCH  30  31
ATOM     31  C   UNL     1      -2.024  10.854  17.675  0.00  0.00    +0.000 C 
ATOM     32  C   UNL     1      -3.208  11.525  18.354  0.00  0.00    +0.000 C 
ENDBRANCH  30  31
ENDBRANCH  26  30
ENDBRANCH  20  24
ENDBRANCH  19  20
ENDBRANCH   1  19
TORSDOF 11
ENDMDL
MODEL 8
REMARK VINA RESULT:      -7.0      1.882      4.170
REMARK  Name = 
REMARK  13 active torsions:
REMARK  status: ('A' for Active; 'I' for Inactive)
REMARK    1  A    between atoms: C_1  and  C_2
REMARK    2  A    between atoms: C_2  and  O_3
REMARK    3  A    between atoms: O_3  and  C_4
REMARK    4  A    between atoms: C_7  and  C_8
REMARK    5  A    between atoms: C_8  and  C_9
REMARK    6  A    between atoms: C_9  and  N_10
REMARK    7  A    between atoms: C_11  and  C_13
REMARK    8  A    between atoms: N_18  and  C_19
REMARK    9  A    between atoms: C_19  and  C_20
REMARK   10  A    between atoms: C_20  and  C_21
REMARK   11  A    between atoms: C_28  and  O_29
REMARK   12  A    between atoms: O_29  and  C_30
REMARK   13  A    between atoms: C_30  and  C_31
REMARK                            x       y       z     vdW  Elec       q    Type
REMARK                         _______ _______ _______ _____ _____    ______ ____
ROOT
ATOM      1  N   UNL     1       3.115   7.434  17.521  0.00  0.00    +0.000 N 
ATOM      2  C   UNL     1       3.602   6.467  18.380  0.00  0.00    +0.000 C 
ATOM      3  O   UNL     1       3.086   6.232  19.473  0.00  0.00    +0.000 OA
ATOM      4  H   UNL     1       3.429   7.394  16.556  0.00  0.00    +0.000 HD
ENDROOT
BRANCH   2   5
ATOM      5  C   UNL     1       4.886   5.746  17.946  0.00  0.00    +0.000 C 
ATOM      6  C   UNL     1       5.969   6.730  17.521  0.00  0.00    +0.000 C 
ATOM      7  C   UNL     1       6.917   5.879  16.692  0.00  0.00    +0.000 C 
ATOM      8  C   UNL     1       6.017   4.810  16.122  0.00  0.00    +0.000 C 
ATOM      9  O   UNL     1       6.350   4.006  15.268  0.00  0.00    +0.000 OA
ATOM     10  N   UNL     1       4.795   4.856  16.797  0.00  0.00    +0.000 N 
BRANCH  10  11
ATOM     11  C   UNL     1       3.884   3.710  16.765  0.00  0.00    +0.000 C 
BRANCH  11  12
ATOM     12  C   UNL     1       4.051   2.719  17.926  0.00  0.00    +0.000 C 
BRANCH  12  13
ATOM     13  C   UNL     1       3.030   2.803  19.040  0.00  0.00    +0.000 A 
ATOM     14  C   UNL     1       1.663   3.000  18.810  0.00  0.00    +0.000 A 
ATOM     15  C   UNL     1       0.770   3.121  19.875  0.00  0.00    +0.000 A 
ATOM     16  C   UNL     1       1.225   3.035  21.189  0.00  0.00    +0.000 A 
ATOM     17  C   UNL     1       2.570   2.785  21.433  0.00  0.00    +0.000 A 
ATOM     18  C   UNL     1       3.460   2.644  20.365  0.00  0.00    +0.000 A 
ENDBRANCH  12  13
ENDBRANCH  11  12
ENDBRANCH  10  11
ENDBRANCH   2   5
BRANCH   1  19
ATOM     19  C   UNL     1       1.847   8.077  17.831  0.00  0.00    +0.000 C 
BRANCH  19  20
ATOM     20  C   UNL     1       1.973   9.557  18.188  0.00  0.00    +0.000 C 
BRANCH  20  24
ATOM     21  C   UNL     1      -0.734  10.863  21.301  0.00  0.00    +0.000 A 
ATOM     22  C   UNL     1       0.154   9.801  21.533  0.00  0.00    +0.000 A 
ATOM     23  C   UNL     1       1.023   9.360  20.530  0.00  0.00    +0.000 A 
ATOM     24  C   UNL     1       0.999   9.963  19.266  0.00  0.00    +0.000 A 
ATOM     25  C   UNL     1       0.070  10.971  19.020  0.00  0.00    +0.000 A 
ATOM     26  C   UNL     1      -0.819  11.409  20.012  0.00  0.00    +0.000 A 
BRANCH  21  27
ATOM     27  O   UNL     1      -1.505  11.403  22.301  0.00  0.00    +0.000 OA
BRANCH  27  29
ATOM     28  C   UNL     1      -2.224  13.535  23.120  0.00  0.00    +0.000 C 
ATOM     29  C   UNL     1      -1.033  12.628  22.868  0.00  0.00    +0.000 C 
ENDBRANCH  27  29
ENDBRANCH  21  27
BRANCH  26  30
ATOM     30  O   UNL     1      -1.658  12.397  19.569  0.00  0.00    +0.000 OA
BRANCH  30  31
ATOM     31  C   UNL     1      -2.939  11.998  19.085  0.00  0.00    +0.000 C 
ATOM     32  C   UNL     1      -3.991  12.612  19.995  0.00  0.00    +0.000 C 
ENDBRANCH  30  31
ENDBRANCH  26  30
ENDBRANCH  20  24
ENDBRANCH  19  20
ENDBRANCH   1  19
TORSDOF 11
ENDMDL
MODEL 9
REMARK VINA RESULT:      -7.0      6.382      8.717
REMARK  Name = 
REMARK  13 active torsions:
REMARK  status: ('A' for Active; 'I' for Inactive)
REMARK    1  A    between atoms: C_1  and  C_2
REMARK    2  A    between atoms: C_2  and  O_3
REMARK    3  A    between atoms: O_3  and  C_4
REMARK    4  A    between atoms: C_7  and  C_8
REMARK    5  A    between atoms: C_8  and  C_9
REMARK    6  A    between atoms: C_9  and  N_10
REMARK    7  A    between atoms: C_11  and  C_13
REMARK    8  A    between atoms: N_18  and  C_19
REMARK    9  A    between atoms: C_19  and  C_20
REMARK   10  A    between atoms: C_20  and  C_21
REMARK   11  A    between atoms: C_28  and  O_29
REMARK   12  A    between atoms: O_29  and  C_30
REMARK   13  A    between atoms: C_30  and  C_31
REMARK                            x       y       z     vdW  Elec       q    Type
REMARK                         _______ _______ _______ _____ _____    ______ ____
ROOT
ATOM      1  N   UNL     1       8.129   7.827  17.866  0.00  0.00    +0.000 N 
ATOM      2  C   UNL     1       6.974   7.337  17.286  0.00  0.00    +0.000 C 
ATOM      3  O   UNL     1       6.024   8.061  16.988  0.00  0.00    +0.000 OA
ATOM      4  H   UNL     1       8.946   7.224  17.847  0.00  0.00    +0.000 HD
ENDROOT
BRANCH   2   5
ATOM      5  C   UNL     1       6.889   5.815  17.105  0.00  0.00    +0.000 C 
ATOM      6  C   UNL     1       6.870   5.422  15.633  0.00  0.00    +0.000 C 
ATOM      7  C   UNL     1       6.300   4.013  15.649  0.00  0.00    +0.000 C 
ATOM      8  C   UNL     1       5.419   4.007  16.874  0.00  0.00    +0.000 C 
ATOM      9  O   UNL     1       4.648   3.111  17.169  0.00  0.00    +0.000 OA
ATOM     10  N   UNL     1       5.706   5.147  17.629  0.00  0.00    +0.000 N 
BRANCH  10  11
ATOM     11  C   UNL     1       5.330   5.217  19.043  0.00  0.00    +0.000 C 
BRANCH  11  12
ATOM     12  C   UNL     1       3.936   5.801  19.313  0.00  0.00    +0.000 C 
BRANCH  12  13
ATOM     13  C   UNL     1       2.809   4.808  19.491  0.00  0.00    +0.000 A 
ATOM     14  C   UNL     1       2.024   4.344  18.428  0.00  0.00    +0.000 A 
ATOM     15  C   UNL     1       0.963   3.466  18.655  0.00  0.00    +0.000 A 
ATOM     16  C   UNL     1       0.676   3.026  19.945  0.00  0.00    +0.000 A 
ATOM     17  C   UNL     1       1.479   3.435  21.003  0.00  0.00    +0.000 A 
ATOM     18  C   UNL     1       2.553   4.298  20.772  0.00  0.00    +0.000 A 
ENDBRANCH  12  13
ENDBRANCH  11  12
ENDBRANCH  10  11
ENDBRANCH   2   5
BRANCH   1  19
ATOM     19  C   UNL     1       8.309   9.268  17.968  0.00  0.00    +0.000 C 
BRANCH  19  20
ATOM     20  C   UNL     1       9.032   9.714  19.238  0.00  0.00    +0.000 C 
BRANCH  20  24
ATOM     21  C   UNL     1      10.991  13.532  18.673  0.00  0.00    +0.000 A 
ATOM     22  C   UNL     1      10.958  12.590  17.632  0.00  0.00    +0.000 A 
ATOM     23  C   UNL     1      10.341  11.347  17.807  0.00  0.00    +0.000 A 
ATOM     24  C   UNL     1       9.767  11.017  19.041  0.00  0.00    +0.000 A 
ATOM     25  C   UNL     1       9.861  11.927  20.091  0.00  0.00    +0.000 A 
ATOM     26  C   UNL     1      10.493  13.169  19.932  0.00  0.00    +0.000 A 
BRANCH  21  27
ATOM     27  O   UNL     1      11.471  14.805  18.492  0.00  0.00    +0.000 OA
BRANCH  27  29
ATOM     28  C   UNL     1      10.882  16.353  16.763  0.00  0.00    +0.000 C 
ATOM     29  C   UNL     1      10.507  15.795  18.124  0.00  0.00    +0.000 C 
ENDBRANCH  27  29
ENDBRANCH  21  27
BRANCH  26  30
ATOM     30  O   UNL     1      10.491  13.912  21.083  0.00  0.00    +0.000 OA
BRANCH  30  31
ATOM     31  C   UNL     1       9.542  13.559  22.088  0.00  0.00    +0.000 C 
ATOM     32  C   UNL     1       8.988  14.847  22.677  0.00  0.00    +0.000 C 
ENDBRANCH  30  31
ENDBRANCH  26  30
ENDBRANCH  20  24
ENDBRANCH  19  20
ENDBRANCH   1  19
TORSDOF 11
ENDMDL
