MODEL 1
REMARK VINA RESULT:      -9.1      0.000      0.000
REMARK  Name = 
REMARK  4 active torsions:
REMARK  status: ('A' for Active; 'I' for Inactive)
REMARK    1  A    between atoms: C_2  and  C_21
REMARK    2  A    between atoms: C_9  and  C_10
REMARK    3  A    between atoms: C_14  and  C_15
REMARK    4  A    between atoms: C_15  and  O_16
REMARK                            x       y       z     vdW  Elec       q    Type
REMARK                         _______ _______ _______ _____ _____    ______ ____
ROOT
ATOM      1  O   UNL     1       1.527   9.913  18.755  0.00  0.00    +0.000 OA
ATOM      2  C   UNL     1       1.412   9.187  19.739  0.00  0.00    +0.000 C 
ATOM      3  N   UNL     1       1.900   7.914  19.890  0.00  0.00    +0.000 N 
ATOM      4  C   UNL     1       2.709   7.238  19.015  0.00  0.00    +0.000 A 
ATOM      5  N   UNL     1       2.974   5.964  19.180  0.00  0.00    +0.000 NA
ATOM      6  C   UNL     1       3.733   5.513  18.113  0.00  0.00    +0.000 A 
ATOM      7  C   UNL     1       4.141   4.187  17.877  0.00  0.00    +0.000 A 
ATOM      8  C   UNL     1       4.871   3.883  16.715  0.00  0.00    +0.000 A 
ATOM      9  C   UNL     1       5.221   4.867  15.777  0.00  0.00    +0.000 A 
ATOM     10  C   UNL     1       4.838   6.196  16.038  0.00  0.00    +0.000 A 
ATOM     11  C   UNL     1       4.093   6.490  17.189  0.00  0.00    +0.000 A 
ATOM     12  S   UNL     1       3.459   8.000  17.696  0.00  0.00    +0.000 S 
ATOM     13  H   UNL     1       1.624   7.356  20.687  0.00  0.00    +0.000 HD
ENDROOT
BRANCH   2  14
ATOM     14  C   UNL     1       0.565   9.682  20.861  0.00  0.00    +0.000 A 
ATOM     15  C   UNL     1       0.780   9.073  22.110  0.00  0.00    +0.000 A 
ATOM     16  C   UNL     1       0.038   9.455  23.228  0.00  0.00    +0.000 A 
ATOM     17  C   UNL     1      -0.925  10.452  23.108  0.00  0.00    +0.000 A 
ATOM     18  C   UNL     1      -1.166  11.047  21.868  0.00  0.00    +0.000 A 
ATOM     19  C   UNL     1      -0.429  10.664  20.739  0.00  0.00    +0.000 A 
ATOM     20 BR   UNL     1      -0.922  11.488  19.099  0.00  0.00    +0.000 Br
ENDBRANCH   2  14
BRANCH   9  21
ATOM     21  C   UNL     1       5.934   4.534  14.522  0.00  0.00    +0.000 A 
ATOM     22  C   UNL     1       7.111   5.209  14.150  0.00  0.00    +0.000 A 
ATOM     23  C   UNL     1       7.742   4.954  12.932  0.00  0.00    +0.000 A 
ATOM     24  C   UNL     1       7.226   3.993  12.067  0.00  0.00    +0.000 A 
ATOM     25  C   UNL     1       6.079   3.274  12.414  0.00  0.00    +0.000 A 
ATOM     26  C   UNL     1       5.434   3.568  13.628  0.00  0.00    +0.000 A 
BRANCH  25  27
ATOM     27  C   UNL     1       5.501   2.268  11.451  0.00  0.00    +0.000 C 
BRANCH  27  28
ATOM     28  O   UNL     1       6.435   1.241  11.143  0.00  0.00    +0.000 OA
ATOM     29  H   UNL     1       5.952   0.398  11.195  0.00  0.00    +0.000 HD
ENDBRANCH  27  28
ENDBRANCH  25  27
ENDBRANCH   9  21
TORSDOF 4
ENDMDL
MODEL 2
REMARK VINA RESULT:      -9.1      3.700      5.339
REMARK  Name = 
REMARK  4 active torsions:
REMARK  status: ('A' for Active; 'I' for Inactive)
REMARK    1  A    between atoms: C_2  and  C_21
REMARK    2  A    between atoms: C_9  and  C_10
REMARK    3  A    between atoms: C_14  and  C_15
REMARK    4  A    between atoms: C_15  and  O_16
REMARK                            x       y       z     vdW  Elec       q    Type
REMARK                         _______ _______ _______ _____ _____    ______ ____
ROOT
ATOM      1  O   UNL     1      -0.584  10.682  23.593  0.00  0.00    +0.000 OA
ATOM      2  C   UNL     1      -1.065  11.416  22.735  0.00  0.00    +0.000 C 
ATOM      3  N   UNL     1      -0.828  11.376  21.384  0.00  0.00    +0.000 N 
ATOM      4  C   UNL     1      -0.092  10.437  20.709  0.00  0.00    +0.000 A 
ATOM      5  N   UNL     1       0.211  10.594  19.442  0.00  0.00    +0.000 NA
ATOM      6  C   UNL     1       1.031   9.554  19.037  0.00  0.00    +0.000 A 
ATOM      7  C   UNL     1       1.642   9.411  17.778  0.00  0.00    +0.000 A 
ATOM      8  C   UNL     1       2.490   8.317  17.538  0.00  0.00    +0.000 A 
ATOM      9  C   UNL     1       2.742   7.343  18.518  0.00  0.00    +0.000 A 
ATOM     10  C   UNL     1       2.100   7.474  19.763  0.00  0.00    +0.000 A 
ATOM     11  C   UNL     1       1.271   8.580  20.002  0.00  0.00    +0.000 A 
ATOM     12  S   UNL     1       0.434   8.997  21.439  0.00  0.00    +0.000 S 
ATOM     13  H   UNL     1      -1.166  12.119  20.787  0.00  0.00    +0.000 HD
ENDROOT
BRANCH   2  14
ATOM     14  C   UNL     1      -1.918  12.546  23.198  0.00  0.00    +0.000 A 
ATOM     15  C   UNL     1      -3.178  12.196  23.715  0.00  0.00    +0.000 A 
ATOM     16  C   UNL     1      -4.060  13.175  24.172  0.00  0.00    +0.000 A 
ATOM     17  C   UNL     1      -3.689  14.515  24.119  0.00  0.00    +0.000 A 
ATOM     18  C   UNL     1      -2.452  14.879  23.585  0.00  0.00    +0.000 A 
ATOM     19  C   UNL     1      -1.563  13.901  23.118  0.00  0.00    +0.000 A 
ATOM     20 BR   UNL     1       0.046  14.539  22.334  0.00  0.00    +0.000 Br
ENDBRANCH   2  14
BRANCH   9  21
ATOM     21  C   UNL     1       3.686   6.225  18.285  0.00  0.00    +0.000 A 
ATOM     22  C   UNL     1       4.790   6.368  17.425  0.00  0.00    +0.000 A 
ATOM     23  C   UNL     1       5.636   5.295  17.141  0.00  0.00    +0.000 A 
ATOM     24  C   UNL     1       5.414   4.056  17.736  0.00  0.00    +0.000 A 
ATOM     25  C   UNL     1       4.349   3.879  18.623  0.00  0.00    +0.000 A 
ATOM     26  C   UNL     1       3.485   4.960  18.871  0.00  0.00    +0.000 A 
BRANCH  25  27
ATOM     27  C   UNL     1       4.089   2.522  19.227  0.00  0.00    +0.000 C 
BRANCH  27  28
ATOM     28  O   UNL     1       5.180   2.089  20.030  0.00  0.00    +0.000 OA
ATOM     29  H   UNL     1       5.938   1.971  19.433  0.00  0.00    +0.000 HD
ENDBRANCH  27  28
ENDBRANCH  25  27
ENDBRANCH   9  21
TORSDOF 4
ENDMDL
MODEL 3
REMARK VINA RESULT:      -9.0      3.698      5.157
REMARK  Name = 
REMARK  4 active torsions:
REMARK  status: ('A' for Active; 'I' for Inactive)
REMARK    1  A    between atoms: C_2  and  C_21
REMARK    2  A    between atoms: C_9  and  C_10
REMARK    3  A    between atoms: C_14  and  C_15
REMARK    4  A    between atoms: C_15  and  O_16
REMARK                            x       y       z     vdW  Elec       q    Type
REMARK                         _______ _______ _______ _____ _____    ______ ____
ROOT
ATOM      1  O   UNL     1      -0.477  10.521  23.501  0.00  0.00    +0.000 OA
ATOM      2  C   UNL     1      -0.906  11.291  22.645  0.00  0.00    +0.000 C 
ATOM      3  N   UNL     1      -0.636  11.267  21.300  0.00  0.00    +0.000 N 
ATOM      4  C   UNL     1       0.080  10.313  20.625  0.00  0.00    +0.000 A 
ATOM      5  N   UNL     1       0.422  10.482  19.370  0.00  0.00    +0.000 NA
ATOM      6  C   UNL     1       1.210   9.418  18.965  0.00  0.00    +0.000 A 
ATOM      7  C   UNL     1       1.848   9.276  17.719  0.00  0.00    +0.000 A 
ATOM      8  C   UNL     1       2.659   8.153  17.478  0.00  0.00    +0.000 A 
ATOM      9  C   UNL     1       2.847   7.151  18.444  0.00  0.00    +0.000 A 
ATOM     10  C   UNL     1       2.178   7.284  19.675  0.00  0.00    +0.000 A 
ATOM     11  C   UNL     1       1.386   8.417  19.915  0.00  0.00    +0.000 A 
ATOM     12  S   UNL     1       0.530   8.839  21.339  0.00  0.00    +0.000 S 
ATOM     13  H   UNL     1      -0.930  12.034  20.711  0.00  0.00    +0.000 HD
ENDROOT
BRANCH   2  14
ATOM     14  C   UNL     1      -1.726  12.444  23.110  0.00  0.00    +0.000 A 
ATOM     15  C   UNL     1      -2.975  12.126  23.675  0.00  0.00    +0.000 A 
ATOM     16  C   UNL     1      -3.826  13.130  24.137  0.00  0.00    +0.000 A 
ATOM     17  C   UNL     1      -3.436  14.461  24.042  0.00  0.00    +0.000 A 
ATOM     18  C   UNL     1      -2.211  14.793  23.460  0.00  0.00    +0.000 A 
ATOM     19  C   UNL     1      -1.353  13.791  22.987  0.00  0.00    +0.000 A 
ATOM     20 BR   UNL     1       0.239  14.385  22.138  0.00  0.00    +0.000 Br
ENDBRANCH   2  14
BRANCH   9  21
ATOM     21  C   UNL     1       3.752   6.001  18.212  0.00  0.00    +0.000 A 
ATOM     22  C   UNL     1       3.249   4.698  18.048  0.00  0.00    +0.000 A 
ATOM     23  C   UNL     1       4.101   3.602  17.909  0.00  0.00    +0.000 A 
ATOM     24  C   UNL     1       5.481   3.787  17.901  0.00  0.00    +0.000 A 
ATOM     25  C   UNL     1       6.022   5.069  18.027  0.00  0.00    +0.000 A 
ATOM     26  C   UNL     1       5.151   6.159  18.203  0.00  0.00    +0.000 A 
BRANCH  25  27
ATOM     27  C   UNL     1       7.518   5.255  18.065  0.00  0.00    +0.000 C 
BRANCH  27  28
ATOM     28  O   UNL     1       8.202   4.073  17.669  0.00  0.00    +0.000 OA
ATOM     29  H   UNL     1       9.020   4.035  18.193  0.00  0.00    +0.000 HD
ENDBRANCH  27  28
ENDBRANCH  25  27
ENDBRANCH   9  21
TORSDOF 4
ENDMDL
MODEL 4
REMARK VINA RESULT:      -8.8      3.299     11.320
REMARK  Name = 
REMARK  4 active torsions:
REMARK  status: ('A' for Active; 'I' for Inactive)
REMARK    1  A    between atoms: C_2  and  C_21
REMARK    2  A    between atoms: C_9  and  C_10
REMARK    3  A    between atoms: C_14  and  C_15
REMARK    4  A    between atoms: C_15  and  O_16
REMARK                            x       y       z     vdW  Elec       q    Type
REMARK                         _______ _______ _______ _____ _____    ______ ____
ROOT
ATOM      1  O   UNL     1       2.929   8.462  17.262  0.00  0.00    +0.000 OA
ATOM      2  C   UNL     1       3.072   7.456  17.950  0.00  0.00    +0.000 C 
ATOM      3  N   UNL     1       2.576   7.238  19.212  0.00  0.00    +0.000 N 
ATOM      4  C   UNL     1       1.730   8.058  19.912  0.00  0.00    +0.000 A 
ATOM      5  N   UNL     1       1.459   7.834  21.175  0.00  0.00    +0.000 NA
ATOM      6  C   UNL     1       0.658   8.856  21.658  0.00  0.00    +0.000 A 
ATOM      7  C   UNL     1       0.228   9.026  22.987  0.00  0.00    +0.000 A 
ATOM      8  C   UNL     1      -0.546  10.149  23.327  0.00  0.00    +0.000 A 
ATOM      9  C   UNL     1      -0.919  11.111  22.375  0.00  0.00    +0.000 A 
ATOM     10  C   UNL     1      -0.514  10.915  21.042  0.00  0.00    +0.000 A 
ATOM     11  C   UNL     1       0.274   9.803  20.713  0.00  0.00    +0.000 A 
ATOM     12  S   UNL     1       0.941   9.378  19.192  0.00  0.00    +0.000 S 
ATOM     13  H   UNL     1       2.875   6.431  19.741  0.00  0.00    +0.000 HD
ENDROOT
BRANCH   2  14
ATOM     14  C   UNL     1       3.963   6.384  17.423  0.00  0.00    +0.000 A 
ATOM     15  C   UNL     1       5.221   6.804  16.953  0.00  0.00    +0.000 A 
ATOM     16  C   UNL     1       6.131   5.885  16.433  0.00  0.00    +0.000 A 
ATOM     17  C   UNL     1       5.795   4.536  16.380  0.00  0.00    +0.000 A 
ATOM     18  C   UNL     1       4.541   4.110  16.819  0.00  0.00    +0.000 A 
ATOM     19  C   UNL     1       3.617   5.028  17.337  0.00  0.00    +0.000 A 
ATOM     20 BR   UNL     1       1.917   4.326  17.813  0.00  0.00    +0.000 Br
ENDBRANCH   2  14
BRANCH   9  21
ATOM     21  C   UNL     1      -1.680  12.326  22.748  0.00  0.00    +0.000 A 
ATOM     22  C   UNL     1      -1.090  13.602  22.695  0.00  0.00    +0.000 A 
ATOM     23  C   UNL     1      -1.777  14.740  23.121  0.00  0.00    +0.000 A 
ATOM     24  C   UNL     1      -3.086  14.632  23.583  0.00  0.00    +0.000 A 
ATOM     25  C   UNL     1      -3.722  13.388  23.620  0.00  0.00    +0.000 A 
ATOM     26  C   UNL     1      -3.004  12.246  23.222  0.00  0.00    +0.000 A 
BRANCH  25  27
ATOM     27  C   UNL     1      -5.123  13.274  24.166  0.00  0.00    +0.000 C 
BRANCH  27  28
ATOM     28  O   UNL     1      -5.303  12.070  24.900  0.00  0.00    +0.000 OA
ATOM     29  H   UNL     1      -5.679  12.321  25.761  0.00  0.00    +0.000 HD
ENDBRANCH  27  28
ENDBRANCH  25  27
ENDBRANCH   9  21
TORSDOF 4
ENDMDL
MODEL 5
REMARK VINA RESULT:      -8.6      3.376     11.389
REMARK  Name = 
REMARK  4 active torsions:
REMARK  status: ('A' for Active; 'I' for Inactive)
REMARK    1  A    between atoms: C_2  and  C_21
REMARK    2  A    between atoms: C_9  and  C_10
REMARK    3  A    between atoms: C_14  and  C_15
REMARK    4  A    between atoms: C_15  and  O_16
REMARK                            x       y       z     vdW  Elec       q    Type
REMARK                         _______ _______ _______ _____ _____    ______ ____
ROOT
ATOM      1  O   UNL     1       2.839   8.456  17.333  0.00  0.00    +0.000 OA
ATOM      2  C   UNL     1       2.961   7.475  18.061  0.00  0.00    +0.000 C 
ATOM      3  N   UNL     1       2.439   7.309  19.319  0.00  0.00    +0.000 N 
ATOM      4  C   UNL     1       1.586   8.159  19.972  0.00  0.00    +0.000 A 
ATOM      5  N   UNL     1       1.289   7.985  21.237  0.00  0.00    +0.000 NA
ATOM      6  C   UNL     1       0.487   9.029  21.666  0.00  0.00    +0.000 A 
ATOM      7  C   UNL     1       0.033   9.252  22.979  0.00  0.00    +0.000 A 
ATOM      8  C   UNL     1      -0.738  10.392  23.263  0.00  0.00    +0.000 A 
ATOM      9  C   UNL     1      -1.086  11.321  22.269  0.00  0.00    +0.000 A 
ATOM     10  C   UNL     1      -0.657  11.073  20.952  0.00  0.00    +0.000 A 
ATOM     11  C   UNL     1       0.129   9.944  20.679  0.00  0.00    +0.000 A 
ATOM     12  S   UNL     1       0.822   9.458  19.188  0.00  0.00    +0.000 S 
ATOM     13  H   UNL     1       2.721   6.519  19.884  0.00  0.00    +0.000 HD
ENDROOT
BRANCH   2  14
ATOM     14  C   UNL     1       3.853   6.379  17.591  0.00  0.00    +0.000 A 
ATOM     15  C   UNL     1       5.150   6.762  17.205  0.00  0.00    +0.000 A 
ATOM     16  C   UNL     1       6.067   5.817  16.744  0.00  0.00    +0.000 A 
ATOM     17  C   UNL     1       5.696   4.479  16.666  0.00  0.00    +0.000 A 
ATOM     18  C   UNL     1       4.404   4.088  17.022  0.00  0.00    +0.000 A 
ATOM     19  C   UNL     1       3.475   5.033  17.480  0.00  0.00    +0.000 A 
ATOM     20 BR   UNL     1       1.728   4.380  17.842  0.00  0.00    +0.000 Br
ENDBRANCH   2  14
BRANCH   9  21
ATOM     21  C   UNL     1      -1.845  12.554  22.582  0.00  0.00    +0.000 A 
ATOM     22  C   UNL     1      -3.158  12.742  22.113  0.00  0.00    +0.000 A 
ATOM     23  C   UNL     1      -3.847  13.935  22.338  0.00  0.00    +0.000 A 
ATOM     24  C   UNL     1      -3.248  14.960  23.065  0.00  0.00    +0.000 A 
ATOM     25  C   UNL     1      -1.957  14.802  23.578  0.00  0.00    +0.000 A 
ATOM     26  C   UNL     1      -1.263  13.609  23.312  0.00  0.00    +0.000 A 
BRANCH  25  27
ATOM     27  C   UNL     1      -1.299  15.935  24.323  0.00  0.00    +0.000 C 
BRANCH  27  28
ATOM     28  O   UNL     1      -0.573  15.467  25.453  0.00  0.00    +0.000 OA
ATOM     29  H   UNL     1       0.316  15.859  25.396  0.00  0.00    +0.000 HD
ENDBRANCH  27  28
ENDBRANCH  25  27
ENDBRANCH   9  21
TORSDOF 4
ENDMDL
MODEL 6
REMARK VINA RESULT:      -8.5      3.889     11.441
REMARK  Name = 
REMARK  4 active torsions:
REMARK  status: ('A' for Active; 'I' for Inactive)
REMARK    1  A    between atoms: C_2  and  C_21
REMARK    2  A    between atoms: C_9  and  C_10
REMARK    3  A    between atoms: C_14  and  C_15
REMARK    4  A    between atoms: C_15  and  O_16
REMARK                            x       y       z     vdW  Elec       q    Type
REMARK                         _______ _______ _______ _____ _____    ______ ____
ROOT
ATOM      1  O   UNL     1       1.883   5.837  20.547  0.00  0.00    +0.000 OA
ATOM      2  C   UNL     1       2.341   6.259  19.489  0.00  0.00    +0.000 C 
ATOM      3  N   UNL     1       2.194   7.521  18.969  0.00  0.00    +0.000 N 
ATOM      4  C   UNL     1       1.599   8.594  19.579  0.00  0.00    +0.000 A 
ATOM      5  N   UNL     1       1.361   9.704  18.921  0.00  0.00    +0.000 NA
ATOM      6  C   UNL     1       0.677  10.584  19.742  0.00  0.00    +0.000 A 
ATOM      7  C   UNL     1       0.163  11.842  19.377  0.00  0.00    +0.000 A 
ATOM      8  C   UNL     1      -0.555  12.598  20.319  0.00  0.00    +0.000 A 
ATOM      9  C   UNL     1      -0.770  12.143  21.630  0.00  0.00    +0.000 A 
ATOM     10  C   UNL     1      -0.223  10.899  21.997  0.00  0.00    +0.000 A 
ATOM     11  C   UNL     1       0.476  10.141  21.046  0.00  0.00    +0.000 A 
ATOM     12  S   UNL     1       1.175   8.586  21.223  0.00  0.00    +0.000 S 
ATOM     13  H   UNL     1       2.493   7.717  18.023  0.00  0.00    +0.000 HD
ENDROOT
BRANCH   2  14
ATOM     14  C   UNL     1       3.046   5.286  18.609  0.00  0.00    +0.000 A 
ATOM     15  C   UNL     1       4.160   5.782  17.909  0.00  0.00    +0.000 A 
ATOM     16  C   UNL     1       4.890   4.959  17.052  0.00  0.00    +0.000 A 
ATOM     17  C   UNL     1       4.516   3.629  16.890  0.00  0.00    +0.000 A 
ATOM     18  C   UNL     1       3.397   3.130  17.560  0.00  0.00    +0.000 A 
ATOM     19  C   UNL     1       2.654   3.953  18.417  0.00  0.00    +0.000 A 
ATOM     20 BR   UNL     1       1.105   3.172  19.192  0.00  0.00    +0.000 Br
ENDBRANCH   2  14
BRANCH   9  21
ATOM     21  C   UNL     1      -1.581  12.912  22.603  0.00  0.00    +0.000 A 
ATOM     22  C   UNL     1      -1.034  13.996  23.313  0.00  0.00    +0.000 A 
ATOM     23  C   UNL     1      -1.770  14.673  24.287  0.00  0.00    +0.000 A 
ATOM     24  C   UNL     1      -3.084  14.299  24.554  0.00  0.00    +0.000 A 
ATOM     25  C   UNL     1      -3.677  13.249  23.847  0.00  0.00    +0.000 A 
ATOM     26  C   UNL     1      -2.911  12.554  22.894  0.00  0.00    +0.000 A 
BRANCH  25  27
ATOM     27  C   UNL     1      -5.085  12.821  24.174  0.00  0.00    +0.000 C 
BRANCH  27  28
ATOM     28  O   UNL     1      -5.102  11.669  25.008  0.00  0.00    +0.000 OA
ATOM     29  H   UNL     1      -4.792  10.926  24.463  0.00  0.00    +0.000 HD
ENDBRANCH  27  28
ENDBRANCH  25  27
ENDBRANCH   9  21
TORSDOF 4
ENDMDL
MODEL 7
REMARK VINA RESULT:      -8.4      3.806      5.671
REMARK  Name = 
REMARK  4 active torsions:
REMARK  status: ('A' for Active; 'I' for Inactive)
REMARK    1  A    between atoms: C_2  and  C_21
REMARK    2  A    between atoms: C_9  and  C_10
REMARK    3  A    between atoms: C_14  and  C_15
REMARK    4  A    between atoms: C_15  and  O_16
REMARK                            x       y       z     vdW  Elec       q    Type
REMARK                         _______ _______ _______ _____ _____    ______ ____
ROOT
ATOM      1  O   UNL     1      -0.701  11.327  23.411  0.00  0.00    +0.000 OA
ATOM      2  C   UNL     1      -1.040  12.091  22.512  0.00  0.00    +0.000 C 
ATOM      3  N   UNL     1      -0.722  11.995  21.180  0.00  0.00    +0.000 N 
ATOM      4  C   UNL     1      -0.052  10.967  20.570  0.00  0.00    +0.000 A 
ATOM      5  N   UNL     1       0.348  11.062  19.325  0.00  0.00    +0.000 NA
ATOM      6  C   UNL     1       1.072   9.929  18.991  0.00  0.00    +0.000 A 
ATOM      7  C   UNL     1       1.745   9.693  17.778  0.00  0.00    +0.000 A 
ATOM      8  C   UNL     1       2.480   8.507  17.611  0.00  0.00    +0.000 A 
ATOM      9  C   UNL     1       2.559   7.533  18.620  0.00  0.00    +0.000 A 
ATOM     10  C   UNL     1       1.855   7.762  19.817  0.00  0.00    +0.000 A 
ATOM     11  C   UNL     1       1.139   8.956  19.984  0.00  0.00    +0.000 A 
ATOM     12  S   UNL     1       0.262   9.494  21.355  0.00  0.00    +0.000 S 
ATOM     13  H   UNL     1      -0.936  12.757  20.552  0.00  0.00    +0.000 HD
ENDROOT
BRANCH   2  14
ATOM     14  C   UNL     1      -1.791  13.317  22.901  0.00  0.00    +0.000 A 
ATOM     15  C   UNL     1      -1.161  14.156  23.837  0.00  0.00    +0.000 A 
ATOM     16  C   UNL     1      -1.777  15.327  24.276  0.00  0.00    +0.000 A 
ATOM     17  C   UNL     1      -3.030  15.674  23.780  0.00  0.00    +0.000 A 
ATOM     18  C   UNL     1      -3.678  14.838  22.868  0.00  0.00    +0.000 A 
ATOM     19  C   UNL     1      -3.068  13.656  22.428  0.00  0.00    +0.000 A 
ATOM     20 BR   UNL     1      -4.098  12.568  21.260  0.00  0.00    +0.000 Br
ENDBRANCH   2  14
BRANCH   9  21
ATOM     21  C   UNL     1       3.386   6.314  18.467  0.00  0.00    +0.000 A 
ATOM     22  C   UNL     1       4.309   6.185  17.413  0.00  0.00    +0.000 A 
ATOM     23  C   UNL     1       5.033   5.008  17.219  0.00  0.00    +0.000 A 
ATOM     24  C   UNL     1       4.871   3.938  18.095  0.00  0.00    +0.000 A 
ATOM     25  C   UNL     1       3.989   4.036  19.175  0.00  0.00    +0.000 A 
ATOM     26  C   UNL     1       3.241   5.215  19.336  0.00  0.00    +0.000 A 
BRANCH  25  27
ATOM     27  C   UNL     1       3.786   2.855  20.091  0.00  0.00    +0.000 C 
BRANCH  27  28
ATOM     28  O   UNL     1       4.939   2.023  20.137  0.00  0.00    +0.000 OA
ATOM     29  H   UNL     1       5.357   2.173  21.002  0.00  0.00    +0.000 HD
ENDBRANCH  27  28
ENDBRANCH  25  27
ENDBRANCH   9  21
TORSDOF 4
ENDMDL
MODEL 8
REMARK VINA RESULT:      -8.4      3.393     11.157
REMARK  Name = 
REMARK  4 active torsions:
REMARK  status: ('A' for Active; 'I' for Inactive)
REMARK    1  A    between atoms: C_2  and  C_21
REMARK    2  A    between atoms: C_9  and  C_10
REMARK    3  A    between atoms: C_14  and  C_15
REMARK    4  A    between atoms: C_15  and  O_16
REMARK                            x       y       z     vdW  Elec       q    Type
REMARK                         _______ _______ _______ _____ _____    ______ ____
ROOT
ATOM      1  O   UNL     1       2.806   8.450  17.284  0.00  0.00    +0.000 OA
ATOM      2  C   UNL     1       2.939   7.493  18.042  0.00  0.00    +0.000 C 
ATOM      3  N   UNL     1       2.423   7.362  19.307  0.00  0.00    +0.000 N 
ATOM      4  C   UNL     1       1.565   8.226  19.936  0.00  0.00    +0.000 A 
ATOM      5  N   UNL     1       1.273   8.088  21.207  0.00  0.00    +0.000 NA
ATOM      6  C   UNL     1       0.464   9.139  21.606  0.00  0.00    +0.000 A 
ATOM      7  C   UNL     1       0.012   9.398  22.913  0.00  0.00    +0.000 A 
ATOM      8  C   UNL     1      -0.768  10.540  23.164  0.00  0.00    +0.000 A 
ATOM      9  C   UNL     1      -1.127  11.435  22.142  0.00  0.00    +0.000 A 
ATOM     10  C   UNL     1      -0.700  11.149  20.832  0.00  0.00    +0.000 A 
ATOM     11  C   UNL     1       0.095  10.018  20.592  0.00  0.00    +0.000 A 
ATOM     12  S   UNL     1       0.787   9.492  19.115  0.00  0.00    +0.000 S 
ATOM     13  H   UNL     1       2.714   6.593  19.896  0.00  0.00    +0.000 HD
ENDROOT
BRANCH   2  14
ATOM     14  C   UNL     1       3.839   6.390  17.604  0.00  0.00    +0.000 A 
ATOM     15  C   UNL     1       5.139   6.769  17.224  0.00  0.00    +0.000 A 
ATOM     16  C   UNL     1       6.063   5.818  16.791  0.00  0.00    +0.000 A 
ATOM     17  C   UNL     1       5.697   4.478  16.736  0.00  0.00    +0.000 A 
ATOM     18  C   UNL     1       4.402   4.091  17.086  0.00  0.00    +0.000 A 
ATOM     19  C   UNL     1       3.466   5.041  17.515  0.00  0.00    +0.000 A 
ATOM     20 BR   UNL     1       1.717   4.391  17.872  0.00  0.00    +0.000 Br
ENDBRANCH   2  14
BRANCH   9  21
ATOM     21  C   UNL     1      -1.895  12.671  22.419  0.00  0.00    +0.000 A 
ATOM     22  C   UNL     1      -1.538  13.531  23.474  0.00  0.00    +0.000 A 
ATOM     23  C   UNL     1      -2.305  14.654  23.788  0.00  0.00    +0.000 A 
ATOM     24  C   UNL     1      -3.434  14.961  23.033  0.00  0.00    +0.000 A 
ATOM     25  C   UNL     1      -3.804  14.152  21.955  0.00  0.00    +0.000 A 
ATOM     26  C   UNL     1      -3.042  13.004  21.674  0.00  0.00    +0.000 A 
BRANCH  25  27
ATOM     27  C   UNL     1      -5.054  14.466  21.173  0.00  0.00    +0.000 C 
BRANCH  27  28
ATOM     28  O   UNL     1      -4.926  14.090  19.807  0.00  0.00    +0.000 OA
ATOM     29  H   UNL     1      -5.316  14.810  19.282  0.00  0.00    +0.000 HD
ENDBRANCH  27  28
ENDBRANCH  25  27
ENDBRANCH   9  21
TORSDOF 4
ENDMDL
MODEL 9
REMARK VINA RESULT:      -8.4      3.601     11.495
REMARK  Name = 
REMARK  4 active torsions:
REMARK  status: ('A' for Active; 'I' for Inactive)
REMARK    1  A    between atoms: C_2  and  C_21
REMARK    2  A    between atoms: C_9  and  C_10
REMARK    3  A    between atoms: C_14  and  C_15
REMARK    4  A    between atoms: C_15  and  O_16
REMARK                            x       y       z     vdW  Elec       q    Type
REMARK                         _______ _______ _______ _____ _____    ______ ____
ROOT
ATOM      1  O   UNL     1       2.426   6.508  19.962  0.00  0.00    +0.000 OA
ATOM      2  C   UNL     1       2.645   6.933  18.832  0.00  0.00    +0.000 C 
ATOM      3  N   UNL     1       2.141   8.076  18.264  0.00  0.00    +0.000 N 
ATOM      4  C   UNL     1       1.379   9.031  18.885  0.00  0.00    +0.000 A 
ATOM      5  N   UNL     1       0.808   9.994  18.201  0.00  0.00    +0.000 NA
ATOM      6  C   UNL     1       0.029  10.759  19.054  0.00  0.00    +0.000 A 
ATOM      7  C   UNL     1      -0.810  11.827  18.688  0.00  0.00    +0.000 A 
ATOM      8  C   UNL     1      -1.577  12.475  19.672  0.00  0.00    +0.000 A 
ATOM      9  C   UNL     1      -1.525  12.098  21.023  0.00  0.00    +0.000 A 
ATOM     10  C   UNL     1      -0.657  11.051  21.385  0.00  0.00    +0.000 A 
ATOM     11  C   UNL     1       0.091  10.396  20.396  0.00  0.00    +0.000 A 
ATOM     12  S   UNL     1       1.159   9.066  20.568  0.00  0.00    +0.000 S 
ATOM     13  H   UNL     1       2.275   8.254  17.278  0.00  0.00    +0.000 HD
ENDROOT
BRANCH   2  14
ATOM     14  C   UNL     1       3.459   6.077  17.924  0.00  0.00    +0.000 A 
ATOM     15  C   UNL     1       4.581   6.691  17.339  0.00  0.00    +0.000 A 
ATOM     16  C   UNL     1       5.410   5.984  16.468  0.00  0.00    +0.000 A 
ATOM     17  C   UNL     1       5.126   4.654  16.175  0.00  0.00    +0.000 A 
ATOM     18  C   UNL     1       4.002   4.039  16.729  0.00  0.00    +0.000 A 
ATOM     19  C   UNL     1       3.161   4.745  17.600  0.00  0.00    +0.000 A 
ATOM     20 BR   UNL     1       1.618   3.818  18.208  0.00  0.00    +0.000 Br
ENDBRANCH   2  14
BRANCH   9  21
ATOM     21  C   UNL     1      -2.381  12.739  22.048  0.00  0.00    +0.000 A 
ATOM     22  C   UNL     1      -1.823  13.476  23.108  0.00  0.00    +0.000 A 
ATOM     23  C   UNL     1      -2.621  14.014  24.119  0.00  0.00    +0.000 A 
ATOM     24  C   UNL     1      -4.003  13.853  24.078  0.00  0.00    +0.000 A 
ATOM     25  C   UNL     1      -4.601  13.157  23.024  0.00  0.00    +0.000 A 
ATOM     26  C   UNL     1      -3.782  12.590  22.032  0.00  0.00    +0.000 A 
BRANCH  25  27
ATOM     27  C   UNL     1      -6.094  12.948  23.012  0.00  0.00    +0.000 C 
BRANCH  27  28
ATOM     28  O   UNL     1      -6.511  12.085  24.062  0.00  0.00    +0.000 OA
ATOM     29  H   UNL     1      -7.468  11.951  23.951  0.00  0.00    +0.000 HD
ENDBRANCH  27  28
ENDBRANCH  25  27
ENDBRANCH   9  21
TORSDOF 4
ENDMDL
