MODEL 1
REMARK VINA RESULT:      -6.2      0.000      0.000
REMARK  Name = 
REMARK  7 active torsions:
REMARK  status: ('A' for Active; 'I' for Inactive)
REMARK    1  A    between atoms: C_2  and  C_3
REMARK    2  A    between atoms: C_3  and  C_4
REMARK    3  A    between atoms: C_11  and  O_12
REMARK    4  A    between atoms: O_12  and  C_13
REMARK    5  A    between atoms: C_21  and  C_22
REMARK    6  A    between atoms: C_24  and  C_25
REMARK    7  A    between atoms: C_24  and  C_26
REMARK                            x       y       z     vdW  Elec       q    Type
REMARK                         _______ _______ _______ _____ _____    ______ ____
ROOT
ATOM      1  C   UNL     1      -2.146  12.752  20.870  0.00  0.00    +0.000 C 
ATOM      2  O   UNL     1      -1.518  11.518  20.541  0.00  0.00    +0.000 OA
ATOM      3  C   UNL     1      -1.743  11.083  19.251  0.00  0.00    +0.000 A 
ATOM      4  C   UNL     1      -0.688  10.302  18.736  0.00  0.00    +0.000 A 
ATOM      5 BR   UNL     1       0.897   9.952  19.726  0.00  0.00    +0.000 Br
ATOM      6  C   UNL     1      -0.776   9.785  17.467  0.00  0.00    +0.000 A 
ATOM      7  C   UNL     1      -1.930  10.030  16.744  0.00  0.00    +0.000 A 
ATOM      8  C   UNL     1      -3.027  10.798  17.237  0.00  0.00    +0.000 A 
ATOM      9  C   UNL     1      -2.957  11.388  18.529  0.00  0.00    +0.000 A 
ATOM     10  C   UNL     1      -3.958  12.229  19.303  0.00  0.00    +0.000 A 
ATOM     11  C   UNL     1      -5.157  12.747  18.846  0.00  0.00    +0.000 A 
ATOM     12  C   UNL     1      -6.082  13.376  19.680  0.00  0.00    +0.000 A 
ATOM     13  C   UNL     1      -5.863  13.488  21.049  0.00  0.00    +0.000 A 
ATOM     14  C   UNL     1      -4.618  13.096  21.573  0.00  0.00    +0.000 A 
ATOM     15  C   UNL     1      -3.639  12.618  20.642  0.00  0.00    +0.000 A 
ATOM     16  C   UNL     1      -4.473  13.176  23.063  0.00  0.00    +0.000 C 
ATOM     17  C   UNL     1      -3.311  12.591  23.811  0.00  0.00    +0.000 C 
ATOM     18  C   UNL     1      -5.519  13.629  23.784  0.00  0.00    +0.000 C 
ATOM     19  C   UNL     1      -6.854  14.051  23.243  0.00  0.00    +0.000 C 
ATOM     20  C   UNL     1      -7.917  13.009  23.631  0.00  0.00    +0.000 C 
ATOM     21  C   UNL     1      -7.250  15.422  23.808  0.00  0.00    +0.000 C 
ATOM     22  N   UNL     1      -6.828  14.168  21.793  0.00  0.00    +0.000 N 
ATOM     23  H   UNL     1      -7.750  14.156  21.371  0.00  0.00    +0.000 HD
ENDROOT
BRANCH   8  24
ATOM     24  O   UNL     1      -3.937  10.743  16.226  0.00  0.00    +0.000 OA
ATOM     25  C   UNL     1      -3.765  10.314  14.906  0.00  0.00    +0.000 C 
ENDBRANCH   8  24
BRANCH   1  26
ATOM     26  C   UNL     1      -1.538  13.952  20.079  0.00  0.00    +0.000 C 
BRANCH  26  28
ATOM     27  C   UNL     1       0.752  13.858  19.039  0.00  0.00    +0.000 C 
ATOM     28  C   UNL     1      -0.031  13.984  20.115  0.00  0.00    +0.000 C 
ENDBRANCH  26  28
ENDBRANCH   1  26
TORSDOF 3
ENDMDL
MODEL 2
REMARK VINA RESULT:      -6.2      2.168      4.434
REMARK  Name = 
REMARK  7 active torsions:
REMARK  status: ('A' for Active; 'I' for Inactive)
REMARK    1  A    between atoms: C_2  and  C_3
REMARK    2  A    between atoms: C_3  and  C_4
REMARK    3  A    between atoms: C_11  and  O_12
REMARK    4  A    between atoms: O_12  and  C_13
REMARK    5  A    between atoms: C_21  and  C_22
REMARK    6  A    between atoms: C_24  and  C_25
REMARK    7  A    between atoms: C_24  and  C_26
REMARK                            x       y       z     vdW  Elec       q    Type
REMARK                         _______ _______ _______ _____ _____    ______ ____
ROOT
ATOM      1  C   UNL     1      -5.455  12.139  18.287  0.00  0.00    +0.000 C 
ATOM      2  O   UNL     1      -4.494  11.914  17.261  0.00  0.00    +0.000 OA
ATOM      3  C   UNL     1      -3.323  11.320  17.689  0.00  0.00    +0.000 A 
ATOM      4  C   UNL     1      -2.698  10.541  16.694  0.00  0.00    +0.000 A 
ATOM      5 BR   UNL     1      -3.452  10.304  14.964  0.00  0.00    +0.000 Br
ATOM      6  C   UNL     1      -1.515   9.900  16.968  0.00  0.00    +0.000 A 
ATOM      7  C   UNL     1      -0.959  10.075  18.223  0.00  0.00    +0.000 A 
ATOM      8  C   UNL     1      -1.548  10.871  19.250  0.00  0.00    +0.000 A 
ATOM      9  C   UNL     1      -2.796  11.514  19.021  0.00  0.00    +0.000 A 
ATOM     10  C   UNL     1      -3.637  12.416  19.908  0.00  0.00    +0.000 A 
ATOM     11  C   UNL     1      -3.435  12.711  21.245  0.00  0.00    +0.000 A 
ATOM     12  C   UNL     1      -4.173  13.676  21.932  0.00  0.00    +0.000 A 
ATOM     13  C   UNL     1      -5.147  14.433  21.291  0.00  0.00    +0.000 A 
ATOM     14  C   UNL     1      -5.497  14.112  19.967  0.00  0.00    +0.000 A 
ATOM     15  C   UNL     1      -4.827  12.997  19.366  0.00  0.00    +0.000 A 
ATOM     16  C   UNL     1      -6.503  15.011  19.312  0.00  0.00    +0.000 C 
ATOM     17  C   UNL     1      -6.822  14.962  17.847  0.00  0.00    +0.000 C 
ATOM     18  C   UNL     1      -7.009  16.035  20.030  0.00  0.00    +0.000 C 
ATOM     19  C   UNL     1      -6.648  16.393  21.443  0.00  0.00    +0.000 C 
ATOM     20  C   UNL     1      -5.828  17.693  21.448  0.00  0.00    +0.000 C 
ATOM     21  C   UNL     1      -7.916  16.583  22.286  0.00  0.00    +0.000 C 
ATOM     22  N   UNL     1      -5.859  15.344  22.072  0.00  0.00    +0.000 N 
ATOM     23  H   UNL     1      -5.353  15.658  22.893  0.00  0.00    +0.000 HD
ENDROOT
BRANCH   8  24
ATOM     24  O   UNL     1      -0.655  10.788  20.273  0.00  0.00    +0.000 OA
ATOM     25  C   UNL     1       0.131  11.795  20.842  0.00  0.00    +0.000 C 
ENDBRANCH   8  24
BRANCH   1  26
ATOM     26  C   UNL     1      -6.030  10.805  18.857  0.00  0.00    +0.000 C 
BRANCH  26  28
ATOM     27  C   UNL     1      -7.544  10.189  20.771  0.00  0.00    +0.000 C 
ATOM     28  C   UNL     1      -7.212  11.010  19.770  0.00  0.00    +0.000 C 
ENDBRANCH  26  28
ENDBRANCH   1  26
TORSDOF 3
ENDMDL
MODEL 3
REMARK VINA RESULT:      -6.1      3.101      6.022
REMARK  Name = 
REMARK  7 active torsions:
REMARK  status: ('A' for Active; 'I' for Inactive)
REMARK    1  A    between atoms: C_2  and  C_3
REMARK    2  A    between atoms: C_3  and  C_4
REMARK    3  A    between atoms: C_11  and  O_12
REMARK    4  A    between atoms: O_12  and  C_13
REMARK    5  A    between atoms: C_21  and  C_22
REMARK    6  A    between atoms: C_24  and  C_25
REMARK    7  A    between atoms: C_24  and  C_26
REMARK                            x       y       z     vdW  Elec       q    Type
REMARK                         _______ _______ _______ _____ _____    ______ ____
ROOT
ATOM      1  C   UNL     1      -2.672  13.312  22.449  0.00  0.00    +0.000 C 
ATOM      2  O   UNL     1      -4.017  13.778  22.452  0.00  0.00    +0.000 OA
ATOM      3  C   UNL     1      -4.866  13.090  21.607  0.00  0.00    +0.000 A 
ATOM      4  C   UNL     1      -6.204  13.079  22.052  0.00  0.00    +0.000 A 
ATOM      5 BR   UNL     1      -6.740  13.891  23.686  0.00  0.00    +0.000 Br
ATOM      6  C   UNL     1      -7.168  12.446  21.307  0.00  0.00    +0.000 A 
ATOM      7  C   UNL     1      -6.785  11.860  20.114  0.00  0.00    +0.000 A 
ATOM      8  C   UNL     1      -5.446  11.866  19.619  0.00  0.00    +0.000 A 
ATOM      9  C   UNL     1      -4.410  12.473  20.383  0.00  0.00    +0.000 A 
ATOM     10  C   UNL     1      -2.926  12.638  20.106  0.00  0.00    +0.000 A 
ATOM     11  C   UNL     1      -2.195  12.086  19.069  0.00  0.00    +0.000 A 
ATOM     12  C   UNL     1      -0.865  12.424  18.810  0.00  0.00    +0.000 A 
ATOM     13  C   UNL     1      -0.200  13.378  19.573  0.00  0.00    +0.000 A 
ATOM     14  C   UNL     1      -0.832  13.895  20.719  0.00  0.00    +0.000 A 
ATOM     15  C   UNL     1      -2.132  13.382  21.035  0.00  0.00    +0.000 A 
ATOM     16  C   UNL     1      -0.090  14.970  21.456  0.00  0.00    +0.000 C 
ATOM     17  C   UNL     1      -0.701  15.790  22.553  0.00  0.00    +0.000 C 
ATOM     18  C   UNL     1       1.120  15.345  20.991  0.00  0.00    +0.000 C 
ATOM     19  C   UNL     1       1.810  14.805  19.772  0.00  0.00    +0.000 C 
ATOM     20  C   UNL     1       1.814  15.876  18.669  0.00  0.00    +0.000 C 
ATOM     21  C   UNL     1       3.254  14.408  20.107  0.00  0.00    +0.000 C 
ATOM     22  N   UNL     1       1.139  13.618  19.263  0.00  0.00    +0.000 N 
ATOM     23  H   UNL     1       1.379  13.401  18.302  0.00  0.00    +0.000 HD
ENDROOT
BRANCH   8  24
ATOM     24  O   UNL     1      -5.542  11.224  18.424  0.00  0.00    +0.000 OA
ATOM     25  C   UNL     1      -5.292  11.712  17.137  0.00  0.00    +0.000 C 
ENDBRANCH   8  24
BRANCH   1  26
ATOM     26  C   UNL     1      -2.543  11.881  23.057  0.00  0.00    +0.000 C 
BRANCH  26  28
ATOM     27  C   UNL     1      -0.792  10.074  23.075  0.00  0.00    +0.000 C 
ATOM     28  C   UNL     1      -1.126  11.369  23.075  0.00  0.00    +0.000 C 
ENDBRANCH  26  28
ENDBRANCH   1  26
TORSDOF 3
ENDMDL
MODEL 4
REMARK VINA RESULT:      -6.1      3.256      5.993
REMARK  Name = 
REMARK  7 active torsions:
REMARK  status: ('A' for Active; 'I' for Inactive)
REMARK    1  A    between atoms: C_2  and  C_3
REMARK    2  A    between atoms: C_3  and  C_4
REMARK    3  A    between atoms: C_11  and  O_12
REMARK    4  A    between atoms: O_12  and  C_13
REMARK    5  A    between atoms: C_21  and  C_22
REMARK    6  A    between atoms: C_24  and  C_25
REMARK    7  A    between atoms: C_24  and  C_26
REMARK                            x       y       z     vdW  Elec       q    Type
REMARK                         _______ _______ _______ _____ _____    ______ ____
ROOT
ATOM      1  C   UNL     1      -2.419  13.341  21.342  0.00  0.00    +0.000 C 
ATOM      2  O   UNL     1      -3.623  13.679  20.661  0.00  0.00    +0.000 OA
ATOM      3  C   UNL     1      -4.056  12.732  19.754  0.00  0.00    +0.000 A 
ATOM      4  C   UNL     1      -5.456  12.723  19.586  0.00  0.00    +0.000 A 
ATOM      5 BR   UNL     1      -6.606  13.875  20.570  0.00  0.00    +0.000 Br
ATOM      6  C   UNL     1      -6.034  11.845  18.704  0.00  0.00    +0.000 A 
ATOM      7  C   UNL     1      -5.202  11.010  17.980  0.00  0.00    +0.000 A 
ATOM      8  C   UNL     1      -3.780  11.002  18.106  0.00  0.00    +0.000 A 
ATOM      9  C   UNL     1      -3.146  11.865  19.042  0.00  0.00    +0.000 A 
ATOM     10  C   UNL     1      -1.679  12.077  19.376  0.00  0.00    +0.000 A 
ATOM     11  C   UNL     1      -0.596  11.344  18.923  0.00  0.00    +0.000 A 
ATOM     12  C   UNL     1       0.728  11.715  19.163  0.00  0.00    +0.000 A 
ATOM     13  C   UNL     1       1.039  12.882  19.852  0.00  0.00    +0.000 A 
ATOM     14  C   UNL     1      -0.001  13.618  20.449  0.00  0.00    +0.000 A 
ATOM     15  C   UNL     1      -1.329  13.096  20.317  0.00  0.00    +0.000 A 
ATOM     16  C   UNL     1       0.395  14.902  21.115  0.00  0.00    +0.000 C 
ATOM     17  C   UNL     1      -0.596  15.919  21.599  0.00  0.00    +0.000 C 
ATOM     18  C   UNL     1       1.699  15.246  21.116  0.00  0.00    +0.000 C 
ATOM     19  C   UNL     1       2.822  14.475  20.485  0.00  0.00    +0.000 C 
ATOM     20  C   UNL     1       3.328  15.229  19.244  0.00  0.00    +0.000 C 
ATOM     21  C   UNL     1       3.974  14.297  21.483  0.00  0.00    +0.000 C 
ATOM     22  N   UNL     1       2.391  13.146  20.077  0.00  0.00    +0.000 N 
ATOM     23  H   UNL     1       3.007  12.713  19.397  0.00  0.00    +0.000 HD
ENDROOT
BRANCH   8  24
ATOM     24  O   UNL     1      -3.382  10.072  17.196  0.00  0.00    +0.000 OA
ATOM     25  C   UNL     1      -2.701  10.255  15.987  0.00  0.00    +0.000 C 
ENDBRANCH   8  24
BRANCH   1  26
ATOM     26  C   UNL     1      -2.607  12.126  22.302  0.00  0.00    +0.000 C 
BRANCH  26  28
ATOM     27  C   UNL     1      -0.765  10.516  22.891  0.00  0.00    +0.000 C 
ATOM     28  C   UNL     1      -1.336  11.719  23.002  0.00  0.00    +0.000 C 
ENDBRANCH  26  28
ENDBRANCH   1  26
TORSDOF 3
ENDMDL
MODEL 5
REMARK VINA RESULT:      -6.1      4.846      8.001
REMARK  Name = 
REMARK  7 active torsions:
REMARK  status: ('A' for Active; 'I' for Inactive)
REMARK    1  A    between atoms: C_2  and  C_3
REMARK    2  A    between atoms: C_3  and  C_4
REMARK    3  A    between atoms: C_11  and  O_12
REMARK    4  A    between atoms: O_12  and  C_13
REMARK    5  A    between atoms: C_21  and  C_22
REMARK    6  A    between atoms: C_24  and  C_25
REMARK    7  A    between atoms: C_24  and  C_26
REMARK                            x       y       z     vdW  Elec       q    Type
REMARK                         _______ _______ _______ _____ _____    ______ ____
ROOT
ATOM      1  C   UNL     1      -0.226  10.831  20.490  0.00  0.00    +0.000 C 
ATOM      2  O   UNL     1       0.121  11.959  21.285  0.00  0.00    +0.000 OA
ATOM      3  C   UNL     1       0.665  13.014  20.581  0.00  0.00    +0.000 A 
ATOM      4  C   UNL     1       0.408  14.268  21.173  0.00  0.00    +0.000 A 
ATOM      5 BR   UNL     1      -0.636  14.454  22.752  0.00  0.00    +0.000 Br
ATOM      6  C   UNL     1       0.900  15.412  20.594  0.00  0.00    +0.000 A 
ATOM      7  C   UNL     1       1.666  15.282  19.449  0.00  0.00    +0.000 A 
ATOM      8  C   UNL     1       1.965  14.031  18.831  0.00  0.00    +0.000 A 
ATOM      9  C   UNL     1       1.438  12.827  19.375  0.00  0.00    +0.000 A 
ATOM     10  C   UNL     1       1.596  11.378  18.944  0.00  0.00    +0.000 A 
ATOM     11  C   UNL     1       2.201  10.901  17.795  0.00  0.00    +0.000 A 
ATOM     12  C   UNL     1       2.436   9.545  17.565  0.00  0.00    +0.000 A 
ATOM     13  C   UNL     1       2.101   8.582  18.511  0.00  0.00    +0.000 A 
ATOM     14  C   UNL     1       1.374   8.972  19.651  0.00  0.00    +0.000 A 
ATOM     15  C   UNL     1       1.008  10.354  19.751  0.00  0.00    +0.000 A 
ATOM     16  C   UNL     1       1.107   7.899  20.664  0.00  0.00    +0.000 C 
ATOM     17  C   UNL     1       0.553   8.175  22.031  0.00  0.00    +0.000 C 
ATOM     18  C   UNL     1       1.555   6.653  20.408  0.00  0.00    +0.000 C 
ATOM     19  C   UNL     1       2.332   6.218  19.199  0.00  0.00    +0.000 C 
ATOM     20  C   UNL     1       3.785   5.920  19.604  0.00  0.00    +0.000 C 
ATOM     21  C   UNL     1       1.702   4.961  18.584  0.00  0.00    +0.000 C 
ATOM     22  N   UNL     1       2.337   7.249  18.173  0.00  0.00    +0.000 N 
ATOM     23  H   UNL     1       3.074   7.130  17.486  0.00  0.00    +0.000 HD
ENDROOT
BRANCH   8  24
ATOM     24  O   UNL     1       2.761  14.373  17.782  0.00  0.00    +0.000 OA
ATOM     25  C   UNL     1       3.425  15.578  17.533  0.00  0.00    +0.000 C 
ENDBRANCH   8  24
BRANCH   1  26
ATOM     26  C   UNL     1      -1.410  11.137  19.520  0.00  0.00    +0.000 C 
BRANCH  26  28
ATOM     27  C   UNL     1      -1.654  10.080  17.249  0.00  0.00    +0.000 C 
ATOM     28  C   UNL     1      -1.718   9.998  18.582  0.00  0.00    +0.000 C 
ENDBRANCH  26  28
ENDBRANCH   1  26
TORSDOF 3
ENDMDL
MODEL 6
REMARK VINA RESULT:      -6.0      3.302      5.978
REMARK  Name = 
REMARK  7 active torsions:
REMARK  status: ('A' for Active; 'I' for Inactive)
REMARK    1  A    between atoms: C_2  and  C_3
REMARK    2  A    between atoms: C_3  and  C_4
REMARK    3  A    between atoms: C_11  and  O_12
REMARK    4  A    between atoms: O_12  and  C_13
REMARK    5  A    between atoms: C_21  and  C_22
REMARK    6  A    between atoms: C_24  and  C_25
REMARK    7  A    between atoms: C_24  and  C_26
REMARK                            x       y       z     vdW  Elec       q    Type
REMARK                         _______ _______ _______ _____ _____    ______ ____
ROOT
ATOM      1  C   UNL     1      -3.459  13.630  22.743  0.00  0.00    +0.000 C 
ATOM      2  O   UNL     1      -4.844  13.953  22.799  0.00  0.00    +0.000 OA
ATOM      3  C   UNL     1      -5.661  13.110  22.072  0.00  0.00    +0.000 A 
ATOM      4  C   UNL     1      -6.962  13.001  22.605  0.00  0.00    +0.000 A 
ATOM      5 BR   UNL     1      -7.487  13.895  24.200  0.00  0.00    +0.000 Br
ATOM      6  C   UNL     1      -7.894  12.209  21.980  0.00  0.00    +0.000 A 
ATOM      7  C   UNL     1      -7.520  11.563  20.816  0.00  0.00    +0.000 A 
ATOM      8  C   UNL     1      -6.220  11.663  20.234  0.00  0.00    +0.000 A 
ATOM      9  C   UNL     1      -5.214  12.438  20.874  0.00  0.00    +0.000 A 
ATOM     10  C   UNL     1      -3.774  12.730  20.485  0.00  0.00    +0.000 A 
ATOM     11  C   UNL     1      -3.050  12.167  19.449  0.00  0.00    +0.000 A 
ATOM     12  C   UNL     1      -1.782  12.616  19.075  0.00  0.00    +0.000 A 
ATOM     13  C   UNL     1      -1.180  13.696  19.712  0.00  0.00    +0.000 A 
ATOM     14  C   UNL     1      -1.797  14.245  20.851  0.00  0.00    +0.000 A 
ATOM     15  C   UNL     1      -3.013  13.631  21.295  0.00  0.00    +0.000 A 
ATOM     16  C   UNL     1      -1.133  15.450  21.447  0.00  0.00    +0.000 C 
ATOM     17  C   UNL     1      -1.765  16.297  22.512  0.00  0.00    +0.000 C 
ATOM     18  C   UNL     1      -0.000  15.905  20.873  0.00  0.00    +0.000 C 
ATOM     19  C   UNL     1       0.671  15.334  19.658  0.00  0.00    +0.000 C 
ATOM     20  C   UNL     1       0.495  16.299  18.474  0.00  0.00    +0.000 C 
ATOM     21  C   UNL     1       2.167  15.119  19.927  0.00  0.00    +0.000 C 
ATOM     22  N   UNL     1       0.105  14.044  19.294  0.00  0.00    +0.000 N 
ATOM     23  H   UNL     1       0.310  13.769  18.339  0.00  0.00    +0.000 HD
ENDROOT
BRANCH   8  24
ATOM     24  O   UNL     1      -6.316  10.912  19.103  0.00  0.00    +0.000 OA
ATOM     25  C   UNL     1      -6.792   9.606  18.949  0.00  0.00    +0.000 C 
ENDBRANCH   8  24
BRANCH   1  26
ATOM     26  C   UNL     1      -3.141  12.279  23.455  0.00  0.00    +0.000 C 
BRANCH  26  28
ATOM     27  C   UNL     1      -1.167  10.796  22.968  0.00  0.00    +0.000 C 
ATOM     28  C   UNL     1      -1.673  11.935  23.450  0.00  0.00    +0.000 C 
ENDBRANCH  26  28
ENDBRANCH   1  26
TORSDOF 3
ENDMDL
MODEL 7
REMARK VINA RESULT:      -6.0     11.580     13.250
REMARK  Name = 
REMARK  7 active torsions:
REMARK  status: ('A' for Active; 'I' for Inactive)
REMARK    1  A    between atoms: C_2  and  C_3
REMARK    2  A    between atoms: C_3  and  C_4
REMARK    3  A    between atoms: C_11  and  O_12
REMARK    4  A    between atoms: O_12  and  C_13
REMARK    5  A    between atoms: C_21  and  C_22
REMARK    6  A    between atoms: C_24  and  C_25
REMARK    7  A    between atoms: C_24  and  C_26
REMARK                            x       y       z     vdW  Elec       q    Type
REMARK                         _______ _______ _______ _____ _____    ______ ____
ROOT
ATOM      1  C   UNL     1       8.992  15.463  20.573  0.00  0.00    +0.000 C 
ATOM      2  O   UNL     1      10.102  15.391  19.685  0.00  0.00    +0.000 OA
ATOM      3  C   UNL     1      10.265  14.168  19.064  0.00  0.00    +0.000 A 
ATOM      4  C   UNL     1      10.876  14.265  17.797  0.00  0.00    +0.000 A 
ATOM      5 BR   UNL     1      11.361  15.934  17.025  0.00  0.00    +0.000 Br
ATOM      6  C   UNL     1      11.117  13.129  17.065  0.00  0.00    +0.000 A 
ATOM      7  C   UNL     1      10.773  11.911  17.624  0.00  0.00    +0.000 A 
ATOM      8  C   UNL     1      10.172  11.769  18.911  0.00  0.00    +0.000 A 
ATOM      9  C   UNL     1       9.865  12.925  19.682  0.00  0.00    +0.000 A 
ATOM     10  C   UNL     1       9.248  13.075  21.062  0.00  0.00    +0.000 A 
ATOM     11  C   UNL     1       8.695  12.081  21.851  0.00  0.00    +0.000 A 
ATOM     12  C   UNL     1       8.295  12.292  23.172  0.00  0.00    +0.000 A 
ATOM     13  C   UNL     1       8.465  13.526  23.791  0.00  0.00    +0.000 A 
ATOM     14  C   UNL     1       8.907  14.618  23.022  0.00  0.00    +0.000 A 
ATOM     15  C   UNL     1       9.138  14.384  21.627  0.00  0.00    +0.000 A 
ATOM     16  C   UNL     1       9.137  15.900  23.765  0.00  0.00    +0.000 C 
ATOM     17  C   UNL     1       9.818  17.092  23.160  0.00  0.00    +0.000 C 
ATOM     18  C   UNL     1       8.889  15.924  25.091  0.00  0.00    +0.000 C 
ATOM     19  C   UNL     1       8.419  14.770  25.927  0.00  0.00    +0.000 C 
ATOM     20  C   UNL     1       9.561  14.301  26.843  0.00  0.00    +0.000 C 
ATOM     21  C   UNL     1       7.214  15.187  26.783  0.00  0.00    +0.000 C 
ATOM     22  N   UNL     1       7.997  13.650  25.099  0.00  0.00    +0.000 N 
ATOM     23  H   UNL     1       7.959  12.769  25.602  0.00  0.00    +0.000 HD
ENDROOT
BRANCH   8  24
ATOM     24  O   UNL     1      10.050  10.423  19.062  0.00  0.00    +0.000 OA
ATOM     25  C   UNL     1       8.917   9.617  18.911  0.00  0.00    +0.000 C 
ENDBRANCH   8  24
BRANCH   1  26
ATOM     26  C   UNL     1       7.629  15.368  19.819  0.00  0.00    +0.000 C 
BRANCH  26  28
ATOM     27  C   UNL     1       6.472  17.024  21.319  0.00  0.00    +0.000 C 
ATOM     28  C   UNL     1       6.466  15.879  20.630  0.00  0.00    +0.000 C 
ENDBRANCH  26  28
ENDBRANCH   1  26
TORSDOF 3
ENDMDL
MODEL 8
REMARK VINA RESULT:      -5.9      2.275      5.076
REMARK  Name = 
REMARK  7 active torsions:
REMARK  status: ('A' for Active; 'I' for Inactive)
REMARK    1  A    between atoms: C_2  and  C_3
REMARK    2  A    between atoms: C_3  and  C_4
REMARK    3  A    between atoms: C_11  and  O_12
REMARK    4  A    between atoms: O_12  and  C_13
REMARK    5  A    between atoms: C_21  and  C_22
REMARK    6  A    between atoms: C_24  and  C_25
REMARK    7  A    between atoms: C_24  and  C_26
REMARK                            x       y       z     vdW  Elec       q    Type
REMARK                         _______ _______ _______ _____ _____    ______ ____
ROOT
ATOM      1  C   UNL     1      -1.250  11.811  19.583  0.00  0.00    +0.000 C 
ATOM      2  O   UNL     1      -0.290  12.744  19.098  0.00  0.00    +0.000 OA
ATOM      3  C   UNL     1       0.314  13.509  20.075  0.00  0.00    +0.000 A 
ATOM      4  C   UNL     1       1.622  13.912  19.734  0.00  0.00    +0.000 A 
ATOM      5 BR   UNL     1       2.459  13.387  18.109  0.00  0.00    +0.000 Br
ATOM      6  C   UNL     1       2.345  14.693  20.602  0.00  0.00    +0.000 A 
ATOM      7  C   UNL     1       1.739  15.083  21.783  0.00  0.00    +0.000 A 
ATOM      8  C   UNL     1       0.411  14.714  22.155  0.00  0.00    +0.000 A 
ATOM      9  C   UNL     1      -0.354  13.869  21.304  0.00  0.00    +0.000 A 
ATOM     10  C   UNL     1      -1.770  13.334  21.433  0.00  0.00    +0.000 A 
ATOM     11  C   UNL     1      -2.615  13.439  22.524  0.00  0.00    +0.000 A 
ATOM     12  C   UNL     1      -3.956  13.050  22.489  0.00  0.00    +0.000 A 
ATOM     13  C   UNL     1      -4.536  12.559  21.325  0.00  0.00    +0.000 A 
ATOM     14  C   UNL     1      -3.716  12.308  20.209  0.00  0.00    +0.000 A 
ATOM     15  C   UNL     1      -2.314  12.563  20.358  0.00  0.00    +0.000 A 
ATOM     16  C   UNL     1      -4.415  11.846  18.965  0.00  0.00    +0.000 C 
ATOM     17  C   UNL     1      -3.742  11.750  17.628  0.00  0.00    +0.000 C 
ATOM     18  C   UNL     1      -5.754  11.686  19.006  0.00  0.00    +0.000 C 
ATOM     19  C   UNL     1      -6.645  11.950  20.186  0.00  0.00    +0.000 C 
ATOM     20  C   UNL     1      -7.489  13.207  19.920  0.00  0.00    +0.000 C 
ATOM     21  C   UNL     1      -7.572  10.751  20.433  0.00  0.00    +0.000 C 
ATOM     22  N   UNL     1      -5.871  12.159  21.400  0.00  0.00    +0.000 N 
ATOM     23  H   UNL     1      -6.393  12.623  22.136  0.00  0.00    +0.000 HD
ENDROOT
BRANCH   8  24
ATOM     24  O   UNL     1       0.225  15.342  23.347  0.00  0.00    +0.000 OA
ATOM     25  C   UNL     1      -0.590  16.438  23.649  0.00  0.00    +0.000 C 
ENDBRANCH   8  24
BRANCH   1  26
ATOM     26  C   UNL     1      -0.594  10.680  20.434  0.00  0.00    +0.000 C 
BRANCH  26  28
ATOM     27  C   UNL     1       0.698   9.704  18.507  0.00  0.00    +0.000 C 
ATOM     28  C   UNL     1       0.631  10.085  19.787  0.00  0.00    +0.000 C 
ENDBRANCH  26  28
ENDBRANCH   1  26
TORSDOF 3
ENDMDL
MODEL 9
REMARK VINA RESULT:      -5.9      2.991      6.510
REMARK  Name = 
REMARK  7 active torsions:
REMARK  status: ('A' for Active; 'I' for Inactive)
REMARK    1  A    between atoms: C_2  and  C_3
REMARK    2  A    between atoms: C_3  and  C_4
REMARK    3  A    between atoms: C_11  and  O_12
REMARK    4  A    between atoms: O_12  and  C_13
REMARK    5  A    between atoms: C_21  and  C_22
REMARK    6  A    between atoms: C_24  and  C_25
REMARK    7  A    between atoms: C_24  and  C_26
REMARK                            x       y       z     vdW  Elec       q    Type
REMARK                         _______ _______ _______ _____ _____    ______ ____
ROOT
ATOM      1  C   UNL     1      -2.211  13.368  21.979  0.00  0.00    +0.000 C 
ATOM      2  O   UNL     1      -2.157  14.730  22.389  0.00  0.00    +0.000 OA
ATOM      3  C   UNL     1      -3.297  15.188  23.018  0.00  0.00    +0.000 A 
ATOM      4  C   UNL     1      -3.043  16.217  23.948  0.00  0.00    +0.000 A 
ATOM      5 BR   UNL     1      -1.286  16.845  24.317  0.00  0.00    +0.000 Br
ATOM      6  C   UNL     1      -4.083  16.785  24.642  0.00  0.00    +0.000 A 
ATOM      7  C   UNL     1      -5.364  16.336  24.372  0.00  0.00    +0.000 A 
ATOM      8  C   UNL     1      -5.665  15.312  23.424  0.00  0.00    +0.000 A 
ATOM      9  C   UNL     1      -4.611  14.669  22.718  0.00  0.00    +0.000 A 
ATOM     10  C   UNL     1      -4.633  13.576  21.662  0.00  0.00    +0.000 A 
ATOM     11  C   UNL     1      -5.722  12.836  21.237  0.00  0.00    +0.000 A 
ATOM     12  C   UNL     1      -5.671  11.963  20.148  0.00  0.00    +0.000 A 
ATOM     13  C   UNL     1      -4.512  11.813  19.395  0.00  0.00    +0.000 A 
ATOM     14  C   UNL     1      -3.330  12.437  19.834  0.00  0.00    +0.000 A 
ATOM     15  C   UNL     1      -3.399  13.181  21.056  0.00  0.00    +0.000 A 
ATOM     16  C   UNL     1      -2.135  12.293  18.939  0.00  0.00    +0.000 C 
ATOM     17  C   UNL     1      -0.866  13.071  19.127  0.00  0.00    +0.000 C 
ATOM     18  C   UNL     1      -2.267  11.571  17.807  0.00  0.00    +0.000 C 
ATOM     19  C   UNL     1      -3.519  10.899  17.323  0.00  0.00    +0.000 C 
ATOM     20  C   UNL     1      -4.062  11.650  16.096  0.00  0.00    +0.000 C 
ATOM     21  C   UNL     1      -3.230   9.440  16.945  0.00  0.00    +0.000 C 
ATOM     22  N   UNL     1      -4.548  10.887  18.352  0.00  0.00    +0.000 N 
ATOM     23  H   UNL     1      -5.480  10.722  17.988  0.00  0.00    +0.000 HD
ENDROOT
BRANCH   8  24
ATOM     24  O   UNL     1      -7.022  15.229  23.460  0.00  0.00    +0.000 OA
ATOM     25  C   UNL     1      -7.832  14.288  24.103  0.00  0.00    +0.000 C 
ENDBRANCH   8  24
BRANCH   1  26
ATOM     26  C   UNL     1      -2.253  12.389  23.194  0.00  0.00    +0.000 C 
BRANCH  26  28
ATOM     27  C   UNL     1      -0.382  11.074  22.142  0.00  0.00    +0.000 C 
ATOM     28  C   UNL     1      -1.412  11.155  22.991  0.00  0.00    +0.000 C 
ENDBRANCH  26  28
ENDBRANCH   1  26
TORSDOF 3
ENDMDL
