MODEL 1
REMARK VINA RESULT:      -9.2      0.000      0.000
REMARK  Name = 
REMARK  10 active torsions:
REMARK  status: ('A' for Active; 'I' for Inactive)
REMARK    1  A    between atoms: C_1  and  C_2
REMARK    2  A    between atoms: C_4  and  O_5
REMARK    3  A    between atoms: O_5  and  C_6
REMARK    4  A    between atoms: C_6  and  C_7
REMARK    5  A    between atoms: C_8  and  C_9
REMARK    6  A    between atoms: C_10  and  C_11
REMARK    7  A    between atoms: C_26  and  N_27
REMARK    8  A    between atoms: N_27  and  C_28
REMARK    9  A    between atoms: C_28  and  C_29
REMARK   10  A    between atoms: C_32  and  O_33
REMARK                            x       y       z     vdW  Elec       q    Type
REMARK                         _______ _______ _______ _____ _____    ______ ____
ROOT
ATOM      1  O   UNL     1       0.850   9.318  19.108  0.00  0.00    +0.000 OA
ENDROOT
BRANCH   1   5
ATOM      2  C   UNL     1      -0.472  10.050  23.001  0.00  0.00    +0.000 C 
ATOM      3  C   UNL     1      -0.416  10.385  21.516  0.00  0.00    +0.000 C 
ATOM      4  O   UNL     1       0.971  10.496  21.153  0.00  0.00    +0.000 OA
ATOM      5  C   UNL     1       1.176  10.558  19.743  0.00  0.00    +0.000 C 
ATOM      6  C   UNL     1       0.410  11.729  19.124  0.00  0.00    +0.000 C 
ATOM      7  C   UNL     1      -1.053  11.753  19.559  0.00  0.00    +0.000 C 
ATOM      8  C   UNL     1      -1.192  11.666  21.094  0.00  0.00    +0.000 C 
BRANCH   8   9
ATOM      9  N   UNL     1      -0.703  12.871  21.797  0.00  0.00    +0.000 NA
ATOM     10  H   UNL     1       0.155  13.210  21.363  0.00  0.00    +0.000 HD
BRANCH   9  11
ATOM     11  C   UNL     1      -1.696  13.945  21.867  0.00  0.00    +0.000 C 
BRANCH  11  12
ATOM     12  C   UNL     1      -3.001  13.487  22.477  0.00  0.00    +0.000 A 
ATOM     13  C   UNL     1      -4.174  13.444  21.703  0.00  0.00    +0.000 A 
ATOM     14  C   UNL     1      -5.380  13.011  22.258  0.00  0.00    +0.000 A 
ATOM     15  C   UNL     1      -5.415  12.619  23.591  0.00  0.00    +0.000 A 
ATOM     16  C   UNL     1      -4.263  12.633  24.368  0.00  0.00    +0.000 A 
ATOM     17  C   UNL     1      -3.058  13.067  23.813  0.00  0.00    +0.000 A 
BRANCH  15  18
ATOM     18  O   UNL     1      -6.577  12.215  24.181  0.00  0.00    +0.000 OA
ATOM     19  H   UNL     1      -7.279  12.839  23.935  0.00  0.00    +0.000 HD
ENDBRANCH  15  18
ENDBRANCH  11  12
ENDBRANCH   9  11
ENDBRANCH   8   9
ENDBRANCH   1   5
BRANCH   1  20
ATOM     20  C   UNL     1       1.707   9.129  17.979  0.00  0.00    +0.000 C 
BRANCH  20  21
ATOM     21  C   UNL     1       2.468   7.884  18.064  0.00  0.00    +0.000 C 
ATOM     22  C   UNL     1       2.939   6.784  18.118  0.00  0.00    +0.000 C 
BRANCH  22  23
ATOM     23  C   UNL     1       3.406   5.444  18.258  0.00  0.00    +0.000 A 
ATOM     24  C   UNL     1       4.729   5.056  18.225  0.00  0.00    +0.000 A 
ATOM     25  O   UNL     1       4.805   3.688  18.295  0.00  0.00    +0.000 OA
ATOM     26  C   UNL     1       3.523   3.224  18.435  0.00  0.00    +0.000 A 
ATOM     27  C   UNL     1       3.124   1.890  18.538  0.00  0.00    +0.000 A 
ATOM     28  C   UNL     1       1.753   1.649  18.703  0.00  0.00    +0.000 A 
ATOM     29  C   UNL     1       0.833   2.701  18.771  0.00  0.00    +0.000 A 
ATOM     30  C   UNL     1       1.254   4.028  18.647  0.00  0.00    +0.000 A 
ATOM     31  C   UNL     1       2.624   4.288  18.462  0.00  0.00    +0.000 A 
BRANCH  24  32
ATOM     32  C   UNL     1       5.969   5.819  18.096  0.00  0.00    +0.000 A 
ATOM     33  C   UNL     1       7.019   5.583  19.003  0.00  0.00    +0.000 A 
ATOM     34  C   UNL     1       8.111   6.446  19.085  0.00  0.00    +0.000 A 
ATOM     35  C   UNL     1       8.190   7.535  18.226  0.00  0.00    +0.000 A 
ATOM     36  C   UNL     1       7.201   7.733  17.262  0.00  0.00    +0.000 A 
ATOM     37  C   UNL     1       6.096   6.876  17.190  0.00  0.00    +0.000 A 
ENDBRANCH  24  32
ENDBRANCH  22  23
ENDBRANCH  20  21
ENDBRANCH   1  20
TORSDOF 9
ENDMDL
MODEL 2
REMARK VINA RESULT:      -9.2      3.103      5.696
REMARK  Name = 
REMARK  10 active torsions:
REMARK  status: ('A' for Active; 'I' for Inactive)
REMARK    1  A    between atoms: C_1  and  C_2
REMARK    2  A    between atoms: C_4  and  O_5
REMARK    3  A    between atoms: O_5  and  C_6
REMARK    4  A    between atoms: C_6  and  C_7
REMARK    5  A    between atoms: C_8  and  C_9
REMARK    6  A    between atoms: C_10  and  C_11
REMARK    7  A    between atoms: C_26  and  N_27
REMARK    8  A    between atoms: N_27  and  C_28
REMARK    9  A    between atoms: C_28  and  C_29
REMARK   10  A    between atoms: C_32  and  O_33
REMARK                            x       y       z     vdW  Elec       q    Type
REMARK                         _______ _______ _______ _____ _____    ______ ____
ROOT
ATOM      1  O   UNL     1       2.701   3.112  18.917  0.00  0.00    +0.000 OA
ENDROOT
BRANCH   1   5
ATOM      2  C   UNL     1       2.971   7.173  17.983  0.00  0.00    +0.000 C 
ATOM      3  C   UNL     1       2.719   6.033  18.962  0.00  0.00    +0.000 C 
ATOM      4  O   UNL     1       1.707   5.189  18.386  0.00  0.00    +0.000 OA
ATOM      5  C   UNL     1       1.553   3.951  19.077  0.00  0.00    +0.000 C 
ATOM      6  C   UNL     1       1.221   4.180  20.553  0.00  0.00    +0.000 C 
ATOM      7  C   UNL     1       2.183   5.166  21.212  0.00  0.00    +0.000 C 
ATOM      8  C   UNL     1       2.308   6.471  20.397  0.00  0.00    +0.000 C 
BRANCH   8   9
ATOM      9  N   UNL     1       1.075   7.286  20.401  0.00  0.00    +0.000 NA
ATOM     10  H   UNL     1       0.576   7.169  21.283  0.00  0.00    +0.000 HD
BRANCH   9  11
ATOM     11  C   UNL     1       1.317   8.706  20.140  0.00  0.00    +0.000 C 
BRANCH  11  12
ATOM     12  C   UNL     1       0.483   9.606  21.024  0.00  0.00    +0.000 A 
ATOM     13  C   UNL     1       0.154   9.214  22.333  0.00  0.00    +0.000 A 
ATOM     14  C   UNL     1      -0.606  10.046  23.158  0.00  0.00    +0.000 A 
ATOM     15  C   UNL     1      -1.039  11.275  22.673  0.00  0.00    +0.000 A 
ATOM     16  C   UNL     1      -0.706  11.692  21.390  0.00  0.00    +0.000 A 
ATOM     17  C   UNL     1       0.052  10.859  20.566  0.00  0.00    +0.000 A 
BRANCH  15  18
ATOM     18  O   UNL     1      -1.805  12.107  23.435  0.00  0.00    +0.000 OA
ATOM     19  H   UNL     1      -2.348  12.653  22.843  0.00  0.00    +0.000 HD
ENDBRANCH  15  18
ENDBRANCH  11  12
ENDBRANCH   9  11
ENDBRANCH   8   9
ENDBRANCH   1   5
BRANCH   1  20
ATOM     20  C   UNL     1       2.826   2.744  17.541  0.00  0.00    +0.000 C 
BRANCH  20  21
ATOM     21  C   UNL     1       3.919   3.451  16.876  0.00  0.00    +0.000 C 
ATOM     22  C   UNL     1       4.784   3.926  16.197  0.00  0.00    +0.000 C 
BRANCH  22  23
ATOM     23  C   UNL     1       5.843   4.376  15.355  0.00  0.00    +0.000 A 
ATOM     24  C   UNL     1       6.865   5.216  15.745  0.00  0.00    +0.000 A 
ATOM     25  O   UNL     1       7.649   5.514  14.659  0.00  0.00    +0.000 OA
ATOM     26  C   UNL     1       7.148   4.806  13.598  0.00  0.00    +0.000 A 
ATOM     27  C   UNL     1       7.630   4.810  12.288  0.00  0.00    +0.000 A 
ATOM     28  C   UNL     1       6.972   3.982  11.367  0.00  0.00    +0.000 A 
ATOM     29  C   UNL     1       5.890   3.182  11.752  0.00  0.00    +0.000 A 
ATOM     30  C   UNL     1       5.414   3.209  13.066  0.00  0.00    +0.000 A 
ATOM     31  C   UNL     1       6.049   4.048  13.999  0.00  0.00    +0.000 A 
BRANCH  24  32
ATOM     32  C   UNL     1       7.194   5.823  17.033  0.00  0.00    +0.000 A 
ATOM     33  C   UNL     1       7.564   7.181  17.078  0.00  0.00    +0.000 A 
ATOM     34  C   UNL     1       8.127   7.739  18.226  0.00  0.00    +0.000 A 
ATOM     35  C   UNL     1       8.283   6.956  19.363  0.00  0.00    +0.000 A 
ATOM     36  C   UNL     1       7.840   5.632  19.362  0.00  0.00    +0.000 A 
ATOM     37  C   UNL     1       7.291   5.067  18.204  0.00  0.00    +0.000 A 
ENDBRANCH  24  32
ENDBRANCH  22  23
ENDBRANCH  20  21
ENDBRANCH   1  20
TORSDOF 9
ENDMDL
MODEL 3
REMARK VINA RESULT:      -9.1      1.551      3.653
REMARK  Name = 
REMARK  10 active torsions:
REMARK  status: ('A' for Active; 'I' for Inactive)
REMARK    1  A    between atoms: C_1  and  C_2
REMARK    2  A    between atoms: C_4  and  O_5
REMARK    3  A    between atoms: O_5  and  C_6
REMARK    4  A    between atoms: C_6  and  C_7
REMARK    5  A    between atoms: C_8  and  C_9
REMARK    6  A    between atoms: C_10  and  C_11
REMARK    7  A    between atoms: C_26  and  N_27
REMARK    8  A    between atoms: N_27  and  C_28
REMARK    9  A    between atoms: C_28  and  C_29
REMARK   10  A    between atoms: C_32  and  O_33
REMARK                            x       y       z     vdW  Elec       q    Type
REMARK                         _______ _______ _______ _____ _____    ______ ____
ROOT
ATOM      1  O   UNL     1       0.944   9.366  19.161  0.00  0.00    +0.000 OA
ENDROOT
BRANCH   1   5
ATOM      2  C   UNL     1      -0.301   9.806  23.123  0.00  0.00    +0.000 C 
ATOM      3  C   UNL     1      -0.315  10.218  21.657  0.00  0.00    +0.000 C 
ATOM      4  O   UNL     1       1.048  10.445  21.262  0.00  0.00    +0.000 OA
ATOM      5  C   UNL     1       1.205  10.592  19.852  0.00  0.00    +0.000 C 
ATOM      6  C   UNL     1       0.341  11.736  19.317  0.00  0.00    +0.000 C 
ATOM      7  C   UNL     1      -1.106  11.636  19.794  0.00  0.00    +0.000 C 
ATOM      8  C   UNL     1      -1.190  11.462  21.325  0.00  0.00    +0.000 C 
BRANCH   8   9
ATOM      9  N   UNL     1      -0.762  12.661  22.077  0.00  0.00    +0.000 NA
ATOM     10  H   UNL     1       0.141  12.989  21.736  0.00  0.00    +0.000 HD
BRANCH   9  11
ATOM     11  C   UNL     1      -1.743  13.748  22.041  0.00  0.00    +0.000 C 
BRANCH  11  12
ATOM     12  C   UNL     1      -3.086  13.334  22.600  0.00  0.00    +0.000 A 
ATOM     13  C   UNL     1      -3.205  12.925  23.939  0.00  0.00    +0.000 A 
ATOM     14  C   UNL     1      -4.444  12.552  24.464  0.00  0.00    +0.000 A 
ATOM     15  C   UNL     1      -5.569  12.589  23.648  0.00  0.00    +0.000 A 
ATOM     16  C   UNL     1      -5.477  13.012  22.327  0.00  0.00    +0.000 A 
ATOM     17  C   UNL     1      -4.238  13.382  21.803  0.00  0.00    +0.000 A 
BRANCH  15  18
ATOM     18  O   UNL     1      -6.794  12.208  24.112  0.00  0.00    +0.000 OA
ATOM     19  H   UNL     1      -6.726  11.300  24.448  0.00  0.00    +0.000 HD
ENDBRANCH  15  18
ENDBRANCH  11  12
ENDBRANCH   9  11
ENDBRANCH   8   9
ENDBRANCH   1   5
BRANCH   1  20
ATOM     20  C   UNL     1       1.881   9.221  18.090  0.00  0.00    +0.000 C 
BRANCH  20  21
ATOM     21  C   UNL     1       2.444   7.874  18.025  0.00  0.00    +0.000 C 
ATOM     22  C   UNL     1       3.027   6.839  17.870  0.00  0.00    +0.000 C 
BRANCH  22  23
ATOM     23  C   UNL     1       3.731   5.638  17.566  0.00  0.00    +0.000 A 
ATOM     24  C   UNL     1       3.583   4.439  18.232  0.00  0.00    +0.000 A 
ATOM     25  O   UNL     1       4.481   3.528  17.737  0.00  0.00    +0.000 OA
ATOM     26  C   UNL     1       5.152   4.145  16.713  0.00  0.00    +0.000 A 
ATOM     27  C   UNL     1       6.165   3.594  15.927  0.00  0.00    +0.000 A 
ATOM     28  C   UNL     1       6.693   4.405  14.912  0.00  0.00    +0.000 A 
ATOM     29  C   UNL     1       6.214   5.702  14.695  0.00  0.00    +0.000 A 
ATOM     30  C   UNL     1       5.212   6.239  15.508  0.00  0.00    +0.000 A 
ATOM     31  C   UNL     1       4.684   5.447  16.543  0.00  0.00    +0.000 A 
BRANCH  24  32
ATOM     32  C   UNL     1       2.707   4.033  19.330  0.00  0.00    +0.000 A 
ATOM     33  C   UNL     1       3.277   3.664  20.563  0.00  0.00    +0.000 A 
ATOM     34  C   UNL     1       2.520   3.033  21.549  0.00  0.00    +0.000 A 
ATOM     35  C   UNL     1       1.166   2.805  21.333  0.00  0.00    +0.000 A 
ATOM     36  C   UNL     1       0.568   3.243  20.151  0.00  0.00    +0.000 A 
ATOM     37  C   UNL     1       1.331   3.862  19.154  0.00  0.00    +0.000 A 
ENDBRANCH  24  32
ENDBRANCH  22  23
ENDBRANCH  20  21
ENDBRANCH   1  20
TORSDOF 9
ENDMDL
MODEL 4
REMARK VINA RESULT:      -9.0      0.907      1.257
REMARK  Name = 
REMARK  10 active torsions:
REMARK  status: ('A' for Active; 'I' for Inactive)
REMARK    1  A    between atoms: C_1  and  C_2
REMARK    2  A    between atoms: C_4  and  O_5
REMARK    3  A    between atoms: O_5  and  C_6
REMARK    4  A    between atoms: C_6  and  C_7
REMARK    5  A    between atoms: C_8  and  C_9
REMARK    6  A    between atoms: C_10  and  C_11
REMARK    7  A    between atoms: C_26  and  N_27
REMARK    8  A    between atoms: N_27  and  C_28
REMARK    9  A    between atoms: C_28  and  C_29
REMARK   10  A    between atoms: C_32  and  O_33
REMARK                            x       y       z     vdW  Elec       q    Type
REMARK                         _______ _______ _______ _____ _____    ______ ____
ROOT
ATOM      1  O   UNL     1       1.066   9.697  17.918  0.00  0.00    +0.000 OA
ENDROOT
BRANCH   1   5
ATOM      2  C   UNL     1       1.154   9.317  22.076  0.00  0.00    +0.000 C 
ATOM      3  C   UNL     1       0.473   9.734  20.779  0.00  0.00    +0.000 C 
ATOM      4  O   UNL     1       1.379  10.603  20.079  0.00  0.00    +0.000 OA
ATOM      5  C   UNL     1       0.975  10.867  18.737  0.00  0.00    +0.000 C 
ATOM      6  C   UNL     1      -0.427  11.480  18.692  0.00  0.00    +0.000 C 
ATOM      7  C   UNL     1      -1.431  10.678  19.517  0.00  0.00    +0.000 C 
ATOM      8  C   UNL     1      -0.914  10.419  20.949  0.00  0.00    +0.000 C 
BRANCH   8   9
ATOM      9  N   UNL     1      -0.834  11.643  21.774  0.00  0.00    +0.000 NA
ATOM     10  H   UNL     1      -1.150  12.452  21.239  0.00  0.00    +0.000 HD
BRANCH   9  11
ATOM     11  C   UNL     1      -1.580  11.545  23.031  0.00  0.00    +0.000 C 
BRANCH  11  12
ATOM     12  C   UNL     1      -2.904  12.274  22.976  0.00  0.00    +0.000 A 
ATOM     13  C   UNL     1      -3.726  12.344  24.114  0.00  0.00    +0.000 A 
ATOM     14  C   UNL     1      -4.945  13.025  24.073  0.00  0.00    +0.000 A 
ATOM     15  C   UNL     1      -5.343  13.640  22.891  0.00  0.00    +0.000 A 
ATOM     16  C   UNL     1      -4.534  13.601  21.761  0.00  0.00    +0.000 A 
ATOM     17  C   UNL     1      -3.318  12.918  21.802  0.00  0.00    +0.000 A 
BRANCH  15  18
ATOM     18  O   UNL     1      -6.536  14.293  22.799  0.00  0.00    +0.000 OA
ATOM     19  H   UNL     1      -6.441  15.017  22.159  0.00  0.00    +0.000 HD
ENDBRANCH  15  18
ENDBRANCH  11  12
ENDBRANCH   9  11
ENDBRANCH   8   9
ENDBRANCH   1   5
BRANCH   1  20
ATOM     20  C   UNL     1       2.438   9.305  17.811  0.00  0.00    +0.000 C 
BRANCH  20  21
ATOM     21  C   UNL     1       2.615   7.862  17.961  0.00  0.00    +0.000 C 
ATOM     22  C   UNL     1       2.919   6.717  18.136  0.00  0.00    +0.000 C 
BRANCH  22  23
ATOM     23  C   UNL     1       3.391   5.381  18.293  0.00  0.00    +0.000 A 
ATOM     24  C   UNL     1       4.716   4.997  18.264  0.00  0.00    +0.000 A 
ATOM     25  O   UNL     1       4.796   3.631  18.352  0.00  0.00    +0.000 OA
ATOM     26  C   UNL     1       3.516   3.163  18.498  0.00  0.00    +0.000 A 
ATOM     27  C   UNL     1       3.122   1.830  18.618  0.00  0.00    +0.000 A 
ATOM     28  C   UNL     1       1.752   1.586  18.786  0.00  0.00    +0.000 A 
ATOM     29  C   UNL     1       0.828   2.636  18.842  0.00  0.00    +0.000 A 
ATOM     30  C   UNL     1       1.244   3.962  18.701  0.00  0.00    +0.000 A 
ATOM     31  C   UNL     1       2.613   4.225  18.512  0.00  0.00    +0.000 A 
BRANCH  24  32
ATOM     32  C   UNL     1       5.953   5.763  18.125  0.00  0.00    +0.000 A 
ATOM     33  C   UNL     1       7.004   5.543  19.034  0.00  0.00    +0.000 A 
ATOM     34  C   UNL     1       8.092   6.411  19.106  0.00  0.00    +0.000 A 
ATOM     35  C   UNL     1       8.168   7.489  18.232  0.00  0.00    +0.000 A 
ATOM     36  C   UNL     1       7.177   7.671  17.266  0.00  0.00    +0.000 A 
ATOM     37  C   UNL     1       6.075   6.809  17.205  0.00  0.00    +0.000 A 
ENDBRANCH  24  32
ENDBRANCH  22  23
ENDBRANCH  20  21
ENDBRANCH   1  20
TORSDOF 9
ENDMDL
MODEL 5
REMARK VINA RESULT:      -8.9      1.737      3.880
REMARK  Name = 
REMARK  10 active torsions:
REMARK  status: ('A' for Active; 'I' for Inactive)
REMARK    1  A    between atoms: C_1  and  C_2
REMARK    2  A    between atoms: C_4  and  O_5
REMARK    3  A    between atoms: O_5  and  C_6
REMARK    4  A    between atoms: C_6  and  C_7
REMARK    5  A    between atoms: C_8  and  C_9
REMARK    6  A    between atoms: C_10  and  C_11
REMARK    7  A    between atoms: C_26  and  N_27
REMARK    8  A    between atoms: N_27  and  C_28
REMARK    9  A    between atoms: C_28  and  C_29
REMARK   10  A    between atoms: C_32  and  O_33
REMARK                            x       y       z     vdW  Elec       q    Type
REMARK                         _______ _______ _______ _____ _____    ______ ____
ROOT
ATOM      1  O   UNL     1       1.432   9.719  19.179  0.00  0.00    +0.000 OA
ENDROOT
BRANCH   1   5
ATOM      2  C   UNL     1      -0.410  13.453  18.862  0.00  0.00    +0.000 C 
ATOM      3  C   UNL     1       0.059  12.251  19.672  0.00  0.00    +0.000 C 
ATOM      4  O   UNL     1      -0.499  11.077  19.058  0.00  0.00    +0.000 OA
ATOM      5  C   UNL     1       0.060   9.865  19.561  0.00  0.00    +0.000 C 
ATOM      6  C   UNL     1      -0.120   9.760  21.077  0.00  0.00    +0.000 C 
ATOM      7  C   UNL     1       0.340  11.025  21.798  0.00  0.00    +0.000 C 
ATOM      8  C   UNL     1      -0.294  12.292  21.186  0.00  0.00    +0.000 C 
BRANCH   8   9
ATOM      9  N   UNL     1      -1.751  12.390  21.417  0.00  0.00    +0.000 NA
ATOM     10  H   UNL     1      -2.246  11.705  20.846  0.00  0.00    +0.000 HD
BRANCH   9  11
ATOM     11  C   UNL     1      -2.127  12.242  22.825  0.00  0.00    +0.000 C 
BRANCH  11  12
ATOM     12  C   UNL     1      -3.602  12.481  23.057  0.00  0.00    +0.000 A 
ATOM     13  C   UNL     1      -4.458  12.756  21.977  0.00  0.00    +0.000 A 
ATOM     14  C   UNL     1      -5.823  12.967  22.183  0.00  0.00    +0.000 A 
ATOM     15  C   UNL     1      -6.335  12.902  23.474  0.00  0.00    +0.000 A 
ATOM     16  C   UNL     1      -5.510  12.610  24.553  0.00  0.00    +0.000 A 
ATOM     17  C   UNL     1      -4.145  12.401  24.346  0.00  0.00    +0.000 A 
BRANCH  15  18
ATOM     18  O   UNL     1      -7.657  13.127  23.724  0.00  0.00    +0.000 OA
ATOM     19  H   UNL     1      -8.177  12.459  23.249  0.00  0.00    +0.000 HD
ENDBRANCH  15  18
ENDBRANCH  11  12
ENDBRANCH   9  11
ENDBRANCH   8   9
ENDBRANCH   1   5
BRANCH   1  20
ATOM     20  C   UNL     1       1.498   9.087  17.898  0.00  0.00    +0.000 C 
BRANCH  20  21
ATOM     21  C   UNL     1       2.293   7.860  17.926  0.00  0.00    +0.000 C 
ATOM     22  C   UNL     1       2.959   6.876  17.778  0.00  0.00    +0.000 C 
BRANCH  22  23
ATOM     23  C   UNL     1       3.683   5.679  17.502  0.00  0.00    +0.000 A 
ATOM     24  C   UNL     1       3.507   4.476  18.153  0.00  0.00    +0.000 A 
ATOM     25  O   UNL     1       4.433   3.572  17.698  0.00  0.00    +0.000 OA
ATOM     26  C   UNL     1       5.151   4.198  16.712  0.00  0.00    +0.000 A 
ATOM     27  C   UNL     1       6.204   3.656  15.973  0.00  0.00    +0.000 A 
ATOM     28  C   UNL     1       6.777   4.475  14.991  0.00  0.00    +0.000 A 
ATOM     29  C   UNL     1       6.304   5.771  14.758  0.00  0.00    +0.000 A 
ATOM     30  C   UNL     1       5.261   6.299  15.524  0.00  0.00    +0.000 A 
ATOM     31  C   UNL     1       4.686   5.498  16.527  0.00  0.00    +0.000 A 
BRANCH  24  32
ATOM     32  C   UNL     1       2.581   4.059  19.204  0.00  0.00    +0.000 A 
ATOM     33  C   UNL     1       2.930   4.269  20.551  0.00  0.00    +0.000 A 
ATOM     34  C   UNL     1       2.211   3.671  21.585  0.00  0.00    +0.000 A 
ATOM     35  C   UNL     1       1.101   2.890  21.287  0.00  0.00    +0.000 A 
ATOM     36  C   UNL     1       0.690   2.744  19.961  0.00  0.00    +0.000 A 
ATOM     37  C   UNL     1       1.422   3.331  18.921  0.00  0.00    +0.000 A 
ENDBRANCH  24  32
ENDBRANCH  22  23
ENDBRANCH  20  21
ENDBRANCH   1  20
TORSDOF 9
ENDMDL
MODEL 6
REMARK VINA RESULT:      -8.9      2.061      4.035
REMARK  Name = 
REMARK  10 active torsions:
REMARK  status: ('A' for Active; 'I' for Inactive)
REMARK    1  A    between atoms: C_1  and  C_2
REMARK    2  A    between atoms: C_4  and  O_5
REMARK    3  A    between atoms: O_5  and  C_6
REMARK    4  A    between atoms: C_6  and  C_7
REMARK    5  A    between atoms: C_8  and  C_9
REMARK    6  A    between atoms: C_10  and  C_11
REMARK    7  A    between atoms: C_26  and  N_27
REMARK    8  A    between atoms: N_27  and  C_28
REMARK    9  A    between atoms: C_28  and  C_29
REMARK   10  A    between atoms: C_32  and  O_33
REMARK                            x       y       z     vdW  Elec       q    Type
REMARK                         _______ _______ _______ _____ _____    ______ ____
ROOT
ATOM      1  O   UNL     1       0.926   9.509  17.659  0.00  0.00    +0.000 OA
ENDROOT
BRANCH   1   5
ATOM      2  C   UNL     1      -2.739  11.156  16.522  0.00  0.00    +0.000 C 
ATOM      3  C   UNL     1      -1.516  11.097  17.428  0.00  0.00    +0.000 C 
ATOM      4  O   UNL     1      -1.411   9.750  17.918  0.00  0.00    +0.000 OA
ATOM      5  C   UNL     1      -0.172   9.490  18.576  0.00  0.00    +0.000 C 
ATOM      6  C   UNL     1       0.048  10.456  19.742  0.00  0.00    +0.000 C 
ATOM      7  C   UNL     1      -0.165  11.911  19.331  0.00  0.00    +0.000 C 
ATOM      8  C   UNL     1      -1.517  12.107  18.612  0.00  0.00    +0.000 C 
BRANCH   8   9
ATOM      9  N   UNL     1      -2.686  11.925  19.499  0.00  0.00    +0.000 NA
ATOM     10  H   UNL     1      -2.483  11.224  20.212  0.00  0.00    +0.000 HD
BRANCH   9  11
ATOM     11  C   UNL     1      -3.139  13.169  20.125  0.00  0.00    +0.000 C 
BRANCH  11  12
ATOM     12  C   UNL     1      -3.515  12.981  21.577  0.00  0.00    +0.000 A 
ATOM     13  C   UNL     1      -4.742  13.465  22.064  0.00  0.00    +0.000 A 
ATOM     14  C   UNL     1      -5.101  13.285  23.402  0.00  0.00    +0.000 A 
ATOM     15  C   UNL     1      -4.230  12.618  24.257  0.00  0.00    +0.000 A 
ATOM     16  C   UNL     1      -3.023  12.112  23.790  0.00  0.00    +0.000 A 
ATOM     17  C   UNL     1      -2.665  12.294  22.454  0.00  0.00    +0.000 A 
BRANCH  15  18
ATOM     18  O   UNL     1      -4.528  12.443  25.576  0.00  0.00    +0.000 OA
ATOM     19  H   UNL     1      -3.700  12.455  26.082  0.00  0.00    +0.000 HD
ENDBRANCH  15  18
ENDBRANCH  11  12
ENDBRANCH   9  11
ENDBRANCH   8   9
ENDBRANCH   1   5
BRANCH   1  20
ATOM     20  C   UNL     1       2.148   9.345  18.385  0.00  0.00    +0.000 C 
BRANCH  20  21
ATOM     21  C   UNL     1       2.691   7.994  18.256  0.00  0.00    +0.000 C 
ATOM     22  C   UNL     1       3.209   6.944  18.003  0.00  0.00    +0.000 C 
BRANCH  22  23
ATOM     23  C   UNL     1       3.789   5.711  17.585  0.00  0.00    +0.000 A 
ATOM     24  C   UNL     1       3.583   4.489  18.192  0.00  0.00    +0.000 A 
ATOM     25  O   UNL     1       4.369   3.541  17.587  0.00  0.00    +0.000 OA
ATOM     26  C   UNL     1       5.023   4.164  16.556  0.00  0.00    +0.000 A 
ATOM     27  C   UNL     1       5.934   3.582  15.673  0.00  0.00    +0.000 A 
ATOM     28  C   UNL     1       6.462   4.409  14.671  0.00  0.00    +0.000 A 
ATOM     29  C   UNL     1       6.081   5.751  14.560  0.00  0.00    +0.000 A 
ATOM     30  C   UNL     1       5.182   6.315  15.468  0.00  0.00    +0.000 A 
ATOM     31  C   UNL     1       4.656   5.506  16.491  0.00  0.00    +0.000 A 
BRANCH  24  32
ATOM     32  C   UNL     1       2.748   4.088  19.323  0.00  0.00    +0.000 A 
ATOM     33  C   UNL     1       3.354   3.503  20.451  0.00  0.00    +0.000 A 
ATOM     34  C   UNL     1       2.592   2.878  21.437  0.00  0.00    +0.000 A 
ATOM     35  C   UNL     1       1.207   2.870  21.332  0.00  0.00    +0.000 A 
ATOM     36  C   UNL     1       0.587   3.522  20.264  0.00  0.00    +0.000 A 
ATOM     37  C   UNL     1       1.353   4.135  19.265  0.00  0.00    +0.000 A 
ENDBRANCH  24  32
ENDBRANCH  22  23
ENDBRANCH  20  21
ENDBRANCH   1  20
TORSDOF 9
ENDMDL
MODEL 7
REMARK VINA RESULT:      -8.8      1.334      1.877
REMARK  Name = 
REMARK  10 active torsions:
REMARK  status: ('A' for Active; 'I' for Inactive)
REMARK    1  A    between atoms: C_1  and  C_2
REMARK    2  A    between atoms: C_4  and  O_5
REMARK    3  A    between atoms: O_5  and  C_6
REMARK    4  A    between atoms: C_6  and  C_7
REMARK    5  A    between atoms: C_8  and  C_9
REMARK    6  A    between atoms: C_10  and  C_11
REMARK    7  A    between atoms: C_26  and  N_27
REMARK    8  A    between atoms: N_27  and  C_28
REMARK    9  A    between atoms: C_28  and  C_29
REMARK   10  A    between atoms: C_32  and  O_33
REMARK                            x       y       z     vdW  Elec       q    Type
REMARK                         _______ _______ _______ _____ _____    ______ ____
ROOT
ATOM      1  O   UNL     1       0.946   9.465  18.881  0.00  0.00    +0.000 OA
ENDROOT
BRANCH   1   5
ATOM      2  C   UNL     1      -0.391  10.157  22.776  0.00  0.00    +0.000 C 
ATOM      3  C   UNL     1      -0.368  10.477  21.287  0.00  0.00    +0.000 C 
ATOM      4  O   UNL     1       1.006  10.673  20.913  0.00  0.00    +0.000 OA
ATOM      5  C   UNL     1       1.197  10.731  19.500  0.00  0.00    +0.000 C 
ATOM      6  C   UNL     1       0.353  11.844  18.874  0.00  0.00    +0.000 C 
ATOM      7  C   UNL     1      -1.106  11.779  19.321  0.00  0.00    +0.000 C 
ATOM      8  C   UNL     1      -1.228  11.701  20.858  0.00  0.00    +0.000 C 
BRANCH   8   9
ATOM      9  N   UNL     1      -0.812  12.943  21.544  0.00  0.00    +0.000 NA
ATOM     10  H   UNL     1       0.028  13.324  21.107  0.00  0.00    +0.000 HD
BRANCH   9  11
ATOM     11  C   UNL     1      -1.864  13.960  21.591  0.00  0.00    +0.000 C 
BRANCH  11  12
ATOM     12  C   UNL     1      -3.098  13.481  22.323  0.00  0.00    +0.000 A 
ATOM     13  C   UNL     1      -3.016  13.070  23.665  0.00  0.00    +0.000 A 
ATOM     14  C   UNL     1      -4.154  12.637  24.350  0.00  0.00    +0.000 A 
ATOM     15  C   UNL     1      -5.378  12.615  23.692  0.00  0.00    +0.000 A 
ATOM     16  C   UNL     1      -5.485  13.038  22.372  0.00  0.00    +0.000 A 
ATOM     17  C   UNL     1      -4.347  13.468  21.688  0.00  0.00    +0.000 A 
BRANCH  15  18
ATOM     18  O   UNL     1      -6.509  12.175  24.314  0.00  0.00    +0.000 OA
ATOM     19  H   UNL     1      -6.388  12.268  25.273  0.00  0.00    +0.000 HD
ENDBRANCH  15  18
ENDBRANCH  11  12
ENDBRANCH   9  11
ENDBRANCH   8   9
ENDBRANCH   1   5
BRANCH   1  20
ATOM     20  C   UNL     1       1.977   9.196  17.927  0.00  0.00    +0.000 C 
BRANCH  20  21
ATOM     21  C   UNL     1       2.440   7.811  17.987  0.00  0.00    +0.000 C 
ATOM     22  C   UNL     1       2.729   6.666  18.184  0.00  0.00    +0.000 C 
BRANCH  22  23
ATOM     23  C   UNL     1       3.091   5.333  18.537  0.00  0.00    +0.000 A 
ATOM     24  C   UNL     1       4.087   4.594  17.933  0.00  0.00    +0.000 A 
ATOM     25  O   UNL     1       4.097   3.327  18.460  0.00  0.00    +0.000 OA
ATOM     26  C   UNL     1       3.142   3.295  19.442  0.00  0.00    +0.000 A 
ATOM     27  C   UNL     1       2.801   2.202  20.240  0.00  0.00    +0.000 A 
ATOM     28  C   UNL     1       1.805   2.407  21.206  0.00  0.00    +0.000 A 
ATOM     29  C   UNL     1       1.194   3.656  21.365  0.00  0.00    +0.000 A 
ATOM     30  C   UNL     1       1.539   4.731  20.541  0.00  0.00    +0.000 A 
ATOM     31  C   UNL     1       2.522   4.538  19.554  0.00  0.00    +0.000 A 
BRANCH  24  32
ATOM     32  C   UNL     1       5.036   4.917  16.870  0.00  0.00    +0.000 A 
ATOM     33  C   UNL     1       4.934   4.253  15.633  0.00  0.00    +0.000 A 
ATOM     34  C   UNL     1       5.952   4.333  14.684  0.00  0.00    +0.000 A 
ATOM     35  C   UNL     1       7.068   5.121  14.940  0.00  0.00    +0.000 A 
ATOM     36  C   UNL     1       7.143   5.855  16.124  0.00  0.00    +0.000 A 
ATOM     37  C   UNL     1       6.129   5.761  17.085  0.00  0.00    +0.000 A 
ENDBRANCH  24  32
ENDBRANCH  22  23
ENDBRANCH  20  21
ENDBRANCH   1  20
TORSDOF 9
ENDMDL
MODEL 8
REMARK VINA RESULT:      -8.8      1.908      4.037
REMARK  Name = 
REMARK  10 active torsions:
REMARK  status: ('A' for Active; 'I' for Inactive)
REMARK    1  A    between atoms: C_1  and  C_2
REMARK    2  A    between atoms: C_4  and  O_5
REMARK    3  A    between atoms: O_5  and  C_6
REMARK    4  A    between atoms: C_6  and  C_7
REMARK    5  A    between atoms: C_8  and  C_9
REMARK    6  A    between atoms: C_10  and  C_11
REMARK    7  A    between atoms: C_26  and  N_27
REMARK    8  A    between atoms: N_27  and  C_28
REMARK    9  A    between atoms: C_28  and  C_29
REMARK   10  A    between atoms: C_32  and  O_33
REMARK                            x       y       z     vdW  Elec       q    Type
REMARK                         _______ _______ _______ _____ _____    ______ ____
ROOT
ATOM      1  O   UNL     1       1.004   9.269  18.873  0.00  0.00    +0.000 OA
ENDROOT
BRANCH   1   5
ATOM      2  C   UNL     1      -2.754  10.070  17.239  0.00  0.00    +0.000 C 
ATOM      3  C   UNL     1      -1.452  10.513  17.892  0.00  0.00    +0.000 C 
ATOM      4  O   UNL     1      -1.299   9.751  19.102  0.00  0.00    +0.000 OA
ATOM      5  C   UNL     1      -0.003   9.882  19.684  0.00  0.00    +0.000 C 
ATOM      6  C   UNL     1       0.324  11.347  19.980  0.00  0.00    +0.000 C 
ATOM      7  C   UNL     1       0.071  12.248  18.774  0.00  0.00    +0.000 C 
ATOM      8  C   UNL     1      -1.343  12.036  18.192  0.00  0.00    +0.000 C 
BRANCH   8   9
ATOM      9  N   UNL     1      -2.423  12.506  19.085  0.00  0.00    +0.000 NA
ATOM     10  H   UNL     1      -3.016  11.725  19.365  0.00  0.00    +0.000 HD
BRANCH   9  11
ATOM     11  C   UNL     1      -1.929  13.216  20.268  0.00  0.00    +0.000 C 
BRANCH  11  12
ATOM     12  C   UNL     1      -2.886  13.129  21.435  0.00  0.00    +0.000 A 
ATOM     13  C   UNL     1      -4.260  12.925  21.217  0.00  0.00    +0.000 A 
ATOM     14  C   UNL     1      -5.148  12.833  22.291  0.00  0.00    +0.000 A 
ATOM     15  C   UNL     1      -4.661  12.943  23.589  0.00  0.00    +0.000 A 
ATOM     16  C   UNL     1      -3.303  13.122  23.827  0.00  0.00    +0.000 A 
ATOM     17  C   UNL     1      -2.417  13.217  22.753  0.00  0.00    +0.000 A 
BRANCH  15  18
ATOM     18  O   UNL     1      -5.495  12.885  24.666  0.00  0.00    +0.000 OA
ATOM     19  H   UNL     1      -5.685  13.791  24.957  0.00  0.00    +0.000 HD
ENDBRANCH  15  18
ENDBRANCH  11  12
ENDBRANCH   9  11
ENDBRANCH   8   9
ENDBRANCH   1   5
BRANCH   1  20
ATOM     20  C   UNL     1       1.786   8.386  19.683  0.00  0.00    +0.000 C 
BRANCH  20  21
ATOM     21  C   UNL     1       2.539   7.422  18.882  0.00  0.00    +0.000 C 
ATOM     22  C   UNL     1       3.081   6.512  18.324  0.00  0.00    +0.000 C 
BRANCH  22  23
ATOM     23  C   UNL     1       3.746   5.378  17.772  0.00  0.00    +0.000 A 
ATOM     24  C   UNL     1       3.618   4.082  18.227  0.00  0.00    +0.000 A 
ATOM     25  O   UNL     1       4.470   3.267  17.526  0.00  0.00    +0.000 OA
ATOM     26  C   UNL     1       5.089   4.049  16.586  0.00  0.00    +0.000 A 
ATOM     27  C   UNL     1       6.043   3.638  15.655  0.00  0.00    +0.000 A 
ATOM     28  C   UNL     1       6.523   4.611  14.766  0.00  0.00    +0.000 A 
ATOM     29  C   UNL     1       6.054   5.929  14.810  0.00  0.00    +0.000 A 
ATOM     30  C   UNL     1       5.112   6.321  15.764  0.00  0.00    +0.000 A 
ATOM     31  C   UNL     1       4.633   5.363  16.675  0.00  0.00    +0.000 A 
BRANCH  24  32
ATOM     32  C   UNL     1       2.803   3.495  19.288  0.00  0.00    +0.000 A 
ATOM     33  C   UNL     1       1.400   3.587  19.209  0.00  0.00    +0.000 A 
ATOM     34  C   UNL     1       0.593   3.274  20.302  0.00  0.00    +0.000 A 
ATOM     35  C   UNL     1       1.176   2.818  21.478  0.00  0.00    +0.000 A 
ATOM     36  C   UNL     1       2.559   2.638  21.543  0.00  0.00    +0.000 A 
ATOM     37  C   UNL     1       3.372   2.968  20.451  0.00  0.00    +0.000 A 
ENDBRANCH  24  32
ENDBRANCH  22  23
ENDBRANCH  20  21
ENDBRANCH   1  20
TORSDOF 9
ENDMDL
MODEL 9
REMARK VINA RESULT:      -8.8      1.688      2.271
REMARK  Name = 
REMARK  10 active torsions:
REMARK  status: ('A' for Active; 'I' for Inactive)
REMARK    1  A    between atoms: C_1  and  C_2
REMARK    2  A    between atoms: C_4  and  O_5
REMARK    3  A    between atoms: O_5  and  C_6
REMARK    4  A    between atoms: C_6  and  C_7
REMARK    5  A    between atoms: C_8  and  C_9
REMARK    6  A    between atoms: C_10  and  C_11
REMARK    7  A    between atoms: C_26  and  N_27
REMARK    8  A    between atoms: N_27  and  C_28
REMARK    9  A    between atoms: C_28  and  C_29
REMARK   10  A    between atoms: C_32  and  O_33
REMARK                            x       y       z     vdW  Elec       q    Type
REMARK                         _______ _______ _______ _____ _____    ______ ____
ROOT
ATOM      1  O   UNL     1       1.833   9.691  18.943  0.00  0.00    +0.000 OA
ENDROOT
BRANCH   1   5
ATOM      2  C   UNL     1      -0.115  13.228  20.009  0.00  0.00    +0.000 C 
ATOM      3  C   UNL     1       0.413  11.836  20.330  0.00  0.00    +0.000 C 
ATOM      4  O   UNL     1      -0.135  10.934  19.354  0.00  0.00    +0.000 OA
ATOM      5  C   UNL     1       0.472   9.643  19.383  0.00  0.00    +0.000 C 
ATOM      6  C   UNL     1       0.347   9.005  20.768  0.00  0.00    +0.000 C 
ATOM      7  C   UNL     1       0.799   9.949  21.879  0.00  0.00    +0.000 C 
ATOM      8  C   UNL     1       0.112  11.327  21.770  0.00  0.00    +0.000 C 
BRANCH   8   9
ATOM      9  N   UNL     1      -1.338  11.284  22.054  0.00  0.00    +0.000 NA
ATOM     10  H   UNL     1      -1.630  10.329  22.262  0.00  0.00    +0.000 HD
BRANCH   9  11
ATOM     11  C   UNL     1      -1.745  12.185  23.134  0.00  0.00    +0.000 C 
BRANCH  11  12
ATOM     12  C   UNL     1      -3.229  12.476  23.115  0.00  0.00    +0.000 A 
ATOM     13  C   UNL     1      -3.882  12.776  21.906  0.00  0.00    +0.000 A 
ATOM     14  C   UNL     1      -5.254  13.035  21.880  0.00  0.00    +0.000 A 
ATOM     15  C   UNL     1      -5.978  12.993  23.067  0.00  0.00    +0.000 A 
ATOM     16  C   UNL     1      -5.356  12.676  24.269  0.00  0.00    +0.000 A 
ATOM     17  C   UNL     1      -3.985  12.420  24.294  0.00  0.00    +0.000 A 
BRANCH  15  18
ATOM     18  O   UNL     1      -7.314  13.265  23.091  0.00  0.00    +0.000 OA
ATOM     19  H   UNL     1      -7.498  13.960  22.439  0.00  0.00    +0.000 HD
ENDBRANCH  15  18
ENDBRANCH  11  12
ENDBRANCH   9  11
ENDBRANCH   8   9
ENDBRANCH   1   5
BRANCH   1  20
ATOM     20  C   UNL     1       1.946   9.011  17.690  0.00  0.00    +0.000 C 
BRANCH  20  21
ATOM     21  C   UNL     1       2.428   7.640  17.845  0.00  0.00    +0.000 C 
ATOM     22  C   UNL     1       2.787   6.536  18.139  0.00  0.00    +0.000 C 
BRANCH  22  23
ATOM     23  C   UNL     1       3.270   5.272  18.589  0.00  0.00    +0.000 A 
ATOM     24  C   UNL     1       4.295   4.559  18.004  0.00  0.00    +0.000 A 
ATOM     25  O   UNL     1       4.429   3.350  18.638  0.00  0.00    +0.000 OA
ATOM     26  C   UNL     1       3.521   3.335  19.665  0.00  0.00    +0.000 A 
ATOM     27  C   UNL     1       3.302   2.296  20.571  0.00  0.00    +0.000 A 
ATOM     28  C   UNL     1       2.335   2.513  21.563  0.00  0.00    +0.000 A 
ATOM     29  C   UNL     1       1.633   3.721  21.642  0.00  0.00    +0.000 A 
ATOM     30  C   UNL     1       1.856   4.739  20.712  0.00  0.00    +0.000 A 
ATOM     31  C   UNL     1       2.809   4.532  19.698  0.00  0.00    +0.000 A 
BRANCH  24  32
ATOM     32  C   UNL     1       5.170   4.855  16.871  0.00  0.00    +0.000 A 
ATOM     33  C   UNL     1       4.986   4.161  15.661  0.00  0.00    +0.000 A 
ATOM     34  C   UNL     1       5.937   4.218  14.643  0.00  0.00    +0.000 A 
ATOM     35  C   UNL     1       7.067   5.010  14.804  0.00  0.00    +0.000 A 
ATOM     36  C   UNL     1       7.221   5.773  15.962  0.00  0.00    +0.000 A 
ATOM     37  C   UNL     1       6.274   5.704  16.992  0.00  0.00    +0.000 A 
ENDBRANCH  24  32
ENDBRANCH  22  23
ENDBRANCH  20  21
ENDBRANCH   1  20
TORSDOF 9
ENDMDL
