MODEL 1
REMARK VINA RESULT:      -9.2      0.000      0.000
REMARK  Name = 
REMARK  7 active torsions:
REMARK  status: ('A' for Active; 'I' for Inactive)
REMARK    1  A    between atoms: C_2  and  C_5
REMARK    2  A    between atoms: C_7  and  C_8
REMARK    3  A    between atoms: C_8  and  O_9
REMARK    4  A    between atoms: O_9  and  C_10
REMARK    5  A    between atoms: C_17  and  C_18
REMARK    6  A    between atoms: C_18  and  C_19
REMARK    7  A    between atoms: C_26  and  C_27
REMARK                            x       y       z     vdW  Elec       q    Type
REMARK                         _______ _______ _______ _____ _____    ______ ____
ROOT
ATOM      1  O   UNL     1       3.376   7.085  18.348  0.00  0.00    +0.000 OA
ENDROOT
BRANCH   1   2
ATOM      2  C   UNL     1       3.852   6.064  17.444  0.00  0.00    +0.000 C 
ATOM      3  C   UNL     1       4.852   6.653  16.417  0.00  0.00    +0.000 C 
ATOM      4  C   UNL     1       6.062   7.213  17.182  0.00  0.00    +0.000 C 
ATOM      5  C   UNL     1       6.683   6.098  18.038  0.00  0.00    +0.000 C 
ATOM      6  N   UNL     1       6.016   4.795  17.799  0.00  0.00    +0.000 NA
ATOM      7  C   UNL     1       6.107   4.496  16.355  0.00  0.00    +0.000 C 
ATOM      8  C   UNL     1       5.332   5.512  15.515  0.00  0.00    +0.000 C 
ATOM      9  C   UNL     1       4.588   4.920  18.245  0.00  0.00    +0.000 C 
BRANCH   9  10
ATOM     10  C   UNL     1       3.783   3.590  18.136  0.00  0.00    +0.000 C 
BRANCH  10  11
ATOM     11  C   UNL     1       2.861   3.257  19.291  0.00  0.00    +0.000 A 
ATOM     12  C   UNL     1       3.379   2.805  20.513  0.00  0.00    +0.000 A 
ATOM     13  C   UNL     1       2.533   2.554  21.597  0.00  0.00    +0.000 A 
ATOM     14  C   UNL     1       1.158   2.744  21.473  0.00  0.00    +0.000 A 
ATOM     15  C   UNL     1       0.627   3.182  20.264  0.00  0.00    +0.000 A 
ATOM     16  C   UNL     1       1.474   3.438  19.182  0.00  0.00    +0.000 A 
ENDBRANCH  10  11
ENDBRANCH   9  10
ENDBRANCH   1   2
BRANCH   1  17
ATOM     17  C   UNL     1       2.792   8.192  17.654  0.00  0.00    +0.000 C 
BRANCH  17  20
ATOM     18  C   UNL     1      -0.486   9.996  18.409  0.00  0.00    +0.000 A 
ATOM     19  C   UNL     1       0.622   9.464  17.736  0.00  0.00    +0.000 A 
ATOM     20  C   UNL     1       1.688   8.867  18.435  0.00  0.00    +0.000 A 
ATOM     21  C   UNL     1       1.635   8.815  19.832  0.00  0.00    +0.000 A 
ATOM     22  C   UNL     1       0.535   9.338  20.531  0.00  0.00    +0.000 A 
ATOM     23  C   UNL     1      -0.520   9.927  19.810  0.00  0.00    +0.000 A 
BRANCH  18  25
ATOM     24  F   UNL     1      -2.849  10.419  18.249  0.00  0.00    +0.000 F 
ATOM     25  C   UNL     1      -1.641  10.604  17.645  0.00  0.00    +0.000 C 
ATOM     26  F   UNL     1      -1.769  10.091  16.391  0.00  0.00    +0.000 F 
ATOM     27  F   UNL     1      -1.508  11.950  17.489  0.00  0.00    +0.000 F 
ENDBRANCH  18  25
BRANCH  22  28
ATOM     28  C   UNL     1       0.457   9.240  22.036  0.00  0.00    +0.000 C 
ATOM     29  F   UNL     1       1.620   8.843  22.622  0.00  0.00    +0.000 F 
ATOM     30  F   UNL     1       0.126  10.424  22.619  0.00  0.00    +0.000 F 
ATOM     31  F   UNL     1      -0.488   8.346  22.443  0.00  0.00    +0.000 F 
ENDBRANCH  22  28
ENDBRANCH  17  20
ENDBRANCH   1  17
TORSDOF 7
ENDMDL
MODEL 2
REMARK VINA RESULT:      -9.2      0.162      1.294
REMARK  Name = 
REMARK  7 active torsions:
REMARK  status: ('A' for Active; 'I' for Inactive)
REMARK    1  A    between atoms: C_2  and  C_5
REMARK    2  A    between atoms: C_7  and  C_8
REMARK    3  A    between atoms: C_8  and  O_9
REMARK    4  A    between atoms: O_9  and  C_10
REMARK    5  A    between atoms: C_17  and  C_18
REMARK    6  A    between atoms: C_18  and  C_19
REMARK    7  A    between atoms: C_26  and  C_27
REMARK                            x       y       z     vdW  Elec       q    Type
REMARK                         _______ _______ _______ _____ _____    ______ ____
ROOT
ATOM      1  O   UNL     1       3.475   7.230  18.289  0.00  0.00    +0.000 OA
ENDROOT
BRANCH   1   2
ATOM      2  C   UNL     1       3.974   6.174  17.440  0.00  0.00    +0.000 C 
ATOM      3  C   UNL     1       4.996   6.723  16.412  0.00  0.00    +0.000 C 
ATOM      4  C   UNL     1       6.186   7.319  17.180  0.00  0.00    +0.000 C 
ATOM      5  C   UNL     1       6.790   6.244  18.097  0.00  0.00    +0.000 C 
ATOM      6  N   UNL     1       6.133   4.929  17.898  0.00  0.00    +0.000 NA
ATOM      7  C   UNL     1       6.258   4.570  16.470  0.00  0.00    +0.000 C 
ATOM      8  C   UNL     1       5.500   5.548  15.570  0.00  0.00    +0.000 C 
ATOM      9  C   UNL     1       4.694   5.067  18.305  0.00  0.00    +0.000 C 
BRANCH   9  10
ATOM     10  C   UNL     1       3.896   3.731  18.234  0.00  0.00    +0.000 C 
BRANCH  10  11
ATOM     11  C   UNL     1       2.965   3.433  19.392  0.00  0.00    +0.000 A 
ATOM     12  C   UNL     1       1.603   3.756  19.316  0.00  0.00    +0.000 A 
ATOM     13  C   UNL     1       0.733   3.428  20.360  0.00  0.00    +0.000 A 
ATOM     14  C   UNL     1       1.214   2.781  21.497  0.00  0.00    +0.000 A 
ATOM     15  C   UNL     1       2.565   2.463  21.591  0.00  0.00    +0.000 A 
ATOM     16  C   UNL     1       3.433   2.786  20.545  0.00  0.00    +0.000 A 
ENDBRANCH  10  11
ENDBRANCH   9  10
ENDBRANCH   1   2
BRANCH   1  17
ATOM     17  C   UNL     1       2.742   8.215  17.553  0.00  0.00    +0.000 C 
BRANCH  17  20
ATOM     18  C   UNL     1      -0.485  10.065  18.413  0.00  0.00    +0.000 A 
ATOM     19  C   UNL     1       0.603   9.530  17.708  0.00  0.00    +0.000 A 
ATOM     20  C   UNL     1       1.664   8.889  18.371  0.00  0.00    +0.000 A 
ATOM     21  C   UNL     1       1.629   8.793  19.766  0.00  0.00    +0.000 A 
ATOM     22  C   UNL     1       0.551   9.316  20.498  0.00  0.00    +0.000 A 
ATOM     23  C   UNL     1      -0.500   9.951  19.811  0.00  0.00    +0.000 A 
BRANCH  18  25
ATOM     24  F   UNL     1      -1.475  12.065  17.515  0.00  0.00    +0.000 F 
ATOM     25  C   UNL     1      -1.636  10.722  17.686  0.00  0.00    +0.000 C 
ATOM     26  F   UNL     1      -2.822  10.567  18.333  0.00  0.00    +0.000 F 
ATOM     27  F   UNL     1      -1.819  10.210  16.437  0.00  0.00    +0.000 F 
ENDBRANCH  18  25
BRANCH  22  28
ATOM     28  C   UNL     1       0.492   9.172  22.000  0.00  0.00    +0.000 C 
ATOM     29  F   UNL     1       0.243  10.339  22.655  0.00  0.00    +0.000 F 
ATOM     30  F   UNL     1      -0.473   8.301  22.403  0.00  0.00    +0.000 F 
ATOM     31  F   UNL     1       1.661   8.698  22.516  0.00  0.00    +0.000 F 
ENDBRANCH  22  28
ENDBRANCH  17  20
ENDBRANCH   1  17
TORSDOF 7
ENDMDL
MODEL 3
REMARK VINA RESULT:      -9.1      1.234      3.766
REMARK  Name = 
REMARK  7 active torsions:
REMARK  status: ('A' for Active; 'I' for Inactive)
REMARK    1  A    between atoms: C_2  and  C_5
REMARK    2  A    between atoms: C_7  and  C_8
REMARK    3  A    between atoms: C_8  and  O_9
REMARK    4  A    between atoms: O_9  and  C_10
REMARK    5  A    between atoms: C_17  and  C_18
REMARK    6  A    between atoms: C_18  and  C_19
REMARK    7  A    between atoms: C_26  and  C_27
REMARK                            x       y       z     vdW  Elec       q    Type
REMARK                         _______ _______ _______ _____ _____    ______ ____
ROOT
ATOM      1  O   UNL     1       2.149   6.469  18.076  0.00  0.00    +0.000 OA
ENDROOT
BRANCH   1   2
ATOM      2  C   UNL     1       3.081   5.436  18.464  0.00  0.00    +0.000 C 
ATOM      3  C   UNL     1       2.700   4.832  19.839  0.00  0.00    +0.000 C 
ATOM      4  C   UNL     1       1.306   4.194  19.721  0.00  0.00    +0.000 C 
ATOM      5  C   UNL     1       1.319   3.146  18.597  0.00  0.00    +0.000 C 
ATOM      6  N   UNL     1       2.679   2.972  18.033  0.00  0.00    +0.000 NA
ATOM      7  C   UNL     1       3.587   2.605  19.139  0.00  0.00    +0.000 C 
ATOM      8  C   UNL     1       3.711   3.730  20.169  0.00  0.00    +0.000 C 
ATOM      9  C   UNL     1       3.085   4.271  17.399  0.00  0.00    +0.000 C 
BRANCH   9  10
ATOM     10  C   UNL     1       4.466   4.209  16.680  0.00  0.00    +0.000 C 
BRANCH  10  11
ATOM     11  C   UNL     1       5.548   5.131  17.207  0.00  0.00    +0.000 A 
ATOM     12  C   UNL     1       6.516   4.659  18.103  0.00  0.00    +0.000 A 
ATOM     13  C   UNL     1       7.548   5.494  18.543  0.00  0.00    +0.000 A 
ATOM     14  C   UNL     1       7.621   6.813  18.099  0.00  0.00    +0.000 A 
ATOM     15  C   UNL     1       6.661   7.299  17.218  0.00  0.00    +0.000 A 
ATOM     16  C   UNL     1       5.633   6.463  16.774  0.00  0.00    +0.000 A 
ENDBRANCH  10  11
ENDBRANCH   9  10
ENDBRANCH   1   2
BRANCH   1  17
ATOM     17  C   UNL     1       2.621   7.778  18.411  0.00  0.00    +0.000 C 
BRANCH  17  20
ATOM     18  C   UNL     1      -0.456  10.017  18.706  0.00  0.00    +0.000 A 
ATOM     19  C   UNL     1       0.624   9.292  18.185  0.00  0.00    +0.000 A 
ATOM     20  C   UNL     1       1.555   8.656  19.026  0.00  0.00    +0.000 A 
ATOM     21  C   UNL     1       1.395   8.761  20.412  0.00  0.00    +0.000 A 
ATOM     22  C   UNL     1       0.320   9.478  20.961  0.00  0.00    +0.000 A 
ATOM     23  C   UNL     1      -0.599  10.103  20.099  0.00  0.00    +0.000 A 
BRANCH  18  25
ATOM     24  F   UNL     1      -1.547  10.081  16.562  0.00  0.00    +0.000 F 
ATOM     25  C   UNL     1      -1.469  10.667  17.791  0.00  0.00    +0.000 C 
ATOM     26  F   UNL     1      -1.202  11.981  17.561  0.00  0.00    +0.000 F 
ATOM     27  F   UNL     1      -2.731  10.624  18.302  0.00  0.00    +0.000 F 
ENDBRANCH  18  25
BRANCH  22  28
ATOM     28  C   UNL     1       0.122   9.553  22.456  0.00  0.00    +0.000 C 
ATOM     29  F   UNL     1      -0.245  10.786  22.901  0.00  0.00    +0.000 F 
ATOM     30  F   UNL     1      -0.834   8.692  22.899  0.00  0.00    +0.000 F 
ATOM     31  F   UNL     1       1.258   9.235  23.140  0.00  0.00    +0.000 F 
ENDBRANCH  22  28
ENDBRANCH  17  20
ENDBRANCH   1  17
TORSDOF 7
ENDMDL
MODEL 4
REMARK VINA RESULT:      -9.0      1.223      3.759
REMARK  Name = 
REMARK  7 active torsions:
REMARK  status: ('A' for Active; 'I' for Inactive)
REMARK    1  A    between atoms: C_2  and  C_5
REMARK    2  A    between atoms: C_7  and  C_8
REMARK    3  A    between atoms: C_8  and  O_9
REMARK    4  A    between atoms: O_9  and  C_10
REMARK    5  A    between atoms: C_17  and  C_18
REMARK    6  A    between atoms: C_18  and  C_19
REMARK    7  A    between atoms: C_26  and  C_27
REMARK                            x       y       z     vdW  Elec       q    Type
REMARK                         _______ _______ _______ _____ _____    ______ ____
ROOT
ATOM      1  O   UNL     1       2.197   6.546  17.944  0.00  0.00    +0.000 OA
ENDROOT
BRANCH   1   2
ATOM      2  C   UNL     1       3.125   5.540  18.404  0.00  0.00    +0.000 C 
ATOM      3  C   UNL     1       2.760   5.060  19.832  0.00  0.00    +0.000 C 
ATOM      4  C   UNL     1       1.358   4.432  19.792  0.00  0.00    +0.000 C 
ATOM      5  C   UNL     1       1.341   3.291  18.763  0.00  0.00    +0.000 C 
ATOM      6  N   UNL     1       2.690   3.052  18.195  0.00  0.00    +0.000 NA
ATOM      7  C   UNL     1       3.613   2.772  19.314  0.00  0.00    +0.000 C 
ATOM      8  C   UNL     1       3.766   3.980  20.240  0.00  0.00    +0.000 C 
ATOM      9  C   UNL     1       3.099   4.287  17.444  0.00  0.00    +0.000 C 
BRANCH   9  10
ATOM     10  C   UNL     1       4.467   4.147  16.712  0.00  0.00    +0.000 C 
BRANCH  10  11
ATOM     11  C   UNL     1       5.578   5.071  17.167  0.00  0.00    +0.000 A 
ATOM     12  C   UNL     1       5.633   6.398  16.719  0.00  0.00    +0.000 A 
ATOM     13  C   UNL     1       6.625   7.267  17.184  0.00  0.00    +0.000 A 
ATOM     14  C   UNL     1       7.579   6.819  18.096  0.00  0.00    +0.000 A 
ATOM     15  C   UNL     1       7.544   5.502  18.542  0.00  0.00    +0.000 A 
ATOM     16  C   UNL     1       6.549   4.636  18.081  0.00  0.00    +0.000 A 
ENDBRANCH  10  11
ENDBRANCH   9  10
ENDBRANCH   1   2
BRANCH   1  17
ATOM     17  C   UNL     1       2.634   7.871  18.262  0.00  0.00    +0.000 C 
BRANCH  17  20
ATOM     18  C   UNL     1      -0.493  10.027  18.643  0.00  0.00    +0.000 A 
ATOM     19  C   UNL     1       0.596   9.336  18.093  0.00  0.00    +0.000 A 
ATOM     20  C   UNL     1       1.558   8.714  18.908  0.00  0.00    +0.000 A 
ATOM     21  C   UNL     1       1.423   8.798  20.298  0.00  0.00    +0.000 A 
ATOM     22  C   UNL     1       0.340   9.480  20.877  0.00  0.00    +0.000 A 
ATOM     23  C   UNL     1      -0.611  10.092  20.040  0.00  0.00    +0.000 A 
BRANCH  18  25
ATOM     24  F   UNL     1      -2.798  10.610  18.278  0.00  0.00    +0.000 F 
ATOM     25  C   UNL     1      -1.539  10.662  17.756  0.00  0.00    +0.000 C 
ATOM     26  F   UNL     1      -1.619  10.072  16.533  0.00  0.00    +0.000 F 
ATOM     27  F   UNL     1      -1.290  11.980  17.523  0.00  0.00    +0.000 F 
ENDBRANCH  18  25
BRANCH  22  28
ATOM     28  C   UNL     1       0.169   9.531  22.376  0.00  0.00    +0.000 C 
ATOM     29  F   UNL     1      -0.790   8.689  22.848  0.00  0.00    +0.000 F 
ATOM     30  F   UNL     1       1.311   9.212  23.043  0.00  0.00    +0.000 F 
ATOM     31  F   UNL     1      -0.182  10.774  22.810  0.00  0.00    +0.000 F 
ENDBRANCH  22  28
ENDBRANCH  17  20
ENDBRANCH   1  17
TORSDOF 7
ENDMDL
MODEL 5
REMARK VINA RESULT:      -9.0      1.488      3.109
REMARK  Name = 
REMARK  7 active torsions:
REMARK  status: ('A' for Active; 'I' for Inactive)
REMARK    1  A    between atoms: C_2  and  C_5
REMARK    2  A    between atoms: C_7  and  C_8
REMARK    3  A    between atoms: C_8  and  O_9
REMARK    4  A    between atoms: O_9  and  C_10
REMARK    5  A    between atoms: C_17  and  C_18
REMARK    6  A    between atoms: C_18  and  C_19
REMARK    7  A    between atoms: C_26  and  C_27
REMARK                            x       y       z     vdW  Elec       q    Type
REMARK                         _______ _______ _______ _____ _____    ______ ____
ROOT
ATOM      1  O   UNL     1       3.704   7.193  18.089  0.00  0.00    +0.000 OA
ENDROOT
BRANCH   1   2
ATOM      2  C   UNL     1       4.236   6.106  17.302  0.00  0.00    +0.000 C 
ATOM      3  C   UNL     1       5.340   6.607  16.336  0.00  0.00    +0.000 C 
ATOM      4  C   UNL     1       6.488   7.196  17.172  0.00  0.00    +0.000 C 
ATOM      5  C   UNL     1       7.001   6.130  18.153  0.00  0.00    +0.000 C 
ATOM      6  N   UNL     1       6.328   4.826  17.939  0.00  0.00    +0.000 NA
ATOM      7  C   UNL     1       6.544   4.429  16.532  0.00  0.00    +0.000 C 
ATOM      8  C   UNL     1       5.873   5.400  15.559  0.00  0.00    +0.000 C 
ATOM      9  C   UNL     1       4.868   5.005  18.241  0.00  0.00    +0.000 C 
BRANCH   9  10
ATOM     10  C   UNL     1       4.046   3.685  18.144  0.00  0.00    +0.000 C 
BRANCH  10  11
ATOM     11  C   UNL     1       3.050   3.422  19.257  0.00  0.00    +0.000 A 
ATOM     12  C   UNL     1       3.441   2.747  20.421  0.00  0.00    +0.000 A 
ATOM     13  C   UNL     1       2.538   2.556  21.471  0.00  0.00    +0.000 A 
ATOM     14  C   UNL     1       1.231   3.030  21.368  0.00  0.00    +0.000 A 
ATOM     15  C   UNL     1       0.826   3.693  20.215  0.00  0.00    +0.000 A 
ATOM     16  C   UNL     1       1.730   3.888  19.168  0.00  0.00    +0.000 A 
ENDBRANCH  10  11
ENDBRANCH   9  10
ENDBRANCH   1   2
BRANCH   1  17
ATOM     17  C   UNL     1       2.633   7.870  17.423  0.00  0.00    +0.000 C 
BRANCH  17  20
ATOM     18  C   UNL     1       0.832   9.440  20.400  0.00  0.00    +0.000 A 
ATOM     19  C   UNL     1       1.367   8.506  19.502  0.00  0.00    +0.000 A 
ATOM     20  C   UNL     1       1.954   8.907  18.288  0.00  0.00    +0.000 A 
ATOM     21  C   UNL     1       1.995  10.270  17.975  0.00  0.00    +0.000 A 
ATOM     22  C   UNL     1       1.470  11.228  18.858  0.00  0.00    +0.000 A 
ATOM     23  C   UNL     1       0.890  10.802  20.067  0.00  0.00    +0.000 A 
BRANCH  18  25
ATOM     24  F   UNL     1      -0.619   9.913  22.260  0.00  0.00    +0.000 F 
ATOM     25  C   UNL     1       0.235   8.999  21.717  0.00  0.00    +0.000 C 
ATOM     26  F   UNL     1       1.178   8.759  22.667  0.00  0.00    +0.000 F 
ATOM     27  F   UNL     1      -0.483   7.848  21.600  0.00  0.00    +0.000 F 
ENDBRANCH  18  25
BRANCH  22  28
ATOM     28  C   UNL     1       1.555  12.702  18.540  0.00  0.00    +0.000 C 
ATOM     29  F   UNL     1       0.383  13.238  18.103  0.00  0.00    +0.000 F 
ATOM     30  F   UNL     1       1.932  13.445  19.615  0.00  0.00    +0.000 F 
ATOM     31  F   UNL     1       2.470  12.963  17.565  0.00  0.00    +0.000 F 
ENDBRANCH  22  28
ENDBRANCH  17  20
ENDBRANCH   1  17
TORSDOF 7
ENDMDL
MODEL 6
REMARK VINA RESULT:      -9.0      1.281      4.130
REMARK  Name = 
REMARK  7 active torsions:
REMARK  status: ('A' for Active; 'I' for Inactive)
REMARK    1  A    between atoms: C_2  and  C_5
REMARK    2  A    between atoms: C_7  and  C_8
REMARK    3  A    between atoms: C_8  and  O_9
REMARK    4  A    between atoms: O_9  and  C_10
REMARK    5  A    between atoms: C_17  and  C_18
REMARK    6  A    between atoms: C_18  and  C_19
REMARK    7  A    between atoms: C_26  and  C_27
REMARK                            x       y       z     vdW  Elec       q    Type
REMARK                         _______ _______ _______ _____ _____    ______ ____
ROOT
ATOM      1  O   UNL     1       2.107   6.194  18.632  0.00  0.00    +0.000 OA
ENDROOT
BRANCH   1   2
ATOM      2  C   UNL     1       2.610   5.357  19.696  0.00  0.00    +0.000 C 
ATOM      3  C   UNL     1       1.454   4.608  20.407  0.00  0.00    +0.000 C 
ATOM      4  C   UNL     1       0.755   3.704  19.379  0.00  0.00    +0.000 C 
ATOM      5  C   UNL     1       1.785   2.747  18.759  0.00  0.00    +0.000 C 
ATOM      6  N   UNL     1       3.115   2.892  19.400  0.00  0.00    +0.000 NA
ATOM      7  C   UNL     1       2.949   2.658  20.850  0.00  0.00    +0.000 C 
ATOM      8  C   UNL     1       2.063   3.723  21.499  0.00  0.00    +0.000 C 
ATOM      9  C   UNL     1       3.612   4.281  19.122  0.00  0.00    +0.000 C 
BRANCH   9  10
ATOM     10  C   UNL     1       5.049   4.549  19.662  0.00  0.00    +0.000 C 
BRANCH  10  11
ATOM     11  C   UNL     1       5.928   5.462  18.832  0.00  0.00    +0.000 A 
ATOM     12  C   UNL     1       5.446   6.036  17.647  0.00  0.00    +0.000 A 
ATOM     13  C   UNL     1       6.237   6.924  16.912  0.00  0.00    +0.000 A 
ATOM     14  C   UNL     1       7.522   7.245  17.347  0.00  0.00    +0.000 A 
ATOM     15  C   UNL     1       8.017   6.676  18.515  0.00  0.00    +0.000 A 
ATOM     16  C   UNL     1       7.225   5.792  19.252  0.00  0.00    +0.000 A 
ENDBRANCH  10  11
ENDBRANCH   9  10
ENDBRANCH   1   2
BRANCH   1  17
ATOM     17  C   UNL     1       2.576   7.543  18.737  0.00  0.00    +0.000 C 
BRANCH  17  20
ATOM     18  C   UNL     1      -0.394   9.937  18.884  0.00  0.00    +0.000 A 
ATOM     19  C   UNL     1       0.662   9.144  18.414  0.00  0.00    +0.000 A 
ATOM     20  C   UNL     1       1.540   8.491  19.298  0.00  0.00    +0.000 A 
ATOM     21  C   UNL     1       1.353   8.648  20.675  0.00  0.00    +0.000 A 
ATOM     22  C   UNL     1       0.302   9.434  21.175  0.00  0.00    +0.000 A 
ATOM     23  C   UNL     1      -0.565  10.075  20.270  0.00  0.00    +0.000 A 
BRANCH  18  25
ATOM     24  F   UNL     1      -1.042  11.908  17.667  0.00  0.00    +0.000 F 
ATOM     25  C   UNL     1      -1.352  10.605  17.925  0.00  0.00    +0.000 C 
ATOM     26  F   UNL     1      -2.634  10.609  18.380  0.00  0.00    +0.000 F 
ATOM     27  F   UNL     1      -1.385   9.987  16.712  0.00  0.00    +0.000 F 
ENDBRANCH  18  25
BRANCH  22  28
ATOM     28  C   UNL     1       0.072   9.567  22.661  0.00  0.00    +0.000 C 
ATOM     29  F   UNL     1       1.169   9.277  23.414  0.00  0.00    +0.000 F 
ATOM     30  F   UNL     1      -0.310  10.821  23.020  0.00  0.00    +0.000 F 
ATOM     31  F   UNL     1      -0.912   8.734  23.103  0.00  0.00    +0.000 F 
ENDBRANCH  22  28
ENDBRANCH  17  20
ENDBRANCH   1  17
TORSDOF 7
ENDMDL
MODEL 7
REMARK VINA RESULT:      -8.9      1.548      3.068
REMARK  Name = 
REMARK  7 active torsions:
REMARK  status: ('A' for Active; 'I' for Inactive)
REMARK    1  A    between atoms: C_2  and  C_5
REMARK    2  A    between atoms: C_7  and  C_8
REMARK    3  A    between atoms: C_8  and  O_9
REMARK    4  A    between atoms: O_9  and  C_10
REMARK    5  A    between atoms: C_17  and  C_18
REMARK    6  A    between atoms: C_18  and  C_19
REMARK    7  A    between atoms: C_26  and  C_27
REMARK                            x       y       z     vdW  Elec       q    Type
REMARK                         _______ _______ _______ _____ _____    ______ ____
ROOT
ATOM      1  O   UNL     1       3.794   7.310  17.990  0.00  0.00    +0.000 OA
ENDROOT
BRANCH   1   2
ATOM      2  C   UNL     1       4.310   6.200  17.223  0.00  0.00    +0.000 C 
ATOM      3  C   UNL     1       5.492   6.647  16.326  0.00  0.00    +0.000 C 
ATOM      4  C   UNL     1       6.621   7.166  17.231  0.00  0.00    +0.000 C 
ATOM      5  C   UNL     1       7.018   6.067  18.229  0.00  0.00    +0.000 C 
ATOM      6  N   UNL     1       6.289   4.803  17.964  0.00  0.00    +0.000 NA
ATOM      7  C   UNL     1       6.561   4.404  16.568  0.00  0.00    +0.000 C 
ATOM      8  C   UNL     1       6.002   5.418  15.568  0.00  0.00    +0.000 C 
ATOM      9  C   UNL     1       4.826   5.060  18.185  0.00  0.00    +0.000 C 
BRANCH   9  10
ATOM     10  C   UNL     1       3.939   3.789  18.030  0.00  0.00    +0.000 C 
BRANCH  10  11
ATOM     11  C   UNL     1       2.992   3.477  19.171  0.00  0.00    +0.000 A 
ATOM     12  C   UNL     1       3.455   2.844  20.332  0.00  0.00    +0.000 A 
ATOM     13  C   UNL     1       2.594   2.609  21.409  0.00  0.00    +0.000 A 
ATOM     14  C   UNL     1       1.257   2.997  21.335  0.00  0.00    +0.000 A 
ATOM     15  C   UNL     1       0.780   3.617  20.185  0.00  0.00    +0.000 A 
ATOM     16  C   UNL     1       1.643   3.856  19.112  0.00  0.00    +0.000 A 
ENDBRANCH  10  11
ENDBRANCH   9  10
ENDBRANCH   1   2
BRANCH   1  17
ATOM     17  C   UNL     1       2.364   7.303  18.059  0.00  0.00    +0.000 C 
BRANCH  17  20
ATOM     18  C   UNL     1       0.675   9.467  20.711  0.00  0.00    +0.000 A 
ATOM     19  C   UNL     1       1.116   8.362  19.969  0.00  0.00    +0.000 A 
ATOM     20  C   UNL     1       1.795   8.522  18.748  0.00  0.00    +0.000 A 
ATOM     21  C   UNL     1       2.024   9.815  18.266  0.00  0.00    +0.000 A 
ATOM     22  C   UNL     1       1.597  10.940  18.990  0.00  0.00    +0.000 A 
ATOM     23  C   UNL     1       0.922  10.754  20.211  0.00  0.00    +0.000 A 
BRANCH  18  25
ATOM     24  F   UNL     1      -0.823   8.180  22.085  0.00  0.00    +0.000 F 
ATOM     25  C   UNL     1      -0.023   9.283  22.040  0.00  0.00    +0.000 C 
ATOM     26  F   UNL     1      -0.820  10.336  22.364  0.00  0.00    +0.000 F 
ATOM     27  F   UNL     1       0.856   9.144  23.071  0.00  0.00    +0.000 F 
ENDBRANCH  18  25
BRANCH  22  28
ATOM     28  C   UNL     1       1.885  12.336  18.493  0.00  0.00    +0.000 C 
ATOM     29  F   UNL     1       2.731  12.376  17.427  0.00  0.00    +0.000 F 
ATOM     30  F   UNL     1       0.760  12.995  18.105  0.00  0.00    +0.000 F 
ATOM     31  F   UNL     1       2.461  13.113  19.453  0.00  0.00    +0.000 F 
ENDBRANCH  22  28
ENDBRANCH  17  20
ENDBRANCH   1  17
TORSDOF 7
ENDMDL
MODEL 8
REMARK VINA RESULT:      -8.9      1.269      4.821
REMARK  Name = 
REMARK  7 active torsions:
REMARK  status: ('A' for Active; 'I' for Inactive)
REMARK    1  A    between atoms: C_2  and  C_5
REMARK    2  A    between atoms: C_7  and  C_8
REMARK    3  A    between atoms: C_8  and  O_9
REMARK    4  A    between atoms: O_9  and  C_10
REMARK    5  A    between atoms: C_17  and  C_18
REMARK    6  A    between atoms: C_18  and  C_19
REMARK    7  A    between atoms: C_26  and  C_27
REMARK                            x       y       z     vdW  Elec       q    Type
REMARK                         _______ _______ _______ _____ _____    ______ ____
ROOT
ATOM      1  O   UNL     1       2.484   6.798  17.609  0.00  0.00    +0.000 OA
ENDROOT
BRANCH   1   2
ATOM      2  C   UNL     1       3.349   5.795  18.187  0.00  0.00    +0.000 C 
ATOM      3  C   UNL     1       2.788   5.292  19.541  0.00  0.00    +0.000 C 
ATOM      4  C   UNL     1       1.415   4.650  19.291  0.00  0.00    +0.000 C 
ATOM      5  C   UNL     1       1.561   3.522  18.257  0.00  0.00    +0.000 C 
ATOM      6  N   UNL     1       2.981   3.306  17.887  0.00  0.00    +0.000 NA
ATOM      7  C   UNL     1       3.736   3.020  19.124  0.00  0.00    +0.000 C 
ATOM      8  C   UNL     1       3.738   4.217  20.077  0.00  0.00    +0.000 C 
ATOM      9  C   UNL     1       3.477   4.556  17.218  0.00  0.00    +0.000 C 
BRANCH   9  10
ATOM     10  C   UNL     1       4.938   4.441  16.690  0.00  0.00    +0.000 C 
BRANCH  10  11
ATOM     11  C   UNL     1       5.961   5.372  17.309  0.00  0.00    +0.000 A 
ATOM     12  C   UNL     1       6.781   4.937  18.359  0.00  0.00    +0.000 A 
ATOM     13  C   UNL     1       7.763   5.777  18.892  0.00  0.00    +0.000 A 
ATOM     14  C   UNL     1       7.934   7.065  18.387  0.00  0.00    +0.000 A 
ATOM     15  C   UNL     1       7.121   7.515  17.352  0.00  0.00    +0.000 A 
ATOM     16  C   UNL     1       6.143   6.673  16.817  0.00  0.00    +0.000 A 
ENDBRANCH  10  11
ENDBRANCH   9  10
ENDBRANCH   1   2
BRANCH   1  17
ATOM     17  C   UNL     1       2.733   8.101  18.147  0.00  0.00    +0.000 C 
BRANCH  17  20
ATOM     18  C   UNL     1       0.339   9.456  20.793  0.00  0.00    +0.000 A 
ATOM     19  C   UNL     1       1.392   8.776  20.166  0.00  0.00    +0.000 A 
ATOM     20  C   UNL     1       1.507   8.733  18.765  0.00  0.00    +0.000 A 
ATOM     21  C   UNL     1       0.540   9.380  17.987  0.00  0.00    +0.000 A 
ATOM     22  C   UNL     1      -0.524  10.071  18.589  0.00  0.00    +0.000 A 
ATOM     23  C   UNL     1      -0.616  10.102  19.993  0.00  0.00    +0.000 A 
BRANCH  18  25
ATOM     24  F   UNL     1      -0.075  10.764  22.770  0.00  0.00    +0.000 F 
ATOM     25  C   UNL     1       0.246   9.525  22.300  0.00  0.00    +0.000 C 
ATOM     26  F   UNL     1       1.411   9.184  22.914  0.00  0.00    +0.000 F 
ATOM     27  F   UNL     1      -0.702   8.684  22.799  0.00  0.00    +0.000 F 
ENDBRANCH  18  25
BRANCH  22  28
ATOM     28  C   UNL     1      -1.542  10.807  17.751  0.00  0.00    +0.000 C 
ATOM     29  F   UNL     1      -1.695  10.296  16.498  0.00  0.00    +0.000 F 
ATOM     30  F   UNL     1      -2.781  10.805  18.313  0.00  0.00    +0.000 F 
ATOM     31  F   UNL     1      -1.212  12.118  17.579  0.00  0.00    +0.000 F 
ENDBRANCH  22  28
ENDBRANCH  17  20
ENDBRANCH   1  17
TORSDOF 7
ENDMDL
MODEL 9
REMARK VINA RESULT:      -8.9      1.479      3.233
REMARK  Name = 
REMARK  7 active torsions:
REMARK  status: ('A' for Active; 'I' for Inactive)
REMARK    1  A    between atoms: C_2  and  C_5
REMARK    2  A    between atoms: C_7  and  C_8
REMARK    3  A    between atoms: C_8  and  O_9
REMARK    4  A    between atoms: O_9  and  C_10
REMARK    5  A    between atoms: C_17  and  C_18
REMARK    6  A    between atoms: C_18  and  C_19
REMARK    7  A    between atoms: C_26  and  C_27
REMARK                            x       y       z     vdW  Elec       q    Type
REMARK                         _______ _______ _______ _____ _____    ______ ____
ROOT
ATOM      1  O   UNL     1       3.952   7.050  18.010  0.00  0.00    +0.000 OA
ENDROOT
BRANCH   1   2
ATOM      2  C   UNL     1       4.461   5.998  17.161  0.00  0.00    +0.000 C 
ATOM      3  C   UNL     1       5.548   6.538  16.198  0.00  0.00    +0.000 C 
ATOM      4  C   UNL     1       6.716   7.079  17.038  0.00  0.00    +0.000 C 
ATOM      5  C   UNL     1       7.242   5.965  17.957  0.00  0.00    +0.000 C 
ATOM      6  N   UNL     1       6.556   4.676  17.694  0.00  0.00    +0.000 NA
ATOM      7  C   UNL     1       6.740   4.345  16.266  0.00  0.00    +0.000 C 
ATOM      8  C   UNL     1       6.057   5.367  15.354  0.00  0.00    +0.000 C 
ATOM      9  C   UNL     1       5.103   4.850  18.033  0.00  0.00    +0.000 C 
BRANCH   9  10
ATOM     10  C   UNL     1       4.270   3.542  17.891  0.00  0.00    +0.000 C 
BRANCH  10  11
ATOM     11  C   UNL     1       2.975   3.472  18.676  0.00  0.00    +0.000 A 
ATOM     12  C   UNL     1       1.932   2.632  18.262  0.00  0.00    +0.000 A 
ATOM     13  C   UNL     1       0.761   2.524  19.018  0.00  0.00    +0.000 A 
ATOM     14  C   UNL     1       0.613   3.259  20.193  0.00  0.00    +0.000 A 
ATOM     15  C   UNL     1       1.635   4.105  20.611  0.00  0.00    +0.000 A 
ATOM     16  C   UNL     1       2.808   4.208  19.858  0.00  0.00    +0.000 A 
ENDBRANCH  10  11
ENDBRANCH   9  10
ENDBRANCH   1   2
BRANCH   1  17
ATOM     17  C   UNL     1       3.109   7.961  17.296  0.00  0.00    +0.000 C 
BRANCH  17  20
ATOM     18  C   UNL     1       1.030   8.992  20.327  0.00  0.00    +0.000 A 
ATOM     19  C   UNL     1       1.743   8.228  19.392  0.00  0.00    +0.000 A 
ATOM     20  C   UNL     1       2.234   8.796  18.203  0.00  0.00    +0.000 A 
ATOM     21  C   UNL     1       1.995  10.152  17.952  0.00  0.00    +0.000 A 
ATOM     22  C   UNL     1       1.286  10.941  18.873  0.00  0.00    +0.000 A 
ATOM     23  C   UNL     1       0.808  10.350  20.057  0.00  0.00    +0.000 A 
BRANCH  18  25
ATOM     24  F   UNL     1      -0.806   8.143  21.631  0.00  0.00    +0.000 F 
ATOM     25  C   UNL     1       0.538   8.378  21.618  0.00  0.00    +0.000 C 
ATOM     26  F   UNL     1       0.790   9.161  22.701  0.00  0.00    +0.000 F 
ATOM     27  F   UNL     1       1.125   7.177  21.877  0.00  0.00    +0.000 F 
ENDBRANCH  18  25
BRANCH  22  28
ATOM     28  C   UNL     1       1.068  12.414  18.623  0.00  0.00    +0.000 C 
ATOM     29  F   UNL     1      -0.151  12.706  18.091  0.00  0.00    +0.000 F 
ATOM     30  F   UNL     1       1.170  13.156  19.758  0.00  0.00    +0.000 F 
ATOM     31  F   UNL     1       1.985  12.928  17.756  0.00  0.00    +0.000 F 
ENDBRANCH  22  28
ENDBRANCH  17  20
ENDBRANCH   1  17
TORSDOF 7
ENDMDL
