MODEL 1
REMARK VINA RESULT:      -7.5      0.000      0.000
REMARK  Name = 
REMARK  1 active torsions:
REMARK  status: ('A' for Active; 'I' for Inactive)
REMARK    1  A    between atoms: C_7  and  C_8
REMARK                            x       y       z     vdW  Elec       q    Type
REMARK                         _______ _______ _______ _____ _____    ______ ____
ROOT
ATOM      1  O   UNL     1       8.201   5.172  20.753  0.00  0.00    +0.000 OA
ATOM      2  C   UNL     1       7.678   5.594  19.737  0.00  0.00    +0.000 C 
ATOM      3  N   UNL     1       8.218   6.508  18.868  0.00  0.00    +0.000 N 
ATOM      4  C   UNL     1       7.364   6.782  17.838  0.00  0.00    +0.000 C 
ATOM      5  O   UNL     1       7.529   7.546  16.908  0.00  0.00    +0.000 OA
ATOM      6  C   UNL     1       6.167   5.926  18.105  0.00  0.00    +0.000 C 
ATOM      7  C   UNL     1       5.075   5.868  17.341  0.00  0.00    +0.000 C 
ATOM      8  N   UNL     1       6.429   5.243  19.257  0.00  0.00    +0.000 N 
ATOM      9  H   UNL     1       9.124   6.926  18.984  0.00  0.00    +0.000 HD
ATOM     10  H   UNL     1       5.820   4.581  19.714  0.00  0.00    +0.000 HD
ENDROOT
BRANCH   7  11
ATOM     11  C   UNL     1       3.938   4.992  17.630  0.00  0.00    +0.000 A 
ATOM     12  C   UNL     1       2.851   5.465  18.372  0.00  0.00    +0.000 A 
ATOM     13  C   UNL     1       1.791   4.608  18.686  0.00  0.00    +0.000 A 
ATOM     14  C   UNL     1       1.820   3.284  18.253  0.00  0.00    +0.000 A 
ATOM     15 CL   UNL     1       0.528   2.224  18.661  0.00  0.00    +0.000 Cl
ATOM     16  C   UNL     1       2.892   2.810  17.501  0.00  0.00    +0.000 A 
ATOM     17  C   UNL     1       3.952   3.665  17.188  0.00  0.00    +0.000 A 
ENDBRANCH   7  11
TORSDOF 1
ENDMDL
MODEL 2
REMARK VINA RESULT:      -7.4      2.076      2.307
REMARK  Name = 
REMARK  1 active torsions:
REMARK  status: ('A' for Active; 'I' for Inactive)
REMARK    1  A    between atoms: C_7  and  C_8
REMARK                            x       y       z     vdW  Elec       q    Type
REMARK                         _______ _______ _______ _____ _____    ______ ____
ROOT
ATOM      1  O   UNL     1       8.439   4.077  17.796  0.00  0.00    +0.000 OA
ATOM      2  C   UNL     1       7.406   4.547  17.351  0.00  0.00    +0.000 C 
ATOM      3  N   UNL     1       7.285   5.307  16.216  0.00  0.00    +0.000 N 
ATOM      4  C   UNL     1       5.991   5.691  16.009  0.00  0.00    +0.000 C 
ATOM      5  O   UNL     1       5.544   6.371  15.106  0.00  0.00    +0.000 OA
ATOM      6  C   UNL     1       5.232   5.082  17.144  0.00  0.00    +0.000 C 
ATOM      7  C   UNL     1       3.917   5.195  17.340  0.00  0.00    +0.000 C 
ATOM      8  N   UNL     1       6.145   4.412  17.904  0.00  0.00    +0.000 N 
ATOM      9  H   UNL     1       8.056   5.555  15.622  0.00  0.00    +0.000 HD
ATOM     10  H   UNL     1       5.957   3.893  18.750  0.00  0.00    +0.000 HD
ENDROOT
BRANCH   7  11
ATOM     11  C   UNL     1       3.214   4.557  18.454  0.00  0.00    +0.000 A 
ATOM     12  C   UNL     1       3.041   5.236  19.665  0.00  0.00    +0.000 A 
ATOM     13  C   UNL     1       2.412   4.602  20.741  0.00  0.00    +0.000 A 
ATOM     14  C   UNL     1       1.954   3.293  20.602  0.00  0.00    +0.000 A 
ATOM     15 CL   UNL     1       1.203   2.505  21.933  0.00  0.00    +0.000 Cl
ATOM     16  C   UNL     1       2.109   2.615  19.395  0.00  0.00    +0.000 A 
ATOM     17  C   UNL     1       2.739   3.247  18.320  0.00  0.00    +0.000 A 
ENDBRANCH   7  11
TORSDOF 1
ENDMDL
MODEL 3
REMARK VINA RESULT:      -7.3      2.109      2.610
REMARK  Name = 
REMARK  1 active torsions:
REMARK  status: ('A' for Active; 'I' for Inactive)
REMARK    1  A    between atoms: C_7  and  C_8
REMARK                            x       y       z     vdW  Elec       q    Type
REMARK                         _______ _______ _______ _____ _____    ______ ____
ROOT
ATOM      1  O   UNL     1       8.462   4.096  17.718  0.00  0.00    +0.000 OA
ATOM      2  C   UNL     1       7.410   4.562  17.317  0.00  0.00    +0.000 C 
ATOM      3  N   UNL     1       7.243   5.340  16.201  0.00  0.00    +0.000 N 
ATOM      4  C   UNL     1       5.938   5.715  16.045  0.00  0.00    +0.000 C 
ATOM      5  O   UNL     1       5.454   6.406  15.170  0.00  0.00    +0.000 OA
ATOM      6  C   UNL     1       5.225   5.079  17.195  0.00  0.00    +0.000 C 
ATOM      7  C   UNL     1       3.916   5.176  17.438  0.00  0.00    +0.000 C 
ATOM      8  N   UNL     1       6.171   4.405  17.911  0.00  0.00    +0.000 N 
ATOM      9  H   UNL     1       7.990   5.606  15.585  0.00  0.00    +0.000 HD
ATOM     10  H   UNL     1       6.016   3.870  18.753  0.00  0.00    +0.000 HD
ENDROOT
BRANCH   7  11
ATOM     11  C   UNL     1       3.259   4.511  18.565  0.00  0.00    +0.000 A 
ATOM     12  C   UNL     1       2.832   3.184  18.454  0.00  0.00    +0.000 A 
ATOM     13  C   UNL     1       2.161   2.571  19.516  0.00  0.00    +0.000 A 
ATOM     14  C   UNL     1       1.923   3.286  20.689  0.00  0.00    +0.000 A 
ATOM     15 CL   UNL     1       1.076   2.541  21.987  0.00  0.00    +0.000 Cl
ATOM     16  C   UNL     1       2.359   4.603  20.814  0.00  0.00    +0.000 A 
ATOM     17  C   UNL     1       3.028   5.216  19.751  0.00  0.00    +0.000 A 
ENDBRANCH   7  11
TORSDOF 1
ENDMDL
MODEL 4
REMARK VINA RESULT:      -7.3      0.118      1.252
REMARK  Name = 
REMARK  1 active torsions:
REMARK  status: ('A' for Active; 'I' for Inactive)
REMARK    1  A    between atoms: C_7  and  C_8
REMARK                            x       y       z     vdW  Elec       q    Type
REMARK                         _______ _______ _______ _____ _____    ______ ____
ROOT
ATOM      1  O   UNL     1       8.278   5.223  20.774  0.00  0.00    +0.000 OA
ATOM      2  C   UNL     1       7.724   5.613  19.761  0.00  0.00    +0.000 C 
ATOM      3  N   UNL     1       8.227   6.516  18.860  0.00  0.00    +0.000 N 
ATOM      4  C   UNL     1       7.344   6.751  17.844  0.00  0.00    +0.000 C 
ATOM      5  O   UNL     1       7.474   7.497  16.894  0.00  0.00    +0.000 OA
ATOM      6  C   UNL     1       6.171   5.879  18.158  0.00  0.00    +0.000 C 
ATOM      7  C   UNL     1       5.063   5.784  17.420  0.00  0.00    +0.000 C 
ATOM      8  N   UNL     1       6.472   5.228  19.318  0.00  0.00    +0.000 N 
ATOM      9  H   UNL     1       9.127   6.954  18.946  0.00  0.00    +0.000 HD
ATOM     10  H   UNL     1       5.885   4.565  19.803  0.00  0.00    +0.000 HD
ENDROOT
BRANCH   7  11
ATOM     11  C   UNL     1       3.950   4.894  17.754  0.00  0.00    +0.000 A 
ATOM     12  C   UNL     1       3.897   3.598  17.231  0.00  0.00    +0.000 A 
ATOM     13  C   UNL     1       2.808   2.770  17.515  0.00  0.00    +0.000 A 
ATOM     14  C   UNL     1       1.776   3.239  18.326  0.00  0.00    +0.000 A 
ATOM     15 CL   UNL     1       0.422   2.230  18.656  0.00  0.00    +0.000 Cl
ATOM     16  C   UNL     1       1.827   4.523  18.864  0.00  0.00    +0.000 A 
ATOM     17  C   UNL     1       2.916   5.351  18.578  0.00  0.00    +0.000 A 
ENDBRANCH   7  11
TORSDOF 1
ENDMDL
MODEL 5
REMARK VINA RESULT:      -7.1      4.259      5.823
REMARK  Name = 
REMARK  1 active torsions:
REMARK  status: ('A' for Active; 'I' for Inactive)
REMARK    1  A    between atoms: C_7  and  C_8
REMARK                            x       y       z     vdW  Elec       q    Type
REMARK                         _______ _______ _______ _____ _____    ______ ____
ROOT
ATOM      1  O   UNL     1       2.179   3.264  22.373  0.00  0.00    +0.000 OA
ATOM      2  C   UNL     1       1.963   3.223  21.175  0.00  0.00    +0.000 C 
ATOM      3  N   UNL     1       0.906   2.598  20.564  0.00  0.00    +0.000 N 
ATOM      4  C   UNL     1       0.969   2.725  19.205  0.00  0.00    +0.000 C 
ATOM      5  O   UNL     1       0.200   2.287  18.373  0.00  0.00    +0.000 OA
ATOM      6  C   UNL     1       2.204   3.532  18.961  0.00  0.00    +0.000 C 
ATOM      7  C   UNL     1       2.656   3.905  17.762  0.00  0.00    +0.000 C 
ATOM      8  N   UNL     1       2.744   3.794  20.187  0.00  0.00    +0.000 N 
ATOM      9  H   UNL     1       0.185   2.103  21.058  0.00  0.00    +0.000 HD
ATOM     10  H   UNL     1       3.587   4.317  20.371  0.00  0.00    +0.000 HD
ENDROOT
BRANCH   7  11
ATOM     11  C   UNL     1       3.857   4.720  17.575  0.00  0.00    +0.000 A 
ATOM     12  C   UNL     1       5.107   4.113  17.410  0.00  0.00    +0.000 A 
ATOM     13  C   UNL     1       6.256   4.898  17.281  0.00  0.00    +0.000 A 
ATOM     14  C   UNL     1       6.153   6.287  17.313  0.00  0.00    +0.000 A 
ATOM     15 CL   UNL     1       7.571   7.253  17.180  0.00  0.00    +0.000 Cl
ATOM     16  C   UNL     1       4.911   6.900  17.462  0.00  0.00    +0.000 A 
ATOM     17  C   UNL     1       3.762   6.116  17.593  0.00  0.00    +0.000 A 
ENDBRANCH   7  11
TORSDOF 1
ENDMDL
MODEL 6
REMARK VINA RESULT:      -7.0      1.938      2.302
REMARK  Name = 
REMARK  1 active torsions:
REMARK  status: ('A' for Active; 'I' for Inactive)
REMARK    1  A    between atoms: C_7  and  C_8
REMARK                            x       y       z     vdW  Elec       q    Type
REMARK                         _______ _______ _______ _____ _____    ______ ____
ROOT
ATOM      1  O   UNL     1       7.841   7.033  18.147  0.00  0.00    +0.000 OA
ATOM      2  C   UNL     1       7.225   6.298  17.395  0.00  0.00    +0.000 C 
ATOM      3  N   UNL     1       7.526   6.049  16.081  0.00  0.00    +0.000 N 
ATOM      4  C   UNL     1       6.623   5.193  15.516  0.00  0.00    +0.000 C 
ATOM      5  O   UNL     1       6.596   4.775  14.375  0.00  0.00    +0.000 OA
ATOM      6  C   UNL     1       5.667   4.873  16.621  0.00  0.00    +0.000 C 
ATOM      7  C   UNL     1       4.615   4.059  16.517  0.00  0.00    +0.000 C 
ATOM      8  N   UNL     1       6.093   5.570  17.714  0.00  0.00    +0.000 N 
ATOM      9  H   UNL     1       8.307   6.455  15.597  0.00  0.00    +0.000 HD
ATOM     10  H   UNL     1       5.661   5.575  18.626  0.00  0.00    +0.000 HD
ENDROOT
BRANCH   7  11
ATOM     11  C   UNL     1       3.722   3.755  17.637  0.00  0.00    +0.000 A 
ATOM     12  C   UNL     1       2.515   4.445  17.787  0.00  0.00    +0.000 A 
ATOM     13  C   UNL     1       1.690   4.185  18.885  0.00  0.00    +0.000 A 
ATOM     14  C   UNL     1       2.073   3.233  19.827  0.00  0.00    +0.000 A 
ATOM     15 CL   UNL     1       1.070   2.930  21.192  0.00  0.00    +0.000 Cl
ATOM     16  C   UNL     1       3.266   2.530  19.678  0.00  0.00    +0.000 A 
ATOM     17  C   UNL     1       4.092   2.792  18.581  0.00  0.00    +0.000 A 
ENDBRANCH   7  11
TORSDOF 1
ENDMDL
MODEL 7
REMARK VINA RESULT:      -7.0      2.335      2.988
REMARK  Name = 
REMARK  1 active torsions:
REMARK  status: ('A' for Active; 'I' for Inactive)
REMARK    1  A    between atoms: C_7  and  C_8
REMARK                            x       y       z     vdW  Elec       q    Type
REMARK                         _______ _______ _______ _____ _____    ______ ____
ROOT
ATOM      1  O   UNL     1       7.721   7.010  17.015  0.00  0.00    +0.000 OA
ATOM      2  C   UNL     1       7.116   6.078  16.516  0.00  0.00    +0.000 C 
ATOM      3  N   UNL     1       7.367   5.512  15.293  0.00  0.00    +0.000 N 
ATOM      4  C   UNL     1       6.492   4.497  15.024  0.00  0.00    +0.000 C 
ATOM      5  O   UNL     1       6.435   3.798  14.032  0.00  0.00    +0.000 OA
ATOM      6  C   UNL     1       5.612   4.431  16.231  0.00  0.00    +0.000 C 
ATOM      7  C   UNL     1       4.608   3.570  16.406  0.00  0.00    +0.000 C 
ATOM      8  N   UNL     1       6.047   5.406  17.081  0.00  0.00    +0.000 N 
ATOM      9  H   UNL     1       8.098   5.814  14.674  0.00  0.00    +0.000 HD
ATOM     10  H   UNL     1       5.661   5.627  17.987  0.00  0.00    +0.000 HD
ENDROOT
BRANCH   7  11
ATOM     11  C   UNL     1       3.790   3.526  17.619  0.00  0.00    +0.000 A 
ATOM     12  C   UNL     1       4.295   2.958  18.794  0.00  0.00    +0.000 A 
ATOM     13  C   UNL     1       3.492   2.875  19.934  0.00  0.00    +0.000 A 
ATOM     14  C   UNL     1       2.188   3.365  19.899  0.00  0.00    +0.000 A 
ATOM     15 CL   UNL     1       1.191   3.241  21.296  0.00  0.00    +0.000 Cl
ATOM     16  C   UNL     1       1.682   3.946  18.739  0.00  0.00    +0.000 A 
ATOM     17  C   UNL     1       2.484   4.027  17.598  0.00  0.00    +0.000 A 
ENDBRANCH   7  11
TORSDOF 1
ENDMDL
MODEL 8
REMARK VINA RESULT:      -7.0      2.534      3.308
REMARK  Name = 
REMARK  1 active torsions:
REMARK  status: ('A' for Active; 'I' for Inactive)
REMARK    1  A    between atoms: C_7  and  C_8
REMARK                            x       y       z     vdW  Elec       q    Type
REMARK                         _______ _______ _______ _____ _____    ______ ____
ROOT
ATOM      1  O   UNL     1       6.395   3.694  13.234  0.00  0.00    +0.000 OA
ATOM      2  C   UNL     1       6.419   4.297  14.292  0.00  0.00    +0.000 C 
ATOM      3  N   UNL     1       7.336   5.248  14.661  0.00  0.00    +0.000 N 
ATOM      4  C   UNL     1       7.090   5.715  15.921  0.00  0.00    +0.000 C 
ATOM      5  O   UNL     1       7.712   6.551  16.548  0.00  0.00    +0.000 OA
ATOM      6  C   UNL     1       5.874   4.969  16.368  0.00  0.00    +0.000 C 
ATOM      7  C   UNL     1       5.271   5.115  17.549  0.00  0.00    +0.000 C 
ATOM      8  N   UNL     1       5.529   4.141  15.339  0.00  0.00    +0.000 N 
ATOM      9  H   UNL     1       8.095   5.552  14.078  0.00  0.00    +0.000 HD
ATOM     10  H   UNL     1       4.751   3.498  15.323  0.00  0.00    +0.000 HD
ENDROOT
BRANCH   7  11
ATOM     11  C   UNL     1       4.063   4.381  17.930  0.00  0.00    +0.000 A 
ATOM     12  C   UNL     1       4.161   3.131  18.551  0.00  0.00    +0.000 A 
ATOM     13  C   UNL     1       3.004   2.413  18.868  0.00  0.00    +0.000 A 
ATOM     14  C   UNL     1       1.753   2.949  18.567  0.00  0.00    +0.000 A 
ATOM     15 CL   UNL     1       0.330   2.054  18.933  0.00  0.00    +0.000 Cl
ATOM     16  C   UNL     1       1.647   4.199  17.963  0.00  0.00    +0.000 A 
ATOM     17  C   UNL     1       2.803   4.916  17.644  0.00  0.00    +0.000 A 
ENDBRANCH   7  11
TORSDOF 1
ENDMDL
MODEL 9
REMARK VINA RESULT:      -7.0      4.284      5.727
REMARK  Name = 
REMARK  1 active torsions:
REMARK  status: ('A' for Active; 'I' for Inactive)
REMARK    1  A    between atoms: C_7  and  C_8
REMARK                            x       y       z     vdW  Elec       q    Type
REMARK                         _______ _______ _______ _____ _____    ______ ____
ROOT
ATOM      1  O   UNL     1       2.111   3.202  22.437  0.00  0.00    +0.000 OA
ATOM      2  C   UNL     1       1.925   3.191  21.233  0.00  0.00    +0.000 C 
ATOM      3  N   UNL     1       0.886   2.579  20.581  0.00  0.00    +0.000 N 
ATOM      4  C   UNL     1       0.983   2.740  19.228  0.00  0.00    +0.000 C 
ATOM      5  O   UNL     1       0.235   2.321  18.366  0.00  0.00    +0.000 OA
ATOM      6  C   UNL     1       2.220   3.557  19.035  0.00  0.00    +0.000 C 
ATOM      7  C   UNL     1       2.700   3.961  17.857  0.00  0.00    +0.000 C 
ATOM      8  N   UNL     1       2.728   3.789  20.279  0.00  0.00    +0.000 N 
ATOM      9  H   UNL     1       0.154   2.070  21.044  0.00  0.00    +0.000 HD
ATOM     10  H   UNL     1       3.565   4.310  20.497  0.00  0.00    +0.000 HD
ENDROOT
BRANCH   7  11
ATOM     11  C   UNL     1       3.903   4.784  17.721  0.00  0.00    +0.000 A 
ATOM     12  C   UNL     1       3.800   6.171  17.576  0.00  0.00    +0.000 A 
ATOM     13  C   UNL     1       4.950   6.945  17.398  0.00  0.00    +0.000 A 
ATOM     14  C   UNL     1       6.200   6.331  17.369  0.00  0.00    +0.000 A 
ATOM     15 CL   UNL     1       7.614   7.280  17.124  0.00  0.00    +0.000 Cl
ATOM     16  C   UNL     1       6.313   4.952  17.527  0.00  0.00    +0.000 A 
ATOM     17  C   UNL     1       5.164   4.177  17.704  0.00  0.00    +0.000 A 
ENDBRANCH   7  11
TORSDOF 1
ENDMDL
