MODEL 1
REMARK VINA RESULT:      -7.4      0.000      0.000
REMARK  Name = 
REMARK  7 active torsions:
REMARK  status: ('A' for Active; 'I' for Inactive)
REMARK    1  A    between atoms: C_1  and  O_2
REMARK    2  A    between atoms: O_2  and  C_3
REMARK    3  A    between atoms: C_5  and  O_6
REMARK    4  A    between atoms: O_6  and  C_7
REMARK    5  A    between atoms: C_8  and  N_9
REMARK    6  A    between atoms: C_10  and  C_12
REMARK    7  A    between atoms: C_14  and  C_15
REMARK                            x       y       z     vdW  Elec       q    Type
REMARK                         _______ _______ _______ _____ _____    ______ ____
ROOT
ATOM      1  N   UNL     1       5.849   6.187  18.183  0.00  0.00    +0.000 N 
ATOM      2  C   UNL     1       7.222   6.209  18.405  0.00  0.00    +0.000 C 
ATOM      3  O   UNL     1       7.917   5.227  18.638  0.00  0.00    +0.000 OA
ATOM      4  H   UNL     1       5.482   7.048  17.790  0.00  0.00    +0.000 HD
ENDROOT
BRANCH   1   8
ATOM      5  C   UNL     1       3.064   3.013  18.747  0.00  0.00    +0.000 A 
ATOM      6  C   UNL     1       3.907   2.993  17.629  0.00  0.00    +0.000 A 
ATOM      7  C   UNL     1       4.843   4.012  17.377  0.00  0.00    +0.000 A 
ATOM      8  C   UNL     1       4.950   5.090  18.274  0.00  0.00    +0.000 A 
ATOM      9  C   UNL     1       4.121   5.089  19.409  0.00  0.00    +0.000 A 
ATOM     10  C   UNL     1       3.185   4.069  19.648  0.00  0.00    +0.000 A 
ATOM     11 CL   UNL     1       2.300   4.182  21.127  0.00  0.00    +0.000 Cl
BRANCH   5  13
ATOM     12  C   UNL     1       0.891   2.031  18.816  0.00  0.00    +0.000 C 
ATOM     13  O   UNL     1       2.304   1.882  18.864  0.00  0.00    +0.000 OA
ENDBRANCH   5  13
BRANCH   7  14
ATOM     14  O   UNL     1       5.760   3.878  16.369  0.00  0.00    +0.000 OA
ATOM     15  C   UNL     1       5.374   4.408  15.102  0.00  0.00    +0.000 C 
ENDBRANCH   7  14
ENDBRANCH   1   8
BRANCH   2  16
ATOM     16  C   UNL     1       7.811   7.532  18.235  0.00  0.00    +0.000 A 
ATOM     17  N   UNL     1       8.599   8.196  19.069  0.00  0.00    +0.000 NA
ATOM     18  C   UNL     1       8.801   9.390  18.389  0.00  0.00    +0.000 A 
ATOM     19  N   UNL     1       8.163   9.456  17.210  0.00  0.00    +0.000 NA
ATOM     20  O   UNL     1       7.510   8.234  17.109  0.00  0.00    +0.000 OA
BRANCH  18  21
ATOM     21  C   UNL     1       9.637  10.478  18.895  0.00  0.00    +0.000 A 
ATOM     22  C   UNL     1       9.600  10.844  20.242  0.00  0.00    +0.000 A 
ATOM     23  C   UNL     1      10.427  11.872  20.670  0.00  0.00    +0.000 A 
ATOM     24  N   UNL     1      11.270  12.547  19.860  0.00  0.00    +0.000 NA
ATOM     25  C   UNL     1      11.289  12.184  18.561  0.00  0.00    +0.000 A 
ATOM     26  C   UNL     1      10.501  11.173  18.039  0.00  0.00    +0.000 A 
ENDBRANCH  18  21
ENDBRANCH   2  16
TORSDOF 5
ENDMDL
MODEL 2
REMARK VINA RESULT:      -7.3      5.847      7.843
REMARK  Name = 
REMARK  7 active torsions:
REMARK  status: ('A' for Active; 'I' for Inactive)
REMARK    1  A    between atoms: C_1  and  O_2
REMARK    2  A    between atoms: O_2  and  C_3
REMARK    3  A    between atoms: C_5  and  O_6
REMARK    4  A    between atoms: O_6  and  C_7
REMARK    5  A    between atoms: C_8  and  N_9
REMARK    6  A    between atoms: C_10  and  C_12
REMARK    7  A    between atoms: C_14  and  C_15
REMARK                            x       y       z     vdW  Elec       q    Type
REMARK                         _______ _______ _______ _____ _____    ______ ____
ROOT
ATOM      1  N   UNL     1       2.728   6.835  18.883  0.00  0.00    +0.000 N 
ATOM      2  C   UNL     1       2.224   8.083  18.532  0.00  0.00    +0.000 C 
ATOM      3  O   UNL     1       2.316   8.597  17.423  0.00  0.00    +0.000 OA
ATOM      4  H   UNL     1       2.370   6.481  19.764  0.00  0.00    +0.000 HD
ENDROOT
BRANCH   1   8
ATOM      5  C   UNL     1       5.348   4.393  16.577  0.00  0.00    +0.000 A 
ATOM      6  C   UNL     1       4.026   3.978  16.778  0.00  0.00    +0.000 A 
ATOM      7  C   UNL     1       3.111   4.731  17.536  0.00  0.00    +0.000 A 
ATOM      8  C   UNL     1       3.523   5.947  18.110  0.00  0.00    +0.000 A 
ATOM      9  C   UNL     1       4.843   6.372  17.880  0.00  0.00    +0.000 A 
ATOM     10  C   UNL     1       5.752   5.609  17.127  0.00  0.00    +0.000 A 
ATOM     11 CL   UNL     1       7.309   6.312  16.877  0.00  0.00    +0.000 Cl
BRANCH   5  13
ATOM     12  C   UNL     1       6.124   3.964  14.363  0.00  0.00    +0.000 C 
ATOM     13  O   UNL     1       6.042   3.576  15.728  0.00  0.00    +0.000 OA
ENDBRANCH   5  13
BRANCH   7  14
ATOM     14  O   UNL     1       1.788   4.379  17.574  0.00  0.00    +0.000 OA
ATOM     15  C   UNL     1       1.454   3.309  18.457  0.00  0.00    +0.000 C 
ENDBRANCH   7  14
ENDBRANCH   1   8
BRANCH   2  16
ATOM     16  C   UNL     1       1.462   8.718  19.601  0.00  0.00    +0.000 A 
ATOM     17  N   UNL     1       0.656   9.768  19.527  0.00  0.00    +0.000 NA
ATOM     18  C   UNL     1       0.258   9.922  20.848  0.00  0.00    +0.000 A 
ATOM     19  N   UNL     1       0.799   9.023  21.685  0.00  0.00    +0.000 NA
ATOM     20  O   UNL     1       1.592   8.231  20.864  0.00  0.00    +0.000 OA
BRANCH  18  21
ATOM     21  C   UNL     1      -0.671  10.958  21.297  0.00  0.00    +0.000 A 
ATOM     22  C   UNL     1      -1.328  11.780  20.380  0.00  0.00    +0.000 A 
ATOM     23  C   UNL     1      -2.211  12.734  20.862  0.00  0.00    +0.000 A 
ATOM     24  N   UNL     1      -2.476  12.921  22.172  0.00  0.00    +0.000 NA
ATOM     25  C   UNL     1      -1.829  12.122  23.046  0.00  0.00    +0.000 A 
ATOM     26  C   UNL     1      -0.929  11.143  22.662  0.00  0.00    +0.000 A 
ENDBRANCH  18  21
ENDBRANCH   2  16
TORSDOF 5
ENDMDL
MODEL 3
REMARK VINA RESULT:      -7.1      6.329      8.332
REMARK  Name = 
REMARK  7 active torsions:
REMARK  status: ('A' for Active; 'I' for Inactive)
REMARK    1  A    between atoms: C_1  and  O_2
REMARK    2  A    between atoms: O_2  and  C_3
REMARK    3  A    between atoms: C_5  and  O_6
REMARK    4  A    between atoms: O_6  and  C_7
REMARK    5  A    between atoms: C_8  and  N_9
REMARK    6  A    between atoms: C_10  and  C_12
REMARK    7  A    between atoms: C_14  and  C_15
REMARK                            x       y       z     vdW  Elec       q    Type
REMARK                         _______ _______ _______ _____ _____    ______ ____
ROOT
ATOM      1  N   UNL     1       1.018   9.015  19.106  0.00  0.00    +0.000 N 
ATOM      2  C   UNL     1       1.961   9.083  18.086  0.00  0.00    +0.000 C 
ATOM      3  O   UNL     1       2.196  10.073  17.404  0.00  0.00    +0.000 OA
ATOM      4  H   UNL     1       1.114   8.199  19.702  0.00  0.00    +0.000 HD
ENDROOT
BRANCH   1   8
ATOM      5  C   UNL     1      -1.935  11.948  20.017  0.00  0.00    +0.000 A 
ATOM      6  C   UNL     1      -0.969  11.628  20.979  0.00  0.00    +0.000 A 
ATOM      7  C   UNL     1       0.029  10.664  20.748  0.00  0.00    +0.000 A 
ATOM      8  C   UNL     1       0.073   9.997  19.510  0.00  0.00    +0.000 A 
ATOM      9  C   UNL     1      -0.882  10.343  18.539  0.00  0.00    +0.000 A 
ATOM     10  C   UNL     1      -1.879  11.303  18.783  0.00  0.00    +0.000 A 
ATOM     11 CL   UNL     1      -2.925  11.665  17.457  0.00  0.00    +0.000 Cl
BRANCH   5  13
ATOM     12  C   UNL     1      -4.104  12.677  20.691  0.00  0.00    +0.000 C 
ATOM     13  O   UNL     1      -2.747  12.981  20.397  0.00  0.00    +0.000 OA
ENDBRANCH   5  13
BRANCH   7  14
ATOM     14  O   UNL     1       1.051  10.496  21.643  0.00  0.00    +0.000 OA
ATOM     15  C   UNL     1       0.892   9.429  22.577  0.00  0.00    +0.000 C 
ENDBRANCH   7  14
ENDBRANCH   1   8
BRANCH   2  16
ATOM     16  C   UNL     1       2.750   7.864  17.950  0.00  0.00    +0.000 A 
ATOM     17  N   UNL     1       3.983   7.728  17.484  0.00  0.00    +0.000 NA
ATOM     18  C   UNL     1       4.174   6.355  17.564  0.00  0.00    +0.000 A 
ATOM     19  N   UNL     1       3.112   5.688  18.042  0.00  0.00    +0.000 NA
ATOM     20  O   UNL     1       2.175   6.680  18.295  0.00  0.00    +0.000 OA
BRANCH  18  21
ATOM     21  C   UNL     1       5.416   5.688  17.175  0.00  0.00    +0.000 A 
ATOM     22  C   UNL     1       6.360   5.313  18.133  0.00  0.00    +0.000 A 
ATOM     23  C   UNL     1       7.512   4.668  17.708  0.00  0.00    +0.000 A 
ATOM     24  N   UNL     1       7.780   4.378  16.418  0.00  0.00    +0.000 NA
ATOM     25  C   UNL     1       6.860   4.751  15.505  0.00  0.00    +0.000 A 
ATOM     26  C   UNL     1       5.682   5.400  15.830  0.00  0.00    +0.000 A 
ENDBRANCH  18  21
ENDBRANCH   2  16
TORSDOF 5
ENDMDL
MODEL 4
REMARK VINA RESULT:      -7.1      1.160      1.203
REMARK  Name = 
REMARK  7 active torsions:
REMARK  status: ('A' for Active; 'I' for Inactive)
REMARK    1  A    between atoms: C_1  and  O_2
REMARK    2  A    between atoms: O_2  and  C_3
REMARK    3  A    between atoms: C_5  and  O_6
REMARK    4  A    between atoms: O_6  and  C_7
REMARK    5  A    between atoms: C_8  and  N_9
REMARK    6  A    between atoms: C_10  and  C_12
REMARK    7  A    between atoms: C_14  and  C_15
REMARK                            x       y       z     vdW  Elec       q    Type
REMARK                         _______ _______ _______ _____ _____    ______ ____
ROOT
ATOM      1  N   UNL     1       6.196   6.937  17.614  0.00  0.00    +0.000 N 
ATOM      2  C   UNL     1       7.440   7.029  18.229  0.00  0.00    +0.000 C 
ATOM      3  O   UNL     1       8.061   6.091  18.716  0.00  0.00    +0.000 OA
ATOM      4  H   UNL     1       5.940   7.761  17.079  0.00  0.00    +0.000 HD
ENDROOT
BRANCH   1   8
ATOM      5  C   UNL     1       3.449   3.683  17.512  0.00  0.00    +0.000 A 
ATOM      6  C   UNL     1       4.609   3.623  16.731  0.00  0.00    +0.000 A 
ATOM      7  C   UNL     1       5.553   4.665  16.710  0.00  0.00    +0.000 A 
ATOM      8  C   UNL     1       5.341   5.808  17.502  0.00  0.00    +0.000 A 
ATOM      9  C   UNL     1       4.189   5.849  18.306  0.00  0.00    +0.000 A 
ATOM     10  C   UNL     1       3.248   4.805  18.314  0.00  0.00    +0.000 A 
ATOM     11 CL   UNL     1       1.929   4.980  19.416  0.00  0.00    +0.000 Cl
BRANCH   5  13
ATOM     12  C   UNL     1       3.082   1.487  18.367  0.00  0.00    +0.000 C 
ATOM     13  O   UNL     1       2.716   2.528  17.472  0.00  0.00    +0.000 OA
ENDBRANCH   5  13
BRANCH   7  14
ATOM     14  O   UNL     1       6.750   4.503  16.065  0.00  0.00    +0.000 OA
ATOM     15  C   UNL     1       6.682   4.402  14.643  0.00  0.00    +0.000 C 
ENDBRANCH   7  14
ENDBRANCH   1   8
BRANCH   2  16
ATOM     16  C   UNL     1       8.018   8.366  18.162  0.00  0.00    +0.000 A 
ATOM     17  N   UNL     1       9.009   8.873  18.882  0.00  0.00    +0.000 NA
ATOM     18  C   UNL     1       9.082  10.174  18.401  0.00  0.00    +0.000 A 
ATOM     19  N   UNL     1       8.178  10.449  17.447  0.00  0.00    +0.000 NA
ATOM     20  O   UNL     1       7.477   9.261  17.291  0.00  0.00    +0.000 OA
BRANCH  18  21
ATOM     21  C   UNL     1      10.054  11.157  18.873  0.00  0.00    +0.000 A 
ATOM     22  C   UNL     1      10.074  11.563  20.209  0.00  0.00    +0.000 A 
ATOM     23  C   UNL     1      11.029  12.486  20.605  0.00  0.00    +0.000 A 
ATOM     24  N   UNL     1      11.948  13.023  19.775  0.00  0.00    +0.000 NA
ATOM     25  C   UNL     1      11.912  12.625  18.486  0.00  0.00    +0.000 A 
ATOM     26  C   UNL     1      10.996  11.710  17.995  0.00  0.00    +0.000 A 
ENDBRANCH  18  21
ENDBRANCH   2  16
TORSDOF 5
ENDMDL
MODEL 5
REMARK VINA RESULT:      -7.0      1.032      1.403
REMARK  Name = 
REMARK  7 active torsions:
REMARK  status: ('A' for Active; 'I' for Inactive)
REMARK    1  A    between atoms: C_1  and  O_2
REMARK    2  A    between atoms: O_2  and  C_3
REMARK    3  A    between atoms: C_5  and  O_6
REMARK    4  A    between atoms: O_6  and  C_7
REMARK    5  A    between atoms: C_8  and  N_9
REMARK    6  A    between atoms: C_10  and  C_12
REMARK    7  A    between atoms: C_14  and  C_15
REMARK                            x       y       z     vdW  Elec       q    Type
REMARK                         _______ _______ _______ _____ _____    ______ ____
ROOT
ATOM      1  N   UNL     1       5.941   6.832  17.557  0.00  0.00    +0.000 N 
ATOM      2  C   UNL     1       7.219   6.860  18.105  0.00  0.00    +0.000 C 
ATOM      3  O   UNL     1       7.842   5.881  18.500  0.00  0.00    +0.000 OA
ATOM      4  H   UNL     1       5.676   7.692  17.088  0.00  0.00    +0.000 HD
ENDROOT
BRANCH   1   8
ATOM      5  C   UNL     1       3.109   3.653  17.416  0.00  0.00    +0.000 A 
ATOM      6  C   UNL     1       4.234   3.605  16.583  0.00  0.00    +0.000 A 
ATOM      7  C   UNL     1       5.203   4.624  16.572  0.00  0.00    +0.000 A 
ATOM      8  C   UNL     1       5.053   5.730  17.427  0.00  0.00    +0.000 A 
ATOM      9  C   UNL     1       3.937   5.758  18.281  0.00  0.00    +0.000 A 
ATOM     10  C   UNL     1       2.970   4.738  18.279  0.00  0.00    +0.000 A 
ATOM     11 CL   UNL     1       1.703   4.889  19.443  0.00  0.00    +0.000 Cl
BRANCH   5  13
ATOM     12  C   UNL     1       2.349   1.659  18.482  0.00  0.00    +0.000 C 
ATOM     13  O   UNL     1       2.346   2.519  17.351  0.00  0.00    +0.000 OA
ENDBRANCH   5  13
BRANCH   7  14
ATOM     14  O   UNL     1       6.368   4.466  15.870  0.00  0.00    +0.000 OA
ATOM     15  C   UNL     1       6.222   4.118  14.493  0.00  0.00    +0.000 C 
ENDBRANCH   7  14
ENDBRANCH   1   8
BRANCH   2  16
ATOM     16  C   UNL     1       7.825   8.187  18.085  0.00  0.00    +0.000 A 
ATOM     17  N   UNL     1       8.810   8.654  18.838  0.00  0.00    +0.000 NA
ATOM     18  C   UNL     1       8.920   9.965  18.392  0.00  0.00    +0.000 A 
ATOM     19  N   UNL     1       8.042  10.284  17.428  0.00  0.00    +0.000 NA
ATOM     20  O   UNL     1       7.321   9.114  17.226  0.00  0.00    +0.000 OA
BRANCH  18  21
ATOM     21  C   UNL     1       9.902  10.916  18.911  0.00  0.00    +0.000 A 
ATOM     22  C   UNL     1      10.816  11.539  18.060  0.00  0.00    +0.000 A 
ATOM     23  C   UNL     1      11.714  12.445  18.605  0.00  0.00    +0.000 A 
ATOM     24  N   UNL     1      11.760  12.764  19.915  0.00  0.00    +0.000 NA
ATOM     25  C   UNL     1      10.873  12.149  20.725  0.00  0.00    +0.000 A 
ATOM     26  C   UNL     1       9.940  11.230  20.276  0.00  0.00    +0.000 A 
ENDBRANCH  18  21
ENDBRANCH   2  16
TORSDOF 5
ENDMDL
MODEL 6
REMARK VINA RESULT:      -7.0      6.534      8.287
REMARK  Name = 
REMARK  7 active torsions:
REMARK  status: ('A' for Active; 'I' for Inactive)
REMARK    1  A    between atoms: C_1  and  O_2
REMARK    2  A    between atoms: O_2  and  C_3
REMARK    3  A    between atoms: C_5  and  O_6
REMARK    4  A    between atoms: O_6  and  C_7
REMARK    5  A    between atoms: C_8  and  N_9
REMARK    6  A    between atoms: C_10  and  C_12
REMARK    7  A    between atoms: C_14  and  C_15
REMARK                            x       y       z     vdW  Elec       q    Type
REMARK                         _______ _______ _______ _____ _____    ______ ____
ROOT
ATOM      1  N   UNL     1       0.863   9.196  18.906  0.00  0.00    +0.000 N 
ATOM      2  C   UNL     1       1.934   9.259  18.021  0.00  0.00    +0.000 C 
ATOM      3  O   UNL     1       2.260  10.246  17.373  0.00  0.00    +0.000 OA
ATOM      4  H   UNL     1       0.877   8.382  19.513  0.00  0.00    +0.000 HD
ENDROOT
BRANCH   1   8
ATOM      5  C   UNL     1      -1.974  12.173  20.020  0.00  0.00    +0.000 A 
ATOM      6  C   UNL     1      -2.094  11.546  18.774  0.00  0.00    +0.000 A 
ATOM      7  C   UNL     1      -1.188  10.562  18.340  0.00  0.00    +0.000 A 
ATOM      8  C   UNL     1      -0.125  10.181  19.178  0.00  0.00    +0.000 A 
ATOM      9  C   UNL     1      -0.027  10.794  20.439  0.00  0.00    +0.000 A 
ATOM     10  C   UNL     1      -0.934  11.781  20.861  0.00  0.00    +0.000 A 
ATOM     11 CL   UNL     1      -0.716  12.377  22.467  0.00  0.00    +0.000 Cl
BRANCH   5  13
ATOM     12  C   UNL     1      -4.067  12.527  21.107  0.00  0.00    +0.000 C 
ATOM     13  O   UNL     1      -3.012  13.021  20.294  0.00  0.00    +0.000 OA
ENDBRANCH   5  13
BRANCH   7  14
ATOM     14  O   UNL     1      -1.430   9.855  17.192  0.00  0.00    +0.000 OA
ATOM     15  C   UNL     1      -2.498  10.337  16.378  0.00  0.00    +0.000 C 
ENDBRANCH   7  14
ENDBRANCH   1   8
BRANCH   2  16
ATOM     16  C   UNL     1       2.731   8.038  17.995  0.00  0.00    +0.000 A 
ATOM     17  N   UNL     1       3.918   7.841  17.441  0.00  0.00    +0.000 NA
ATOM     18  C   UNL     1       4.143   6.496  17.706  0.00  0.00    +0.000 A 
ATOM     19  N   UNL     1       3.143   5.902  18.375  0.00  0.00    +0.000 NA
ATOM     20  O   UNL     1       2.213   6.916  18.564  0.00  0.00    +0.000 OA
BRANCH  18  21
ATOM     21  C   UNL     1       5.357   5.785  17.307  0.00  0.00    +0.000 A 
ATOM     22  C   UNL     1       6.336   5.453  18.245  0.00  0.00    +0.000 A 
ATOM     23  C   UNL     1       7.459   4.764  17.812  0.00  0.00    +0.000 A 
ATOM     24  N   UNL     1       7.667   4.392  16.532  0.00  0.00    +0.000 NA
ATOM     25  C   UNL     1       6.714   4.724  15.637  0.00  0.00    +0.000 A 
ATOM     26  C   UNL     1       5.560   5.413  15.971  0.00  0.00    +0.000 A 
ENDBRANCH  18  21
ENDBRANCH   2  16
TORSDOF 5
ENDMDL
MODEL 7
REMARK VINA RESULT:      -7.0      6.758      8.358
REMARK  Name = 
REMARK  7 active torsions:
REMARK  status: ('A' for Active; 'I' for Inactive)
REMARK    1  A    between atoms: C_1  and  O_2
REMARK    2  A    between atoms: O_2  and  C_3
REMARK    3  A    between atoms: C_5  and  O_6
REMARK    4  A    between atoms: O_6  and  C_7
REMARK    5  A    between atoms: C_8  and  N_9
REMARK    6  A    between atoms: C_10  and  C_12
REMARK    7  A    between atoms: C_14  and  C_15
REMARK                            x       y       z     vdW  Elec       q    Type
REMARK                         _______ _______ _______ _____ _____    ______ ____
ROOT
ATOM      1  N   UNL     1       1.727   7.192  20.627  0.00  0.00    +0.000 N 
ATOM      2  C   UNL     1       1.384   8.463  20.179  0.00  0.00    +0.000 C 
ATOM      3  O   UNL     1       1.502   8.864  19.027  0.00  0.00    +0.000 OA
ATOM      4  H   UNL     1       1.359   6.966  21.546  0.00  0.00    +0.000 HD
ENDROOT
BRANCH   1   8
ATOM      5  C   UNL     1       3.742   4.260  18.283  0.00  0.00    +0.000 A 
ATOM      6  C   UNL     1       2.940   3.847  19.354  0.00  0.00    +0.000 A 
ATOM      7  C   UNL     1       2.254   4.761  20.173  0.00  0.00    +0.000 A 
ATOM      8  C   UNL     1       2.363   6.139  19.915  0.00  0.00    +0.000 A 
ATOM      9  C   UNL     1       3.147   6.546  18.821  0.00  0.00    +0.000 A 
ATOM     10  C   UNL     1       3.834   5.624  18.013  0.00  0.00    +0.000 A 
ATOM     11 CL   UNL     1       4.689   6.285  16.666  0.00  0.00    +0.000 Cl
BRANCH   5  13
ATOM     12  C   UNL     1       3.669   1.931  17.773  0.00  0.00    +0.000 C 
ATOM     13  O   UNL     1       4.235   3.216  17.550  0.00  0.00    +0.000 OA
ENDBRANCH   5  13
BRANCH   7  14
ATOM     14  O   UNL     1       1.351   4.318  21.103  0.00  0.00    +0.000 OA
ATOM     15  C   UNL     1       1.385   2.919  21.384  0.00  0.00    +0.000 C 
ENDBRANCH   7  14
ENDBRANCH   1   8
BRANCH   2  16
ATOM     16  C   UNL     1       0.757   9.286  21.208  0.00  0.00    +0.000 A 
ATOM     17  N   UNL     1      -0.007  10.358  21.053  0.00  0.00    +0.000 NA
ATOM     18  C   UNL     1      -0.267  10.721  22.368  0.00  0.00    +0.000 A 
ATOM     19  N   UNL     1       0.316   9.922  23.276  0.00  0.00    +0.000 NA
ATOM     20  O   UNL     1       0.991   8.978  22.512  0.00  0.00    +0.000 OA
BRANCH  18  21
ATOM     21  C   UNL     1      -1.104  11.860  22.742  0.00  0.00    +0.000 A 
ATOM     22  C   UNL     1      -2.372  11.669  23.293  0.00  0.00    +0.000 A 
ATOM     23  C   UNL     1      -3.115  12.786  23.644  0.00  0.00    +0.000 A 
ATOM     24  N   UNL     1      -2.687  14.056  23.484  0.00  0.00    +0.000 NA
ATOM     25  C   UNL     1      -1.461  14.223  22.946  0.00  0.00    +0.000 A 
ATOM     26  C   UNL     1      -0.646  13.172  22.562  0.00  0.00    +0.000 A 
ENDBRANCH  18  21
ENDBRANCH   2  16
TORSDOF 5
ENDMDL
MODEL 8
REMARK VINA RESULT:      -6.9      6.372      9.208
REMARK  Name = 
REMARK  7 active torsions:
REMARK  status: ('A' for Active; 'I' for Inactive)
REMARK    1  A    between atoms: C_1  and  O_2
REMARK    2  A    between atoms: O_2  and  C_3
REMARK    3  A    between atoms: C_5  and  O_6
REMARK    4  A    between atoms: O_6  and  C_7
REMARK    5  A    between atoms: C_8  and  N_9
REMARK    6  A    between atoms: C_10  and  C_12
REMARK    7  A    between atoms: C_14  and  C_15
REMARK                            x       y       z     vdW  Elec       q    Type
REMARK                         _______ _______ _______ _____ _____    ______ ____
ROOT
ATOM      1  N   UNL     1       0.903   8.978  19.118  0.00  0.00    +0.000 N 
ATOM      2  C   UNL     1       1.924   9.024  18.175  0.00  0.00    +0.000 C 
ATOM      3  O   UNL     1       2.284  10.027  17.570  0.00  0.00    +0.000 OA
ATOM      4  H   UNL     1       0.891   8.127  19.671  0.00  0.00    +0.000 HD
ENDROOT
BRANCH   1   8
ATOM      5  C   UNL     1      -1.916  12.049  19.999  0.00  0.00    +0.000 A 
ATOM      6  C   UNL     1      -0.921  11.745  20.935  0.00  0.00    +0.000 A 
ATOM      7  C   UNL     1       0.036  10.738  20.713  0.00  0.00    +0.000 A 
ATOM      8  C   UNL     1       0.006  10.009  19.510  0.00  0.00    +0.000 A 
ATOM      9  C   UNL     1      -0.978  10.338  18.563  0.00  0.00    +0.000 A 
ATOM     10  C   UNL     1      -1.933  11.342  18.797  0.00  0.00    +0.000 A 
ATOM     11 CL   UNL     1      -3.023  11.672  17.499  0.00  0.00    +0.000 Cl
BRANCH   5  13
ATOM     12  C   UNL     1      -3.989  12.870  20.845  0.00  0.00    +0.000 C 
ATOM     13  O   UNL     1      -2.679  13.126  20.358  0.00  0.00    +0.000 OA
ENDBRANCH   5  13
BRANCH   7  14
ATOM     14  O   UNL     1       1.090  10.581  21.573  0.00  0.00    +0.000 OA
ATOM     15  C   UNL     1       0.975   9.508  22.507  0.00  0.00    +0.000 C 
ENDBRANCH   7  14
ENDBRANCH   1   8
BRANCH   2  16
ATOM     16  C   UNL     1       2.626   7.755  18.024  0.00  0.00    +0.000 A 
ATOM     17  N   UNL     1       2.270   6.559  18.470  0.00  0.00    +0.000 NA
ATOM     18  C   UNL     1       3.335   5.767  18.059  0.00  0.00    +0.000 A 
ATOM     19  N   UNL     1       4.293   6.445  17.408  0.00  0.00    +0.000 NA
ATOM     20  O   UNL     1       3.827   7.753  17.386  0.00  0.00    +0.000 OA
BRANCH  18  21
ATOM     21  C   UNL     1       3.411   4.327  18.299  0.00  0.00    +0.000 A 
ATOM     22  C   UNL     1       2.676   3.430  17.523  0.00  0.00    +0.000 A 
ATOM     23  C   UNL     1       2.801   2.074  17.785  0.00  0.00    +0.000 A 
ATOM     24  N   UNL     1       3.593   1.562  18.751  0.00  0.00    +0.000 NA
ATOM     25  C   UNL     1       4.293   2.443  19.495  0.00  0.00    +0.000 A 
ATOM     26  C   UNL     1       4.234   3.814  19.312  0.00  0.00    +0.000 A 
ENDBRANCH  18  21
ENDBRANCH   2  16
TORSDOF 5
ENDMDL
MODEL 9
REMARK VINA RESULT:      -6.9      6.562      9.184
REMARK  Name = 
REMARK  7 active torsions:
REMARK  status: ('A' for Active; 'I' for Inactive)
REMARK    1  A    between atoms: C_1  and  O_2
REMARK    2  A    between atoms: O_2  and  C_3
REMARK    3  A    between atoms: C_5  and  O_6
REMARK    4  A    between atoms: O_6  and  C_7
REMARK    5  A    between atoms: C_8  and  N_9
REMARK    6  A    between atoms: C_10  and  C_12
REMARK    7  A    between atoms: C_14  and  C_15
REMARK                            x       y       z     vdW  Elec       q    Type
REMARK                         _______ _______ _______ _____ _____    ______ ____
ROOT
ATOM      1  N   UNL     1       0.735   9.065  18.932  0.00  0.00    +0.000 N 
ATOM      2  C   UNL     1       1.850   9.146  18.105  0.00  0.00    +0.000 C 
ATOM      3  O   UNL     1       2.275  10.173  17.589  0.00  0.00    +0.000 OA
ATOM      4  H   UNL     1       0.662   8.189  19.440  0.00  0.00    +0.000 HD
ENDROOT
BRANCH   1   8
ATOM      5  C   UNL     1      -1.944  12.098  20.264  0.00  0.00    +0.000 A 
ATOM      6  C   UNL     1      -2.032  11.640  18.944  0.00  0.00    +0.000 A 
ATOM      7  C   UNL     1      -1.174  10.647  18.436  0.00  0.00    +0.000 A 
ATOM      8  C   UNL     1      -0.195  10.084  19.275  0.00  0.00    +0.000 A 
ATOM      9  C   UNL     1      -0.131  10.528  20.607  0.00  0.00    +0.000 A 
ATOM     10  C   UNL     1      -0.989  11.525  21.102  0.00  0.00    +0.000 A 
ATOM     11 CL   UNL     1      -0.828  11.900  22.780  0.00  0.00    +0.000 Cl
BRANCH   5  13
ATOM     12  C   UNL     1      -2.555  14.338  20.813  0.00  0.00    +0.000 C 
ATOM     13  O   UNL     1      -2.933  12.986  20.589  0.00  0.00    +0.000 OA
ENDBRANCH   5  13
BRANCH   7  14
ATOM     14  O   UNL     1      -1.394  10.108  17.197  0.00  0.00    +0.000 OA
ATOM     15  C   UNL     1      -2.534  10.604  16.496  0.00  0.00    +0.000 C 
ENDBRANCH   7  14
ENDBRANCH   1   8
BRANCH   2  16
ATOM     16  C   UNL     1       2.560   7.880  17.971  0.00  0.00    +0.000 A 
ATOM     17  N   UNL     1       2.185   6.677  18.383  0.00  0.00    +0.000 NA
ATOM     18  C   UNL     1       3.269   5.892  18.013  0.00  0.00    +0.000 A 
ATOM     19  N   UNL     1       4.257   6.579  17.418  0.00  0.00    +0.000 NA
ATOM     20  O   UNL     1       3.791   7.887  17.391  0.00  0.00    +0.000 OA
BRANCH  18  21
ATOM     21  C   UNL     1       3.337   4.449  18.236  0.00  0.00    +0.000 A 
ATOM     22  C   UNL     1       4.169   3.913  19.220  0.00  0.00    +0.000 A 
ATOM     23  C   UNL     1       4.180   2.538  19.399  0.00  0.00    +0.000 A 
ATOM     24  N   UNL     1       3.431   1.678  18.676  0.00  0.00    +0.000 NA
ATOM     25  C   UNL     1       2.636   2.212  17.726  0.00  0.00    +0.000 A 
ATOM     26  C   UNL     1       2.558   3.570  17.471  0.00  0.00    +0.000 A 
ENDBRANCH  18  21
ENDBRANCH   2  16
TORSDOF 5
ENDMDL
