MODEL 1
REMARK VINA RESULT:      -8.6      0.000      0.000
REMARK  Name = 
REMARK  8 active torsions:
REMARK  status: ('A' for Active; 'I' for Inactive)
REMARK    1  A    between atoms: C_1  and  C_2
REMARK    2  A    between atoms: C_5  and  N_6
REMARK    3  A    between atoms: N_6  and  S_7
REMARK    4  A    between atoms: S_7  and  C_10
REMARK    5  A    between atoms: C_12  and  C_13
REMARK    6  A    between atoms: N_15  and  C_16
REMARK    7  A    between atoms: C_16  and  C_17
REMARK    8  A    between atoms: C_25  and  C_26
REMARK                            x       y       z     vdW  Elec       q    Type
REMARK                         _______ _______ _______ _____ _____    ______ ____
ROOT
ATOM      1  C   UNL     1       2.472   4.528  18.806  0.00  0.00    +0.000 A 
ATOM      2  C   UNL     1       2.286   5.793  18.225  0.00  0.00    +0.000 A 
ATOM      3  C   UNL     1       2.125   6.921  19.037  0.00  0.00    +0.000 A 
ATOM      4  C   UNL     1       2.076   6.772  20.425  0.00  0.00    +0.000 A 
ATOM      5  C   UNL     1       2.239   5.513  21.004  0.00  0.00    +0.000 A 
ATOM      6  C   UNL     1       2.451   4.376  20.208  0.00  0.00    +0.000 A 
ATOM      7  C   UNL     1       2.629   3.048  20.893  0.00  0.00    +0.000 C 
ENDROOT
BRANCH   3   8
ATOM      8  C   UNL     1       1.973   8.265  18.407  0.00  0.00    +0.000 C 
ATOM      9  O   UNL     1       2.483   8.502  17.319  0.00  0.00    +0.000 OA
ATOM     10  N   UNL     1       1.256   9.189  19.138  0.00  0.00    +0.000 N 
ATOM     11  H   UNL     1       1.056   9.003  20.109  0.00  0.00    +0.000 HD
BRANCH  10  12
ATOM     12  C   UNL     1       0.980  10.521  18.650  0.00  0.00    +0.000 C 
BRANCH  12  13
ATOM     13  C   UNL     1      -0.488  10.772  18.476  0.00  0.00    +0.000 A 
ATOM     14  C   UNL     1      -1.277  10.014  17.604  0.00  0.00    +0.000 A 
ATOM     15  C   UNL     1      -2.632  10.305  17.472  0.00  0.00    +0.000 A 
ATOM     16  C   UNL     1      -3.159  11.343  18.222  0.00  0.00    +0.000 A 
ATOM     17  N   UNL     1      -2.435  12.087  19.083  0.00  0.00    +0.000 NA
ATOM     18  C   UNL     1      -1.121  11.782  19.195  0.00  0.00    +0.000 A 
ENDBRANCH  12  13
ENDBRANCH  10  12
ENDBRANCH   3   8
BRANCH   1  19
ATOM     19  S   UNL     1       2.704   3.091  17.763  0.00  0.00    +0.000 S 
ATOM     20  O   UNL     1       2.284   3.492  16.433  0.00  0.00    +0.000 OA
ATOM     21  O   UNL     1       2.108   1.960  18.439  0.00  0.00    +0.000 OA
BRANCH  19  22
ATOM     22  N   UNL     1       4.378   2.884  17.653  0.00  0.00    +0.000 N 
ATOM     23  H   UNL     1       4.681   2.163  18.309  0.00  0.00    +0.000 HD
BRANCH  22  28
ATOM     24  C   UNL     1       7.607   7.613  17.559  0.00  0.00    +0.000 C 
ATOM     25  C   UNL     1       6.771   6.368  17.547  0.00  0.00    +0.000 A 
ATOM     26  C   UNL     1       6.120   5.930  16.387  0.00  0.00    +0.000 A 
ATOM     27  C   UNL     1       5.337   4.771  16.411  0.00  0.00    +0.000 A 
ATOM     28  C   UNL     1       5.199   4.049  17.598  0.00  0.00    +0.000 A 
ATOM     29  C   UNL     1       5.854   4.471  18.750  0.00  0.00    +0.000 A 
ATOM     30  C   UNL     1       6.632   5.625  18.727  0.00  0.00    +0.000 A 
ENDBRANCH  22  28
ENDBRANCH  19  22
ENDBRANCH   1  19
TORSDOF 6
ENDMDL
MODEL 2
REMARK VINA RESULT:      -8.5      1.031      1.437
REMARK  Name = 
REMARK  8 active torsions:
REMARK  status: ('A' for Active; 'I' for Inactive)
REMARK    1  A    between atoms: C_1  and  C_2
REMARK    2  A    between atoms: C_5  and  N_6
REMARK    3  A    between atoms: N_6  and  S_7
REMARK    4  A    between atoms: S_7  and  C_10
REMARK    5  A    between atoms: C_12  and  C_13
REMARK    6  A    between atoms: N_15  and  C_16
REMARK    7  A    between atoms: C_16  and  C_17
REMARK    8  A    between atoms: C_25  and  C_26
REMARK                            x       y       z     vdW  Elec       q    Type
REMARK                         _______ _______ _______ _____ _____    ______ ____
ROOT
ATOM      1  C   UNL     1       3.221   4.325  19.422  0.00  0.00    +0.000 A 
ATOM      2  C   UNL     1       3.132   5.551  18.743  0.00  0.00    +0.000 A 
ATOM      3  C   UNL     1       2.346   6.585  19.264  0.00  0.00    +0.000 A 
ATOM      4  C   UNL     1       1.594   6.367  20.420  0.00  0.00    +0.000 A 
ATOM      5  C   UNL     1       1.663   5.143  21.084  0.00  0.00    +0.000 A 
ATOM      6  C   UNL     1       2.485   4.109  20.606  0.00  0.00    +0.000 A 
ATOM      7  C   UNL     1       2.523   2.814  21.373  0.00  0.00    +0.000 C 
ENDROOT
BRANCH   3   8
ATOM      8  C   UNL     1       2.297   7.899  18.557  0.00  0.00    +0.000 C 
ATOM      9  O   UNL     1       2.942   8.076  17.531  0.00  0.00    +0.000 OA
ATOM     10  N   UNL     1       1.508   8.865  19.147  0.00  0.00    +0.000 N 
ATOM     11  H   UNL     1       1.187   8.729  20.094  0.00  0.00    +0.000 HD
BRANCH  10  12
ATOM     12  C   UNL     1       1.318  10.174  18.565  0.00  0.00    +0.000 C 
BRANCH  12  13
ATOM     13  C   UNL     1      -0.131  10.544  18.455  0.00  0.00    +0.000 A 
ATOM     14  C   UNL     1      -1.019   9.846  17.629  0.00  0.00    +0.000 A 
ATOM     15  C   UNL     1      -2.351  10.246  17.556  0.00  0.00    +0.000 A 
ATOM     16  C   UNL     1      -2.755  11.329  18.317  0.00  0.00    +0.000 A 
ATOM     17  N   UNL     1      -1.934  12.019  19.134  0.00  0.00    +0.000 NA
ATOM     18  C   UNL     1      -0.645  11.608  19.190  0.00  0.00    +0.000 A 
ENDBRANCH  12  13
ENDBRANCH  10  12
ENDBRANCH   3   8
BRANCH   1  19
ATOM     19  S   UNL     1       4.249   3.013  18.767  0.00  0.00    +0.000 S 
ATOM     20  O   UNL     1       3.335   2.013  18.248  0.00  0.00    +0.000 OA
ATOM     21  O   UNL     1       5.237   2.690  19.772  0.00  0.00    +0.000 OA
BRANCH  19  22
ATOM     22  N   UNL     1       5.001   3.672  17.405  0.00  0.00    +0.000 N 
ATOM     23  H   UNL     1       5.429   2.928  16.852  0.00  0.00    +0.000 HD
BRANCH  22  28
ATOM     24  C   UNL     1       8.200   8.393  17.929  0.00  0.00    +0.000 C 
ATOM     25  C   UNL     1       7.367   7.150  17.829  0.00  0.00    +0.000 A 
ATOM     26  C   UNL     1       7.614   6.031  18.635  0.00  0.00    +0.000 A 
ATOM     27  C   UNL     1       6.827   4.882  18.510  0.00  0.00    +0.000 A 
ATOM     28  C   UNL     1       5.793   4.846  17.574  0.00  0.00    +0.000 A 
ATOM     29  C   UNL     1       5.533   5.957  16.779  0.00  0.00    +0.000 A 
ATOM     30  C   UNL     1       6.317   7.102  16.902  0.00  0.00    +0.000 A 
ENDBRANCH  22  28
ENDBRANCH  19  22
ENDBRANCH   1  19
TORSDOF 6
ENDMDL
MODEL 3
REMARK VINA RESULT:      -8.2      1.557      1.902
REMARK  Name = 
REMARK  8 active torsions:
REMARK  status: ('A' for Active; 'I' for Inactive)
REMARK    1  A    between atoms: C_1  and  C_2
REMARK    2  A    between atoms: C_5  and  N_6
REMARK    3  A    between atoms: N_6  and  S_7
REMARK    4  A    between atoms: S_7  and  C_10
REMARK    5  A    between atoms: C_12  and  C_13
REMARK    6  A    between atoms: N_15  and  C_16
REMARK    7  A    between atoms: C_16  and  C_17
REMARK    8  A    between atoms: C_25  and  C_26
REMARK                            x       y       z     vdW  Elec       q    Type
REMARK                         _______ _______ _______ _____ _____    ______ ____
ROOT
ATOM      1  C   UNL     1       2.376   4.515  18.892  0.00  0.00    +0.000 A 
ATOM      2  C   UNL     1       2.326   5.749  18.224  0.00  0.00    +0.000 A 
ATOM      3  C   UNL     1       2.163   6.934  18.950  0.00  0.00    +0.000 A 
ATOM      4  C   UNL     1       1.975   6.877  20.333  0.00  0.00    +0.000 A 
ATOM      5  C   UNL     1       2.002   5.651  20.997  0.00  0.00    +0.000 A 
ATOM      6  C   UNL     1       2.215   4.455  20.292  0.00  0.00    +0.000 A 
ATOM      7  C   UNL     1       2.242   3.164  21.067  0.00  0.00    +0.000 C 
ENDROOT
BRANCH   3   8
ATOM      8  C   UNL     1       2.157   8.242  18.232  0.00  0.00    +0.000 C 
ATOM      9  O   UNL     1       2.775   8.378  17.183  0.00  0.00    +0.000 OA
ATOM     10  N   UNL     1       1.441   9.254  18.839  0.00  0.00    +0.000 N 
ATOM     11  H   UNL     1       1.145   9.142  19.797  0.00  0.00    +0.000 HD
BRANCH  10  12
ATOM     12  C   UNL     1       1.299  10.566  18.251  0.00  0.00    +0.000 C 
BRANCH  12  13
ATOM     13  C   UNL     1       1.038  11.626  19.279  0.00  0.00    +0.000 A 
ATOM     14  C   UNL     1       0.948  12.982  18.947  0.00  0.00    +0.000 A 
ATOM     15  C   UNL     1       0.720  13.923  19.948  0.00  0.00    +0.000 A 
ATOM     16  C   UNL     1       0.583  13.476  21.252  0.00  0.00    +0.000 A 
ATOM     17  N   UNL     1       0.649  12.177  21.609  0.00  0.00    +0.000 NA
ATOM     18  C   UNL     1       0.868  11.283  20.617  0.00  0.00    +0.000 A 
ENDBRANCH  12  13
ENDBRANCH  10  12
ENDBRANCH   3   8
BRANCH   1  19
ATOM     19  S   UNL     1       2.613   3.004  17.962  0.00  0.00    +0.000 S 
ATOM     20  O   UNL     1       2.234   3.314  16.596  0.00  0.00    +0.000 OA
ATOM     21  O   UNL     1       1.981   1.933  18.700  0.00  0.00    +0.000 OA
BRANCH  19  22
ATOM     22  N   UNL     1       4.285   2.767  17.912  0.00  0.00    +0.000 N 
ATOM     23  H   UNL     1       4.560   2.088  18.625  0.00  0.00    +0.000 HD
BRANCH  22  28
ATOM     24  C   UNL     1       7.585   7.435  17.575  0.00  0.00    +0.000 C 
ATOM     25  C   UNL     1       6.733   6.202  17.629  0.00  0.00    +0.000 A 
ATOM     26  C   UNL     1       6.160   5.653  16.475  0.00  0.00    +0.000 A 
ATOM     27  C   UNL     1       5.360   4.509  16.559  0.00  0.00    +0.000 A 
ATOM     28  C   UNL     1       5.126   3.913  17.799  0.00  0.00    +0.000 A 
ATOM     29  C   UNL     1       5.703   4.445  18.947  0.00  0.00    +0.000 A 
ATOM     30  C   UNL     1       6.499   5.585  18.865  0.00  0.00    +0.000 A 
ENDBRANCH  22  28
ENDBRANCH  19  22
ENDBRANCH   1  19
TORSDOF 6
ENDMDL
MODEL 4
REMARK VINA RESULT:      -8.2      1.511      2.434
REMARK  Name = 
REMARK  8 active torsions:
REMARK  status: ('A' for Active; 'I' for Inactive)
REMARK    1  A    between atoms: C_1  and  C_2
REMARK    2  A    between atoms: C_5  and  N_6
REMARK    3  A    between atoms: N_6  and  S_7
REMARK    4  A    between atoms: S_7  and  C_10
REMARK    5  A    between atoms: C_12  and  C_13
REMARK    6  A    between atoms: N_15  and  C_16
REMARK    7  A    between atoms: C_16  and  C_17
REMARK    8  A    between atoms: C_25  and  C_26
REMARK                            x       y       z     vdW  Elec       q    Type
REMARK                         _______ _______ _______ _____ _____    ______ ____
ROOT
ATOM      1  C   UNL     1       2.378   4.677  18.813  0.00  0.00    +0.000 A 
ATOM      2  C   UNL     1       2.237   5.915  18.166  0.00  0.00    +0.000 A 
ATOM      3  C   UNL     1       2.063   7.083  18.916  0.00  0.00    +0.000 A 
ATOM      4  C   UNL     1       1.956   7.002  20.307  0.00  0.00    +0.000 A 
ATOM      5  C   UNL     1       2.075   5.771  20.950  0.00  0.00    +0.000 A 
ATOM      6  C   UNL     1       2.300   4.594  20.219  0.00  0.00    +0.000 A 
ATOM      7  C   UNL     1       2.428   3.297  20.973  0.00  0.00    +0.000 C 
ENDROOT
BRANCH   3   8
ATOM      8  C   UNL     1       1.959   8.398  18.218  0.00  0.00    +0.000 C 
ATOM      9  O   UNL     1       2.633   8.626  17.220  0.00  0.00    +0.000 OA
ATOM     10  N   UNL     1       1.088   9.307  18.782  0.00  0.00    +0.000 N 
ATOM     11  H   UNL     1       0.738   9.141  19.714  0.00  0.00    +0.000 HD
BRANCH  10  12
ATOM     12  C   UNL     1       0.839  10.607  18.203  0.00  0.00    +0.000 C 
BRANCH  12  13
ATOM     13  C   UNL     1       1.441  11.717  19.013  0.00  0.00    +0.000 A 
ATOM     14  C   UNL     1       2.314  12.658  18.458  0.00  0.00    +0.000 A 
ATOM     15  C   UNL     1       2.855  13.656  19.264  0.00  0.00    +0.000 A 
ATOM     16  C   UNL     1       2.500  13.686  20.602  0.00  0.00    +0.000 A 
ATOM     17  N   UNL     1       1.652  12.804  21.171  0.00  0.00    +0.000 NA
ATOM     18  C   UNL     1       1.138  11.846  20.365  0.00  0.00    +0.000 A 
ENDBRANCH  12  13
ENDBRANCH  10  12
ENDBRANCH   3   8
BRANCH   1  19
ATOM     19  S   UNL     1       2.628   3.188  17.850  0.00  0.00    +0.000 S 
ATOM     20  O   UNL     1       2.237   3.522  16.493  0.00  0.00    +0.000 OA
ATOM     21  O   UNL     1       2.014   2.094  18.570  0.00  0.00    +0.000 OA
BRANCH  19  22
ATOM     22  N   UNL     1       4.302   2.973  17.786  0.00  0.00    +0.000 N 
ATOM     23  H   UNL     1       4.583   2.243  18.443  0.00  0.00    +0.000 HD
BRANCH  22  28
ATOM     24  C   UNL     1       7.702   7.577  17.575  0.00  0.00    +0.000 C 
ATOM     25  C   UNL     1       6.803   6.380  17.666  0.00  0.00    +0.000 A 
ATOM     26  C   UNL     1       6.599   5.702  18.875  0.00  0.00    +0.000 A 
ATOM     27  C   UNL     1       5.763   4.582  18.925  0.00  0.00    +0.000 A 
ATOM     28  C   UNL     1       5.131   4.133  17.764  0.00  0.00    +0.000 A 
ATOM     29  C   UNL     1       5.317   4.809  16.564  0.00  0.00    +0.000 A 
ATOM     30  C   UNL     1       6.151   5.924  16.512  0.00  0.00    +0.000 A 
ENDBRANCH  22  28
ENDBRANCH  19  22
ENDBRANCH   1  19
TORSDOF 6
ENDMDL
MODEL 5
REMARK VINA RESULT:      -8.1      0.709      1.133
REMARK  Name = 
REMARK  8 active torsions:
REMARK  status: ('A' for Active; 'I' for Inactive)
REMARK    1  A    between atoms: C_1  and  C_2
REMARK    2  A    between atoms: C_5  and  N_6
REMARK    3  A    between atoms: N_6  and  S_7
REMARK    4  A    between atoms: S_7  and  C_10
REMARK    5  A    between atoms: C_12  and  C_13
REMARK    6  A    between atoms: N_15  and  C_16
REMARK    7  A    between atoms: C_16  and  C_17
REMARK    8  A    between atoms: C_25  and  C_26
REMARK                            x       y       z     vdW  Elec       q    Type
REMARK                         _______ _______ _______ _____ _____    ______ ____
ROOT
ATOM      1  C   UNL     1       2.458   4.493  18.845  0.00  0.00    +0.000 A 
ATOM      2  C   UNL     1       2.321   5.752  18.237  0.00  0.00    +0.000 A 
ATOM      3  C   UNL     1       2.147   6.896  19.025  0.00  0.00    +0.000 A 
ATOM      4  C   UNL     1       2.035   6.770  20.411  0.00  0.00    +0.000 A 
ATOM      5  C   UNL     1       2.149   5.518  21.015  0.00  0.00    +0.000 A 
ATOM      6  C   UNL     1       2.374   4.365  20.247  0.00  0.00    +0.000 A 
ATOM      7  C   UNL     1       2.496   3.044  20.959  0.00  0.00    +0.000 C 
ENDROOT
BRANCH   3   8
ATOM      8  C   UNL     1       2.049   8.232  18.368  0.00  0.00    +0.000 C 
ATOM      9  O   UNL     1       2.571   8.428  17.278  0.00  0.00    +0.000 OA
ATOM     10  N   UNL     1       1.364   9.197  19.078  0.00  0.00    +0.000 N 
ATOM     11  H   UNL     1       1.154   9.037  20.052  0.00  0.00    +0.000 HD
BRANCH  10  12
ATOM     12  C   UNL     1       1.141  10.529  18.563  0.00  0.00    +0.000 C 
BRANCH  12  13
ATOM     13  C   UNL     1      -0.073  11.176  19.162  0.00  0.00    +0.000 A 
ATOM     14  C   UNL     1      -0.210  11.374  20.540  0.00  0.00    +0.000 A 
ATOM     15  C   UNL     1      -1.367  11.965  21.039  0.00  0.00    +0.000 A 
ATOM     16  C   UNL     1      -2.351  12.346  20.142  0.00  0.00    +0.000 A 
ATOM     17  N   UNL     1      -2.251  12.184  18.807  0.00  0.00    +0.000 NA
ATOM     18  C   UNL     1      -1.114  11.610  18.347  0.00  0.00    +0.000 A 
ENDBRANCH  12  13
ENDBRANCH  10  12
ENDBRANCH   3   8
BRANCH   1  19
ATOM     19  S   UNL     1       2.707   3.036  17.835  0.00  0.00    +0.000 S 
ATOM     20  O   UNL     1       2.301   3.408  16.492  0.00  0.00    +0.000 OA
ATOM     21  O   UNL     1       2.107   1.917  18.527  0.00  0.00    +0.000 OA
BRANCH  19  22
ATOM     22  N   UNL     1       4.383   2.834  17.748  0.00  0.00    +0.000 N 
ATOM     23  H   UNL     1       4.683   2.137  18.432  0.00  0.00    +0.000 HD
BRANCH  22  28
ATOM     24  C   UNL     1       7.587   7.574  17.516  0.00  0.00    +0.000 C 
ATOM     25  C   UNL     1       6.759   6.324  17.542  0.00  0.00    +0.000 A 
ATOM     26  C   UNL     1       6.167   5.809  16.381  0.00  0.00    +0.000 A 
ATOM     27  C   UNL     1       5.390   4.648  16.439  0.00  0.00    +0.000 A 
ATOM     28  C   UNL     1       5.199   3.999  17.660  0.00  0.00    +0.000 A 
ATOM     29  C   UNL     1       5.795   4.496  18.814  0.00  0.00    +0.000 A 
ATOM     30  C   UNL     1       6.568   5.654  18.757  0.00  0.00    +0.000 A 
ENDBRANCH  22  28
ENDBRANCH  19  22
ENDBRANCH   1  19
TORSDOF 6
ENDMDL
MODEL 6
REMARK VINA RESULT:      -8.0      1.745      2.048
REMARK  Name = 
REMARK  8 active torsions:
REMARK  status: ('A' for Active; 'I' for Inactive)
REMARK    1  A    between atoms: C_1  and  C_2
REMARK    2  A    between atoms: C_5  and  N_6
REMARK    3  A    between atoms: N_6  and  S_7
REMARK    4  A    between atoms: S_7  and  C_10
REMARK    5  A    between atoms: C_12  and  C_13
REMARK    6  A    between atoms: N_15  and  C_16
REMARK    7  A    between atoms: C_16  and  C_17
REMARK    8  A    between atoms: C_25  and  C_26
REMARK                            x       y       z     vdW  Elec       q    Type
REMARK                         _______ _______ _______ _____ _____    ______ ____
ROOT
ATOM      1  C   UNL     1       3.165   4.304  19.442  0.00  0.00    +0.000 A 
ATOM      2  C   UNL     1       3.128   5.514  18.730  0.00  0.00    +0.000 A 
ATOM      3  C   UNL     1       2.398   6.599  19.230  0.00  0.00    +0.000 A 
ATOM      4  C   UNL     1       1.647   6.449  20.398  0.00  0.00    +0.000 A 
ATOM      5  C   UNL     1       1.665   5.241  21.095  0.00  0.00    +0.000 A 
ATOM      6  C   UNL     1       2.431   4.156  20.638  0.00  0.00    +0.000 A 
ATOM      7  C   UNL     1       2.416   2.882  21.439  0.00  0.00    +0.000 C 
ENDROOT
BRANCH   3   8
ATOM      8  C   UNL     1       2.404   7.893  18.487  0.00  0.00    +0.000 C 
ATOM      9  O   UNL     1       3.157   8.060  17.535  0.00  0.00    +0.000 OA
ATOM     10  N   UNL     1       1.536   8.857  18.959  0.00  0.00    +0.000 N 
ATOM     11  H   UNL     1       1.112   8.736  19.867  0.00  0.00    +0.000 HD
BRANCH  10  12
ATOM     12  C   UNL     1       1.388  10.147  18.325  0.00  0.00    +0.000 C 
BRANCH  12  13
ATOM     13  C   UNL     1       0.978  11.215  19.295  0.00  0.00    +0.000 A 
ATOM     14  C   UNL     1       0.731  12.532  18.895  0.00  0.00    +0.000 A 
ATOM     15  C   UNL     1       0.370  13.484  19.845  0.00  0.00    +0.000 A 
ATOM     16  C   UNL     1       0.260  13.087  21.166  0.00  0.00    +0.000 A 
ATOM     17  N   UNL     1       0.477  11.825  21.589  0.00  0.00    +0.000 NA
ATOM     18  C   UNL     1       0.824  10.918  20.646  0.00  0.00    +0.000 A 
ENDBRANCH  12  13
ENDBRANCH  10  12
ENDBRANCH   3   8
BRANCH   1  19
ATOM     19  S   UNL     1       4.122   2.927  18.814  0.00  0.00    +0.000 S 
ATOM     20  O   UNL     1       3.156   1.941  18.368  0.00  0.00    +0.000 OA
ATOM     21  O   UNL     1       5.130   2.610  19.801  0.00  0.00    +0.000 OA
BRANCH  19  22
ATOM     22  N   UNL     1       4.853   3.498  17.402  0.00  0.00    +0.000 N 
ATOM     23  H   UNL     1       5.250   2.717  16.877  0.00  0.00    +0.000 HD
BRANCH  22  28
ATOM     24  C   UNL     1       8.130   8.167  17.908  0.00  0.00    +0.000 C 
ATOM     25  C   UNL     1       7.270   6.951  17.738  0.00  0.00    +0.000 A 
ATOM     26  C   UNL     1       6.286   6.878  16.743  0.00  0.00    +0.000 A 
ATOM     27  C   UNL     1       5.492   5.734  16.617  0.00  0.00    +0.000 A 
ATOM     28  C   UNL     1       5.675   4.660  17.490  0.00  0.00    +0.000 A 
ATOM     29  C   UNL     1       6.659   4.720  18.471  0.00  0.00    +0.000 A 
ATOM     30  C   UNL     1       7.450   5.859  18.598  0.00  0.00    +0.000 A 
ENDBRANCH  22  28
ENDBRANCH  19  22
ENDBRANCH   1  19
TORSDOF 6
ENDMDL
MODEL 7
REMARK VINA RESULT:      -8.0      0.854      1.419
REMARK  Name = 
REMARK  8 active torsions:
REMARK  status: ('A' for Active; 'I' for Inactive)
REMARK    1  A    between atoms: C_1  and  C_2
REMARK    2  A    between atoms: C_5  and  N_6
REMARK    3  A    between atoms: N_6  and  S_7
REMARK    4  A    between atoms: S_7  and  C_10
REMARK    5  A    between atoms: C_12  and  C_13
REMARK    6  A    between atoms: N_15  and  C_16
REMARK    7  A    between atoms: C_16  and  C_17
REMARK    8  A    between atoms: C_25  and  C_26
REMARK                            x       y       z     vdW  Elec       q    Type
REMARK                         _______ _______ _______ _____ _____    ______ ____
ROOT
ATOM      1  C   UNL     1       2.773   4.526  18.868  0.00  0.00    +0.000 A 
ATOM      2  C   UNL     1       2.616   5.791  18.278  0.00  0.00    +0.000 A 
ATOM      3  C   UNL     1       2.182   6.875  19.049  0.00  0.00    +0.000 A 
ATOM      4  C   UNL     1       1.834   6.677  20.387  0.00  0.00    +0.000 A 
ATOM      5  C   UNL     1       1.968   5.417  20.969  0.00  0.00    +0.000 A 
ATOM      6  C   UNL     1       2.450   4.327  20.226  0.00  0.00    +0.000 A 
ATOM      7  C   UNL     1       2.580   2.994  20.915  0.00  0.00    +0.000 C 
ENDROOT
BRANCH   3   8
ATOM      8  C   UNL     1       2.064   8.224  18.420  0.00  0.00    +0.000 C 
ATOM      9  O   UNL     1       2.595   8.454  17.341  0.00  0.00    +0.000 OA
ATOM     10  N   UNL     1       1.350   9.158  19.142  0.00  0.00    +0.000 N 
ATOM     11  H   UNL     1       1.131   8.972  20.110  0.00  0.00    +0.000 HD
BRANCH  10  12
ATOM     12  C   UNL     1       1.105  10.496  18.653  0.00  0.00    +0.000 C 
BRANCH  12  13
ATOM     13  C   UNL     1      -0.359  10.801  18.538  0.00  0.00    +0.000 A 
ATOM     14  C   UNL     1      -0.970  11.818  19.279  0.00  0.00    +0.000 A 
ATOM     15  C   UNL     1      -2.337  12.044  19.141  0.00  0.00    +0.000 A 
ATOM     16  C   UNL     1      -3.051  11.249  18.261  0.00  0.00    +0.000 A 
ATOM     17  N   UNL     1      -2.496  10.268  17.519  0.00  0.00    +0.000 NA
ATOM     18  C   UNL     1      -1.165  10.071  17.669  0.00  0.00    +0.000 A 
ENDBRANCH  12  13
ENDBRANCH  10  12
ENDBRANCH   3   8
BRANCH   1  19
ATOM     19  S   UNL     1       3.354   3.147  17.884  0.00  0.00    +0.000 S 
ATOM     20  O   UNL     1       2.191   2.644  17.177  0.00  0.00    +0.000 OA
ATOM     21  O   UNL     1       4.144   2.297  18.748  0.00  0.00    +0.000 OA
BRANCH  19  22
ATOM     22  N   UNL     1       4.335   3.832  16.690  0.00  0.00    +0.000 N 
ATOM     23  H   UNL     1       4.699   3.099  16.080  0.00  0.00    +0.000 HD
BRANCH  22  28
ATOM     24  C   UNL     1       8.140   7.870  18.108  0.00  0.00    +0.000 C 
ATOM     25  C   UNL     1       7.145   6.800  17.772  0.00  0.00    +0.000 A 
ATOM     26  C   UNL     1       7.168   5.549  18.403  0.00  0.00    +0.000 A 
ATOM     27  C   UNL     1       6.234   4.567  18.060  0.00  0.00    +0.000 A 
ATOM     28  C   UNL     1       5.275   4.830  17.080  0.00  0.00    +0.000 A 
ATOM     29  C   UNL     1       5.237   6.074  16.460  0.00  0.00    +0.000 A 
ATOM     30  C   UNL     1       6.168   7.053  16.800  0.00  0.00    +0.000 A 
ENDBRANCH  22  28
ENDBRANCH  19  22
ENDBRANCH   1  19
TORSDOF 6
ENDMDL
MODEL 8
REMARK VINA RESULT:      -7.8      1.745      2.334
REMARK  Name = 
REMARK  8 active torsions:
REMARK  status: ('A' for Active; 'I' for Inactive)
REMARK    1  A    between atoms: C_1  and  C_2
REMARK    2  A    between atoms: C_5  and  N_6
REMARK    3  A    between atoms: N_6  and  S_7
REMARK    4  A    between atoms: S_7  and  C_10
REMARK    5  A    between atoms: C_12  and  C_13
REMARK    6  A    between atoms: N_15  and  C_16
REMARK    7  A    between atoms: C_16  and  C_17
REMARK    8  A    between atoms: C_25  and  C_26
REMARK                            x       y       z     vdW  Elec       q    Type
REMARK                         _______ _______ _______ _____ _____    ______ ____
ROOT
ATOM      1  C   UNL     1       3.282   4.592  18.698  0.00  0.00    +0.000 A 
ATOM      2  C   UNL     1       2.916   5.913  18.391  0.00  0.00    +0.000 A 
ATOM      3  C   UNL     1       2.316   6.719  19.364  0.00  0.00    +0.000 A 
ATOM      4  C   UNL     1       2.014   6.181  20.618  0.00  0.00    +0.000 A 
ATOM      5  C   UNL     1       2.357   4.863  20.918  0.00  0.00    +0.000 A 
ATOM      6  C   UNL     1       3.006   4.053  19.972  0.00  0.00    +0.000 A 
ATOM      7  C   UNL     1       3.358   2.642  20.361  0.00  0.00    +0.000 C 
ENDROOT
BRANCH   3   8
ATOM      8  C   UNL     1       1.973   8.134  19.038  0.00  0.00    +0.000 C 
ATOM      9  O   UNL     1       2.432   8.669  18.036  0.00  0.00    +0.000 OA
ATOM     10  N   UNL     1       1.144   8.771  19.939  0.00  0.00    +0.000 N 
ATOM     11  H   UNL     1       0.984   8.352  20.843  0.00  0.00    +0.000 HD
BRANCH  10  12
ATOM     12  C   UNL     1       0.682  10.126  19.746  0.00  0.00    +0.000 C 
BRANCH  12  13
ATOM     13  C   UNL     1      -0.139  10.619  20.900  0.00  0.00    +0.000 A 
ATOM     14  C   UNL     1      -0.130   9.984  22.147  0.00  0.00    +0.000 A 
ATOM     15  C   UNL     1      -0.927  10.477  23.177  0.00  0.00    +0.000 A 
ATOM     16  C   UNL     1      -1.703  11.596  22.930  0.00  0.00    +0.000 A 
ATOM     17  N   UNL     1      -1.729  12.244  21.747  0.00  0.00    +0.000 NA
ATOM     18  C   UNL     1      -0.943  11.746  20.763  0.00  0.00    +0.000 A 
ENDBRANCH  12  13
ENDBRANCH  10  12
ENDBRANCH   3   8
BRANCH   1  19
ATOM     19  S   UNL     1       4.076   3.573  17.458  0.00  0.00    +0.000 S 
ATOM     20  O   UNL     1       3.935   4.290  16.205  0.00  0.00    +0.000 OA
ATOM     21  O   UNL     1       3.581   2.224  17.621  0.00  0.00    +0.000 OA
BRANCH  19  22
ATOM     22  N   UNL     1       5.725   3.633  17.818  0.00  0.00    +0.000 N 
ATOM     23  H   UNL     1       5.935   2.998  18.591  0.00  0.00    +0.000 HD
BRANCH  22  28
ATOM     24  C   UNL     1       8.288   8.753  17.941  0.00  0.00    +0.000 C 
ATOM     25  C   UNL     1       7.618   7.412  17.946  0.00  0.00    +0.000 A 
ATOM     26  C   UNL     1       7.878   6.463  18.944  0.00  0.00    +0.000 A 
ATOM     27  C   UNL     1       7.246   5.216  18.916  0.00  0.00    +0.000 A 
ATOM     28  C   UNL     1       6.354   4.911  17.886  0.00  0.00    +0.000 A 
ATOM     29  C   UNL     1       6.081   5.853  16.900  0.00  0.00    +0.000 A 
ATOM     30  C   UNL     1       6.711   7.095  16.927  0.00  0.00    +0.000 A 
ENDBRANCH  22  28
ENDBRANCH  19  22
ENDBRANCH   1  19
TORSDOF 6
ENDMDL
MODEL 9
REMARK VINA RESULT:      -7.8      2.857      4.433
REMARK  Name = 
REMARK  8 active torsions:
REMARK  status: ('A' for Active; 'I' for Inactive)
REMARK    1  A    between atoms: C_1  and  C_2
REMARK    2  A    between atoms: C_5  and  N_6
REMARK    3  A    between atoms: N_6  and  S_7
REMARK    4  A    between atoms: S_7  and  C_10
REMARK    5  A    between atoms: C_12  and  C_13
REMARK    6  A    between atoms: N_15  and  C_16
REMARK    7  A    between atoms: C_16  and  C_17
REMARK    8  A    between atoms: C_25  and  C_26
REMARK                            x       y       z     vdW  Elec       q    Type
REMARK                         _______ _______ _______ _____ _____    ______ ____
ROOT
ATOM      1  C   UNL     1       4.791   6.177  18.362  0.00  0.00    +0.000 A 
ATOM      2  C   UNL     1       3.941   6.291  19.473  0.00  0.00    +0.000 A 
ATOM      3  C   UNL     1       2.724   6.973  19.358  0.00  0.00    +0.000 A 
ATOM      4  C   UNL     1       2.396   7.603  18.156  0.00  0.00    +0.000 A 
ATOM      5  C   UNL     1       3.250   7.510  17.057  0.00  0.00    +0.000 A 
ATOM      6  C   UNL     1       4.451   6.787  17.136  0.00  0.00    +0.000 A 
ATOM      7  C   UNL     1       5.325   6.716  15.913  0.00  0.00    +0.000 C 
ENDROOT
BRANCH   3   8
ATOM      8  C   UNL     1       1.809   7.048  20.535  0.00  0.00    +0.000 C 
ATOM      9  O   UNL     1       1.337   6.028  21.020  0.00  0.00    +0.000 OA
ATOM     10  N   UNL     1       1.534   8.319  20.997  0.00  0.00    +0.000 N 
ATOM     11  H   UNL     1       1.773   9.115  20.425  0.00  0.00    +0.000 HD
BRANCH  10  12
ATOM     12  C   UNL     1       0.703   8.561  22.154  0.00  0.00    +0.000 C 
BRANCH  12  13
ATOM     13  C   UNL     1      -0.136   9.796  22.005  0.00  0.00    +0.000 A 
ATOM     14  C   UNL     1      -0.303  10.441  20.775  0.00  0.00    +0.000 A 
ATOM     15  C   UNL     1      -1.080  11.593  20.701  0.00  0.00    +0.000 A 
ATOM     16  C   UNL     1      -1.673  12.063  21.860  0.00  0.00    +0.000 A 
ATOM     17  N   UNL     1      -1.547  11.462  23.062  0.00  0.00    +0.000 NA
ATOM     18  C   UNL     1      -0.789  10.342  23.106  0.00  0.00    +0.000 A 
ENDBRANCH  12  13
ENDBRANCH  10  12
ENDBRANCH   3   8
BRANCH   1  19
ATOM     19  S   UNL     1       6.334   5.279  18.505  0.00  0.00    +0.000 S 
ATOM     20  O   UNL     1       6.695   5.331  19.910  0.00  0.00    +0.000 OA
ATOM     21  O   UNL     1       7.222   5.769  17.475  0.00  0.00    +0.000 OA
BRANCH  19  22
ATOM     22  N   UNL     1       5.940   3.663  18.211  0.00  0.00    +0.000 N 
ATOM     23  H   UNL     1       6.376   3.352  17.341  0.00  0.00    +0.000 HD
BRANCH  22  28
ATOM     24  C   UNL     1       0.460   2.144  18.890  0.00  0.00    +0.000 C 
ATOM     25  C   UNL     1       1.904   2.517  18.739  0.00  0.00    +0.000 A 
ATOM     26  C   UNL     1       2.787   2.495  19.827  0.00  0.00    +0.000 A 
ATOM     27  C   UNL     1       4.126   2.860  19.657  0.00  0.00    +0.000 A 
ATOM     28  C   UNL     1       4.587   3.253  18.399  0.00  0.00    +0.000 A 
ATOM     29  C   UNL     1       3.719   3.265  17.313  0.00  0.00    +0.000 A 
ATOM     30  C   UNL     1       2.385   2.903  17.481  0.00  0.00    +0.000 A 
ENDBRANCH  22  28
ENDBRANCH  19  22
ENDBRANCH   1  19
TORSDOF 6
ENDMDL
