MODEL 1
REMARK VINA RESULT:      -7.8      0.000      0.000
REMARK  Name = 
REMARK  7 active torsions:
REMARK  status: ('A' for Active; 'I' for Inactive)
REMARK    1  A    between atoms: C_2  and  S_3
REMARK    2  A    between atoms: C_2  and  C_15
REMARK    3  A    between atoms: S_3  and  C_4
REMARK    4  A    between atoms: C_4  and  C_5
REMARK    5  A    between atoms: C_4  and  C_12
REMARK    6  A    between atoms: C_5  and  C_6
REMARK    7  A    between atoms: C_12  and  O_14
REMARK                            x       y       z     vdW  Elec       q    Type
REMARK                         _______ _______ _______ _____ _____    ______ ____
ROOT
ATOM      1  C   UNL     1       4.639   5.226  17.488  0.00  0.00    +0.000 C 
ENDROOT
BRANCH   1   2
ATOM      2  C   UNL     1       5.433   4.831  18.736  0.00  0.00    +0.000 C 
ATOM      3  O   UNL     1       5.662   5.591  19.668  0.00  0.00    +0.000 OA
BRANCH   2   4
ATOM      4  O   UNL     1       5.809   3.530  18.794  0.00  0.00    +0.000 OA
ATOM      5  H   UNL     1       6.723   3.440  19.138  0.00  0.00    +0.000 HD
ENDBRANCH   2   4
ENDBRANCH   1   2
BRANCH   1   6
ATOM      6  S   UNL     1       5.623   6.376  16.432  0.00  0.00    +0.000 S 
BRANCH   6   8
ATOM      7  O   UNL     1       7.764   4.897  16.656  0.00  0.00    +0.000 OA
ATOM      8  C   UNL     1       6.884   5.276  15.893  0.00  0.00    +0.000 C 
BRANCH   8   9
ATOM      9  C   UNL     1       6.800   4.778  14.493  0.00  0.00    +0.000 A 
ATOM     10  C   UNL     1       5.765   3.886  14.171  0.00  0.00    +0.000 A 
ATOM     11  C   UNL     1       5.637   3.398  12.869  0.00  0.00    +0.000 A 
ATOM     12  C   UNL     1       6.544   3.787  11.884  0.00  0.00    +0.000 A 
ATOM     13  C   UNL     1       7.577   4.671  12.198  0.00  0.00    +0.000 A 
ATOM     14  C   UNL     1       7.705   5.169  13.496  0.00  0.00    +0.000 A 
ENDBRANCH   8   9
ENDBRANCH   6   8
ENDBRANCH   1   6
BRANCH   1  15
ATOM     15  C   UNL     1       3.229   5.732  17.860  0.00  0.00    +0.000 C 
BRANCH  15  16
ATOM     16  C   UNL     1       2.334   4.767  18.606  0.00  0.00    +0.000 A 
ATOM     17  C   UNL     1       1.838   3.609  17.991  0.00  0.00    +0.000 A 
ATOM     18  C   UNL     1       1.017   2.725  18.692  0.00  0.00    +0.000 A 
ATOM     19  C   UNL     1       0.698   2.979  20.024  0.00  0.00    +0.000 A 
ATOM     20  C   UNL     1       1.199   4.116  20.653  0.00  0.00    +0.000 A 
ATOM     21  C   UNL     1       2.009   5.006  19.948  0.00  0.00    +0.000 A 
ENDBRANCH  15  16
ENDBRANCH   1  15
TORSDOF 7
ENDMDL
MODEL 2
REMARK VINA RESULT:      -7.5      0.212      1.287
REMARK  Name = 
REMARK  7 active torsions:
REMARK  status: ('A' for Active; 'I' for Inactive)
REMARK    1  A    between atoms: C_2  and  S_3
REMARK    2  A    between atoms: C_2  and  C_15
REMARK    3  A    between atoms: S_3  and  C_4
REMARK    4  A    between atoms: C_4  and  C_5
REMARK    5  A    between atoms: C_4  and  C_12
REMARK    6  A    between atoms: C_5  and  C_6
REMARK    7  A    between atoms: C_12  and  O_14
REMARK                            x       y       z     vdW  Elec       q    Type
REMARK                         _______ _______ _______ _____ _____    ______ ____
ROOT
ATOM      1  C   UNL     1       4.547   5.177  17.484  0.00  0.00    +0.000 C 
ENDROOT
BRANCH   1   2
ATOM      2  C   UNL     1       5.319   4.724  18.726  0.00  0.00    +0.000 C 
ATOM      3  O   UNL     1       5.369   3.562  19.113  0.00  0.00    +0.000 OA
BRANCH   2   4
ATOM      4  O   UNL     1       6.034   5.692  19.349  0.00  0.00    +0.000 OA
ATOM      5  H   UNL     1       6.051   6.517  18.820  0.00  0.00    +0.000 HD
ENDBRANCH   2   4
ENDBRANCH   1   2
BRANCH   1   6
ATOM      6  S   UNL     1       5.536   6.400  16.519  0.00  0.00    +0.000 S 
BRANCH   6   8
ATOM      7  O   UNL     1       7.752   5.041  16.772  0.00  0.00    +0.000 OA
ATOM      8  C   UNL     1       6.860   5.367  15.999  0.00  0.00    +0.000 C 
BRANCH   8   9
ATOM      9  C   UNL     1       6.816   4.856  14.602  0.00  0.00    +0.000 A 
ATOM     10  C   UNL     1       5.796   3.955  14.261  0.00  0.00    +0.000 A 
ATOM     11  C   UNL     1       5.706   3.455  12.960  0.00  0.00    +0.000 A 
ATOM     12  C   UNL     1       6.636   3.841  11.996  0.00  0.00    +0.000 A 
ATOM     13  C   UNL     1       7.655   4.735  12.330  0.00  0.00    +0.000 A 
ATOM     14  C   UNL     1       7.745   5.244  13.626  0.00  0.00    +0.000 A 
ENDBRANCH   8   9
ENDBRANCH   6   8
ENDBRANCH   1   6
BRANCH   1  15
ATOM     15  C   UNL     1       3.120   5.638  17.849  0.00  0.00    +0.000 C 
BRANCH  15  16
ATOM     16  C   UNL     1       2.268   4.661  18.628  0.00  0.00    +0.000 A 
ATOM     17  C   UNL     1       1.949   4.886  19.975  0.00  0.00    +0.000 A 
ATOM     18  C   UNL     1       1.158   3.979  20.681  0.00  0.00    +0.000 A 
ATOM     19  C   UNL     1       0.658   2.846  20.043  0.00  0.00    +0.000 A 
ATOM     20  C   UNL     1       0.951   2.621  18.701  0.00  0.00    +0.000 A 
ATOM     21  C   UNL     1       1.753   3.521  17.999  0.00  0.00    +0.000 A 
ENDBRANCH  15  16
ENDBRANCH   1  15
TORSDOF 7
ENDMDL
MODEL 3
REMARK VINA RESULT:      -7.5      2.920      5.827
REMARK  Name = 
REMARK  7 active torsions:
REMARK  status: ('A' for Active; 'I' for Inactive)
REMARK    1  A    between atoms: C_2  and  S_3
REMARK    2  A    between atoms: C_2  and  C_15
REMARK    3  A    between atoms: S_3  and  C_4
REMARK    4  A    between atoms: C_4  and  C_5
REMARK    5  A    between atoms: C_4  and  C_12
REMARK    6  A    between atoms: C_5  and  C_6
REMARK    7  A    between atoms: C_12  and  O_14
REMARK                            x       y       z     vdW  Elec       q    Type
REMARK                         _______ _______ _______ _____ _____    ______ ____
ROOT
ATOM      1  C   UNL     1       4.999   6.315  17.856  0.00  0.00    +0.000 C 
ENDROOT
BRANCH   1   2
ATOM      2  C   UNL     1       5.879   6.628  16.644  0.00  0.00    +0.000 C 
ATOM      3  O   UNL     1       5.567   6.370  15.488  0.00  0.00    +0.000 OA
BRANCH   2   4
ATOM      4  O   UNL     1       7.023   7.304  16.918  0.00  0.00    +0.000 OA
ATOM      5  H   UNL     1       7.315   7.833  16.146  0.00  0.00    +0.000 HD
ENDBRANCH   2   4
ENDBRANCH   1   2
BRANCH   1   6
ATOM      6  S   UNL     1       5.513   4.723  18.636  0.00  0.00    +0.000 S 
BRANCH   6   8
ATOM      7  O   UNL     1       4.126   3.213  17.018  0.00  0.00    +0.000 OA
ATOM      8  C   UNL     1       4.170   3.703  18.139  0.00  0.00    +0.000 C 
BRANCH   8   9
ATOM      9  C   UNL     1       3.125   3.411  19.158  0.00  0.00    +0.000 A 
ATOM     10  C   UNL     1       3.543   3.027  20.441  0.00  0.00    +0.000 A 
ATOM     11  C   UNL     1       2.601   2.753  21.434  0.00  0.00    +0.000 A 
ATOM     12  C   UNL     1       1.239   2.848  21.152  0.00  0.00    +0.000 A 
ATOM     13  C   UNL     1       0.816   3.226  19.878  0.00  0.00    +0.000 A 
ATOM     14  C   UNL     1       1.753   3.510  18.883  0.00  0.00    +0.000 A 
ENDBRANCH   8   9
ENDBRANCH   6   8
ENDBRANCH   1   6
BRANCH   1  15
ATOM     15  C   UNL     1       3.500   6.408  17.498  0.00  0.00    +0.000 C 
BRANCH  15  16
ATOM     16  C   UNL     1       2.655   7.335  18.342  0.00  0.00    +0.000 A 
ATOM     17  C   UNL     1       2.384   7.052  19.689  0.00  0.00    +0.000 A 
ATOM     18  C   UNL     1       1.606   7.918  20.457  0.00  0.00    +0.000 A 
ATOM     19  C   UNL     1       1.106   9.090  19.894  0.00  0.00    +0.000 A 
ATOM     20  C   UNL     1       1.382   9.393  18.564  0.00  0.00    +0.000 A 
ATOM     21  C   UNL     1       2.149   8.521  17.792  0.00  0.00    +0.000 A 
ENDBRANCH  15  16
ENDBRANCH   1  15
TORSDOF 7
ENDMDL
MODEL 4
REMARK VINA RESULT:      -7.4      3.314      5.776
REMARK  Name = 
REMARK  7 active torsions:
REMARK  status: ('A' for Active; 'I' for Inactive)
REMARK    1  A    between atoms: C_2  and  S_3
REMARK    2  A    between atoms: C_2  and  C_15
REMARK    3  A    between atoms: S_3  and  C_4
REMARK    4  A    between atoms: C_4  and  C_5
REMARK    5  A    between atoms: C_4  and  C_12
REMARK    6  A    between atoms: C_5  and  C_6
REMARK    7  A    between atoms: C_12  and  O_14
REMARK                            x       y       z     vdW  Elec       q    Type
REMARK                         _______ _______ _______ _____ _____    ______ ____
ROOT
ATOM      1  C   UNL     1       4.521   4.883  18.096  0.00  0.00    +0.000 C 
ENDROOT
BRANCH   1   2
ATOM      2  C   UNL     1       5.941   4.776  18.659  0.00  0.00    +0.000 C 
ATOM      3  O   UNL     1       6.273   5.200  19.759  0.00  0.00    +0.000 OA
BRANCH   2   4
ATOM      4  O   UNL     1       6.820   4.092  17.886  0.00  0.00    +0.000 OA
ATOM      5  H   UNL     1       6.622   3.132  17.888  0.00  0.00    +0.000 HD
ENDBRANCH   2   4
ENDBRANCH   1   2
BRANCH   1   6
ATOM      6  S   UNL     1       4.195   3.516  16.899  0.00  0.00    +0.000 S 
BRANCH   6   8
ATOM      7  O   UNL     1       4.023   1.107  17.893  0.00  0.00    +0.000 OA
ATOM      8  C   UNL     1       3.656   2.268  18.015  0.00  0.00    +0.000 C 
BRANCH   8   9
ATOM      9  C   UNL     1       2.787   2.696  19.146  0.00  0.00    +0.000 A 
ATOM     10  C   UNL     1       3.276   2.533  20.451  0.00  0.00    +0.000 A 
ATOM     11  C   UNL     1       2.503   2.928  21.545  0.00  0.00    +0.000 A 
ATOM     12  C   UNL     1       1.238   3.478  21.346  0.00  0.00    +0.000 A 
ATOM     13  C   UNL     1       0.746   3.641  20.051  0.00  0.00    +0.000 A 
ATOM     14  C   UNL     1       1.516   3.256  18.953  0.00  0.00    +0.000 A 
ENDBRANCH   8   9
ENDBRANCH   6   8
ENDBRANCH   1   6
BRANCH   1  15
ATOM     15  C   UNL     1       4.238   6.301  17.556  0.00  0.00    +0.000 C 
BRANCH  15  16
ATOM     16  C   UNL     1       3.199   7.116  18.294  0.00  0.00    +0.000 A 
ATOM     17  C   UNL     1       2.758   6.748  19.573  0.00  0.00    +0.000 A 
ATOM     18  C   UNL     1       1.802   7.511  20.244  0.00  0.00    +0.000 A 
ATOM     19  C   UNL     1       1.291   8.664  19.653  0.00  0.00    +0.000 A 
ATOM     20  C   UNL     1       1.735   9.052  18.392  0.00  0.00    +0.000 A 
ATOM     21  C   UNL     1       2.680   8.281  17.715  0.00  0.00    +0.000 A 
ENDBRANCH  15  16
ENDBRANCH   1  15
TORSDOF 7
ENDMDL
MODEL 5
REMARK VINA RESULT:      -7.4      3.047      5.805
REMARK  Name = 
REMARK  7 active torsions:
REMARK  status: ('A' for Active; 'I' for Inactive)
REMARK    1  A    between atoms: C_2  and  S_3
REMARK    2  A    between atoms: C_2  and  C_15
REMARK    3  A    between atoms: S_3  and  C_4
REMARK    4  A    between atoms: C_4  and  C_5
REMARK    5  A    between atoms: C_4  and  C_12
REMARK    6  A    between atoms: C_5  and  C_6
REMARK    7  A    between atoms: C_12  and  O_14
REMARK                            x       y       z     vdW  Elec       q    Type
REMARK                         _______ _______ _______ _____ _____    ______ ____
ROOT
ATOM      1  C   UNL     1       4.894   6.232  17.863  0.00  0.00    +0.000 C 
ENDROOT
BRANCH   1   2
ATOM      2  C   UNL     1       5.828   6.825  16.805  0.00  0.00    +0.000 C 
ATOM      3  O   UNL     1       6.911   7.337  17.060  0.00  0.00    +0.000 OA
BRANCH   2   4
ATOM      4  O   UNL     1       5.418   6.675  15.521  0.00  0.00    +0.000 OA
ATOM      5  H   UNL     1       5.784   5.856  15.126  0.00  0.00    +0.000 HD
ENDBRANCH   2   4
ENDBRANCH   1   2
BRANCH   1   6
ATOM      6  S   UNL     1       5.369   4.489  18.242  0.00  0.00    +0.000 S 
BRANCH   6   8
ATOM      7  O   UNL     1       3.504   3.348  16.812  0.00  0.00    +0.000 OA
ATOM      8  C   UNL     1       3.831   3.691  17.941  0.00  0.00    +0.000 C 
BRANCH   8   9
ATOM      9  C   UNL     1       2.975   3.397  19.123  0.00  0.00    +0.000 A 
ATOM     10  C   UNL     1       1.593   3.610  19.006  0.00  0.00    +0.000 A 
ATOM     11  C   UNL     1       0.747   3.339  20.083  0.00  0.00    +0.000 A 
ATOM     12  C   UNL     1       1.273   2.866  21.284  0.00  0.00    +0.000 A 
ATOM     13  C   UNL     1       2.647   2.655  21.408  0.00  0.00    +0.000 A 
ATOM     14  C   UNL     1       3.497   2.916  20.332  0.00  0.00    +0.000 A 
ENDBRANCH   8   9
ENDBRANCH   6   8
ENDBRANCH   1   6
BRANCH   1  15
ATOM     15  C   UNL     1       3.413   6.432  17.477  0.00  0.00    +0.000 C 
BRANCH  15  16
ATOM     16  C   UNL     1       2.609   7.387  18.331  0.00  0.00    +0.000 A 
ATOM     17  C   UNL     1       2.051   8.555  17.791  0.00  0.00    +0.000 A 
ATOM     18  C   UNL     1       1.308   9.424  18.590  0.00  0.00    +0.000 A 
ATOM     19  C   UNL     1       1.097   9.127  19.935  0.00  0.00    +0.000 A 
ATOM     20  C   UNL     1       1.630   7.962  20.479  0.00  0.00    +0.000 A 
ATOM     21  C   UNL     1       2.383   7.099  19.683  0.00  0.00    +0.000 A 
ENDBRANCH  15  16
ENDBRANCH   1  15
TORSDOF 7
ENDMDL
MODEL 6
REMARK VINA RESULT:      -7.3      1.195      6.449
REMARK  Name = 
REMARK  7 active torsions:
REMARK  status: ('A' for Active; 'I' for Inactive)
REMARK    1  A    between atoms: C_2  and  S_3
REMARK    2  A    between atoms: C_2  and  C_15
REMARK    3  A    between atoms: S_3  and  C_4
REMARK    4  A    between atoms: C_4  and  C_5
REMARK    5  A    between atoms: C_4  and  C_12
REMARK    6  A    between atoms: C_5  and  C_6
REMARK    7  A    between atoms: C_12  and  O_14
REMARK                            x       y       z     vdW  Elec       q    Type
REMARK                         _______ _______ _______ _____ _____    ______ ____
ROOT
ATOM      1  C   UNL     1       5.642   6.184  16.377  0.00  0.00    +0.000 C 
ENDROOT
BRANCH   1   2
ATOM      2  C   UNL     1       6.978   6.565  17.019  0.00  0.00    +0.000 C 
ATOM      3  O   UNL     1       7.372   7.718  17.144  0.00  0.00    +0.000 OA
BRANCH   2   4
ATOM      4  O   UNL     1       7.689   5.531  17.534  0.00  0.00    +0.000 OA
ATOM      5  H   UNL     1       7.860   4.845  16.855  0.00  0.00    +0.000 HD
ENDBRANCH   2   4
ENDBRANCH   1   2
BRANCH   1   6
ATOM      6  S   UNL     1       4.239   6.629  17.490  0.00  0.00    +0.000 S 
BRANCH   6   8
ATOM      7  O   UNL     1       5.357   5.199  19.368  0.00  0.00    +0.000 OA
ATOM      8  C   UNL     1       4.366   5.324  18.661  0.00  0.00    +0.000 C 
BRANCH   8   9
ATOM      9  C   UNL     1       3.192   4.418  18.799  0.00  0.00    +0.000 A 
ATOM     10  C   UNL     1       2.250   4.706  19.799  0.00  0.00    +0.000 A 
ATOM     11  C   UNL     1       1.127   3.892  19.961  0.00  0.00    +0.000 A 
ATOM     12  C   UNL     1       0.943   2.783  19.138  0.00  0.00    +0.000 A 
ATOM     13  C   UNL     1       1.877   2.489  18.144  0.00  0.00    +0.000 A 
ATOM     14  C   UNL     1       2.997   3.304  17.971  0.00  0.00    +0.000 A 
ENDBRANCH   8   9
ENDBRANCH   6   8
ENDBRANCH   1   6
BRANCH   1  15
ATOM     15  C   UNL     1       5.650   4.717  15.897  0.00  0.00    +0.000 C 
BRANCH  15  16
ATOM     16  C   UNL     1       6.133   4.465  14.486  0.00  0.00    +0.000 A 
ATOM     17  C   UNL     1       5.441   3.605  13.621  0.00  0.00    +0.000 A 
ATOM     18  C   UNL     1       5.896   3.385  12.321  0.00  0.00    +0.000 A 
ATOM     19  C   UNL     1       7.037   4.038  11.862  0.00  0.00    +0.000 A 
ATOM     20  C   UNL     1       7.723   4.910  12.703  0.00  0.00    +0.000 A 
ATOM     21  C   UNL     1       7.276   5.120  14.007  0.00  0.00    +0.000 A 
ENDBRANCH  15  16
ENDBRANCH   1  15
TORSDOF 7
ENDMDL
MODEL 7
REMARK VINA RESULT:      -7.3      1.215      6.464
REMARK  Name = 
REMARK  7 active torsions:
REMARK  status: ('A' for Active; 'I' for Inactive)
REMARK    1  A    between atoms: C_2  and  S_3
REMARK    2  A    between atoms: C_2  and  C_15
REMARK    3  A    between atoms: S_3  and  C_4
REMARK    4  A    between atoms: C_4  and  C_5
REMARK    5  A    between atoms: C_4  and  C_12
REMARK    6  A    between atoms: C_5  and  C_6
REMARK    7  A    between atoms: C_12  and  O_14
REMARK                            x       y       z     vdW  Elec       q    Type
REMARK                         _______ _______ _______ _____ _____    ______ ____
ROOT
ATOM      1  C   UNL     1       5.673   6.177  16.357  0.00  0.00    +0.000 C 
ENDROOT
BRANCH   1   2
ATOM      2  C   UNL     1       7.008   6.561  17.001  0.00  0.00    +0.000 C 
ATOM      3  O   UNL     1       7.419   7.711  17.086  0.00  0.00    +0.000 OA
BRANCH   2   4
ATOM      4  O   UNL     1       7.694   5.536  17.565  0.00  0.00    +0.000 OA
ATOM      5  H   UNL     1       7.459   5.429  18.510  0.00  0.00    +0.000 HD
ENDBRANCH   2   4
ENDBRANCH   1   2
BRANCH   1   6
ATOM      6  S   UNL     1       4.269   6.589  17.482  0.00  0.00    +0.000 S 
BRANCH   6   8
ATOM      7  O   UNL     1       5.370   5.122  19.343  0.00  0.00    +0.000 OA
ATOM      8  C   UNL     1       4.395   5.248  18.614  0.00  0.00    +0.000 C 
BRANCH   8   9
ATOM      9  C   UNL     1       3.240   4.313  18.690  0.00  0.00    +0.000 A 
ATOM     10  C   UNL     1       2.204   4.615  19.587  0.00  0.00    +0.000 A 
ATOM     11  C   UNL     1       1.094   3.774  19.688  0.00  0.00    +0.000 A 
ATOM     12  C   UNL     1       1.015   2.623  18.905  0.00  0.00    +0.000 A 
ATOM     13  C   UNL     1       2.043   2.315  18.013  0.00  0.00    +0.000 A 
ATOM     14  C   UNL     1       3.151   3.156  17.902  0.00  0.00    +0.000 A 
ENDBRANCH   8   9
ENDBRANCH   6   8
ENDBRANCH   1   6
BRANCH   1  15
ATOM     15  C   UNL     1       5.694   4.719  15.851  0.00  0.00    +0.000 C 
BRANCH  15  16
ATOM     16  C   UNL     1       6.172   4.497  14.434  0.00  0.00    +0.000 A 
ATOM     17  C   UNL     1       7.308   5.151  13.936  0.00  0.00    +0.000 A 
ATOM     18  C   UNL     1       7.740   4.933  12.628  0.00  0.00    +0.000 A 
ATOM     19  C   UNL     1       7.053   4.042  11.806  0.00  0.00    +0.000 A 
ATOM     20  C   UNL     1       5.935   3.371  12.294  0.00  0.00    +0.000 A 
ATOM     21  C   UNL     1       5.496   3.599  13.597  0.00  0.00    +0.000 A 
ENDBRANCH  15  16
ENDBRANCH   1  15
TORSDOF 7
ENDMDL
MODEL 8
REMARK VINA RESULT:      -7.3      1.312      6.355
REMARK  Name = 
REMARK  7 active torsions:
REMARK  status: ('A' for Active; 'I' for Inactive)
REMARK    1  A    between atoms: C_2  and  S_3
REMARK    2  A    between atoms: C_2  and  C_15
REMARK    3  A    between atoms: S_3  and  C_4
REMARK    4  A    between atoms: C_4  and  C_5
REMARK    5  A    between atoms: C_4  and  C_12
REMARK    6  A    between atoms: C_5  and  C_6
REMARK    7  A    between atoms: C_12  and  O_14
REMARK                            x       y       z     vdW  Elec       q    Type
REMARK                         _______ _______ _______ _____ _____    ______ ____
ROOT
ATOM      1  C   UNL     1       5.848   6.241  16.358  0.00  0.00    +0.000 C 
ENDROOT
BRANCH   1   2
ATOM      2  C   UNL     1       7.144   6.648  17.064  0.00  0.00    +0.000 C 
ATOM      3  O   UNL     1       7.543   7.803  17.145  0.00  0.00    +0.000 OA
BRANCH   2   4
ATOM      4  O   UNL     1       7.805   5.642  17.688  0.00  0.00    +0.000 OA
ATOM      5  H   UNL     1       8.728   5.900  17.896  0.00  0.00    +0.000 HD
ENDBRANCH   2   4
ENDBRANCH   1   2
BRANCH   1   6
ATOM      6  S   UNL     1       4.384   6.663  17.398  0.00  0.00    +0.000 S 
BRANCH   6   8
ATOM      7  O   UNL     1       5.349   5.374  19.455  0.00  0.00    +0.000 OA
ATOM      8  C   UNL     1       4.484   5.372  18.588  0.00  0.00    +0.000 C 
BRANCH   8   9
ATOM      9  C   UNL     1       3.439   4.314  18.534  0.00  0.00    +0.000 A 
ATOM     10  C   UNL     1       3.855   2.981  18.396  0.00  0.00    +0.000 A 
ATOM     11  C   UNL     1       2.913   1.952  18.350  0.00  0.00    +0.000 A 
ATOM     12  C   UNL     1       1.552   2.245  18.431  0.00  0.00    +0.000 A 
ATOM     13  C   UNL     1       1.131   3.568  18.565  0.00  0.00    +0.000 A 
ATOM     14  C   UNL     1       2.069   4.601  18.620  0.00  0.00    +0.000 A 
ENDBRANCH   8   9
ENDBRANCH   6   8
ENDBRANCH   1   6
BRANCH   1  15
ATOM     15  C   UNL     1       5.907   4.772  15.885  0.00  0.00    +0.000 C 
BRANCH  15  16
ATOM     16  C   UNL     1       6.301   4.537  14.444  0.00  0.00    +0.000 A 
ATOM     17  C   UNL     1       7.405   5.186  13.874  0.00  0.00    +0.000 A 
ATOM     18  C   UNL     1       7.759   4.956  12.544  0.00  0.00    +0.000 A 
ATOM     19  C   UNL     1       7.026   4.057  11.773  0.00  0.00    +0.000 A 
ATOM     20  C   UNL     1       5.939   3.392  12.332  0.00  0.00    +0.000 A 
ATOM     21  C   UNL     1       5.577   3.631  13.657  0.00  0.00    +0.000 A 
ENDBRANCH  15  16
ENDBRANCH   1  15
TORSDOF 7
ENDMDL
MODEL 9
REMARK VINA RESULT:      -7.3      2.610      5.869
REMARK  Name = 
REMARK  7 active torsions:
REMARK  status: ('A' for Active; 'I' for Inactive)
REMARK    1  A    between atoms: C_2  and  S_3
REMARK    2  A    between atoms: C_2  and  C_15
REMARK    3  A    between atoms: S_3  and  C_4
REMARK    4  A    between atoms: C_4  and  C_5
REMARK    5  A    between atoms: C_4  and  C_12
REMARK    6  A    between atoms: C_5  and  C_6
REMARK    7  A    between atoms: C_12  and  O_14
REMARK                            x       y       z     vdW  Elec       q    Type
REMARK                         _______ _______ _______ _____ _____    ______ ____
ROOT
ATOM      1  C   UNL     1       5.686   4.107  17.745  0.00  0.00    +0.000 C 
ENDROOT
BRANCH   1   2
ATOM      2  C   UNL     1       6.746   4.504  16.715  0.00  0.00    +0.000 C 
ATOM      3  O   UNL     1       7.952   4.414  16.907  0.00  0.00    +0.000 OA
BRANCH   2   4
ATOM      4  O   UNL     1       6.263   4.896  15.509  0.00  0.00    +0.000 OA
ATOM      5  H   UNL     1       5.988   5.837  15.526  0.00  0.00    +0.000 HD
ENDBRANCH   2   4
ENDBRANCH   1   2
BRANCH   1   6
ATOM      6  S   UNL     1       4.115   3.624  16.905  0.00  0.00    +0.000 S 
BRANCH   6   8
ATOM      7  O   UNL     1       4.005   1.147  17.728  0.00  0.00    +0.000 OA
ATOM      8  C   UNL     1       3.623   2.291  17.941  0.00  0.00    +0.000 C 
BRANCH   8   9
ATOM      9  C   UNL     1       2.777   2.622  19.120  0.00  0.00    +0.000 A 
ATOM     10  C   UNL     1       3.349   2.504  20.396  0.00  0.00    +0.000 A 
ATOM     11  C   UNL     1       2.599   2.813  21.533  0.00  0.00    +0.000 A 
ATOM     12  C   UNL     1       1.275   3.230  21.406  0.00  0.00    +0.000 A 
ATOM     13  C   UNL     1       0.700   3.347  20.140  0.00  0.00    +0.000 A 
ATOM     14  C   UNL     1       1.447   3.048  19.000  0.00  0.00    +0.000 A 
ENDBRANCH   8   9
ENDBRANCH   6   8
ENDBRANCH   1   6
BRANCH   1  15
ATOM     15  C   UNL     1       5.533   5.188  18.837  0.00  0.00    +0.000 C 
BRANCH  15  16
ATOM     16  C   UNL     1       4.327   6.095  18.732  0.00  0.00    +0.000 A 
ATOM     17  C   UNL     1       3.315   6.076  19.703  0.00  0.00    +0.000 A 
ATOM     18  C   UNL     1       2.210   6.921  19.596  0.00  0.00    +0.000 A 
ATOM     19  C   UNL     1       2.114   7.811  18.529  0.00  0.00    +0.000 A 
ATOM     20  C   UNL     1       3.120   7.853  17.568  0.00  0.00    +0.000 A 
ATOM     21  C   UNL     1       4.219   6.999  17.668  0.00  0.00    +0.000 A 
ENDBRANCH  15  16
ENDBRANCH   1  15
TORSDOF 7
ENDMDL
