MODEL 1
REMARK VINA RESULT:      -8.6      0.000      0.000
REMARK  Name = 
REMARK  10 active torsions:
REMARK  status: ('A' for Active; 'I' for Inactive)
REMARK    1  A    between atoms: C_1  and  O_2
REMARK    2  A    between atoms: O_2  and  C_3
REMARK    3  A    between atoms: C_6  and  N_7
REMARK    4  A    between atoms: N_15  and  C_16
REMARK    5  A    between atoms: C_18  and  C_19
REMARK    6  A    between atoms: C_19  and  C_20
REMARK    7  A    between atoms: C_19  and  C_21
REMARK    8  A    between atoms: C_19  and  C_22
REMARK    9  A    between atoms: C_25  and  C_26
REMARK   10  A    between atoms: N_31  and  C_32
REMARK                            x       y       z     vdW  Elec       q    Type
REMARK                         _______ _______ _______ _____ _____    ______ ____
ROOT
ATOM      1  N   UNL     1       1.445   8.656  19.471  0.00  0.00    +0.000 N 
ATOM      2  C   UNL     1       1.243   9.610  18.367  0.00  0.00    +0.000 C 
ATOM      3  C   UNL     1      -0.241   9.898  18.147  0.00  0.00    +0.000 C 
ATOM      4  C   UNL     1      -1.051  10.329  19.370  0.00  0.00    +0.000 C 
ATOM      5  N   UNL     1      -0.202  10.869  20.420  0.00  0.00    +0.000 N 
ATOM      6  C   UNL     1      -0.303  12.185  20.805  0.00  0.00    +0.000 A 
ATOM      7  N   UNL     1      -1.444  12.821  20.516  0.00  0.00    +0.000 NA
ATOM      8  C   UNL     1      -1.706  14.077  20.943  0.00  0.00    +0.000 A 
ATOM      9  N   UNL     1      -3.010  14.577  20.786  0.00  0.00    +0.000 N 
ATOM     10  C   UNL     1      -0.650  14.735  21.541  0.00  0.00    +0.000 A 
ATOM     11  C   UNL     1       0.528  14.040  21.765  0.00  0.00    +0.000 A 
ATOM     12  N   UNL     1       1.468  14.837  22.365  0.00  0.00    +0.000 NA
ATOM     13  C   UNL     1       0.882  16.004  22.509  0.00  0.00    +0.000 A 
ATOM     14  N   UNL     1      -0.413  15.977  22.066  0.00  0.00    +0.000 N 
ATOM     15  C   UNL     1      -1.332  17.081  22.149  0.00  0.00    +0.000 C 
ATOM     16  N   UNL     1       0.713  12.746  21.457  0.00  0.00    +0.000 NA
ATOM     17  C   UNL     1       0.396   9.914  21.353  0.00  0.00    +0.000 C 
ATOM     18  C   UNL     1       1.689   9.306  20.787  0.00  0.00    +0.000 C 
ATOM     19  H   UNL     1      -3.176  15.469  21.223  0.00  0.00    +0.000 HD
ENDROOT
BRANCH   9  20
ATOM     20  C   UNL     1      -4.164  13.753  20.885  0.00  0.00    +0.000 A 
ATOM     21  C   UNL     1      -4.541  12.925  19.807  0.00  0.00    +0.000 A 
ATOM     22  C   UNL     1      -5.696  12.128  19.813  0.00  0.00    +0.000 A 
ATOM     23  C   UNL     1      -6.434  12.105  21.000  0.00  0.00    +0.000 A 
ATOM     24  C   UNL     1      -6.056  12.882  22.104  0.00  0.00    +0.000 A 
ATOM     25  C   UNL     1      -4.937  13.728  22.053  0.00  0.00    +0.000 A 
ATOM     26  C   UNL     1      -4.625  14.622  23.217  0.00  0.00    +0.000 C 
BRANCH  22  27
ATOM     27  C   UNL     1      -6.107  11.395  18.526  0.00  0.00    +0.000 C 
ATOM     28  C   UNL     1      -4.866  11.064  17.670  0.00  0.00    +0.000 C 
ATOM     29  C   UNL     1      -6.860  10.075  18.790  0.00  0.00    +0.000 C 
ATOM     30  C   UNL     1      -7.050  12.302  17.699  0.00  0.00    +0.000 C 
ENDBRANCH  22  27
ENDBRANCH   9  20
BRANCH   1  34
ATOM     31  C   UNL     1       3.481   4.990  18.903  0.00  0.00    +0.000 A 
ATOM     32  C   UNL     1       3.564   5.988  17.938  0.00  0.00    +0.000 A 
ATOM     33  C   UNL     1       2.919   7.216  18.119  0.00  0.00    +0.000 A 
ATOM     34  C   UNL     1       2.148   7.473  19.261  0.00  0.00    +0.000 A 
ATOM     35  C   UNL     1       2.070   6.444  20.217  0.00  0.00    +0.000 A 
ATOM     36  C   UNL     1       2.724   5.216  20.047  0.00  0.00    +0.000 A 
BRANCH  31  38
ATOM     37  C   UNL     1       4.102   2.825  19.603  0.00  0.00    +0.000 C 
ATOM     38  O   UNL     1       4.140   3.830  18.599  0.00  0.00    +0.000 OA
ENDBRANCH  31  38
ENDBRANCH   1  34
TORSDOF 4
ENDMDL
MODEL 2
REMARK VINA RESULT:      -8.6      0.205      1.083
REMARK  Name = 
REMARK  10 active torsions:
REMARK  status: ('A' for Active; 'I' for Inactive)
REMARK    1  A    between atoms: C_1  and  O_2
REMARK    2  A    between atoms: O_2  and  C_3
REMARK    3  A    between atoms: C_6  and  N_7
REMARK    4  A    between atoms: N_15  and  C_16
REMARK    5  A    between atoms: C_18  and  C_19
REMARK    6  A    between atoms: C_19  and  C_20
REMARK    7  A    between atoms: C_19  and  C_21
REMARK    8  A    between atoms: C_19  and  C_22
REMARK    9  A    between atoms: C_25  and  C_26
REMARK   10  A    between atoms: N_31  and  C_32
REMARK                            x       y       z     vdW  Elec       q    Type
REMARK                         _______ _______ _______ _____ _____    ______ ____
ROOT
ATOM      1  N   UNL     1       1.480   8.749  19.366  0.00  0.00    +0.000 N 
ATOM      2  C   UNL     1       1.263   9.725  18.285  0.00  0.00    +0.000 C 
ATOM      3  C   UNL     1      -0.226   9.995  18.073  0.00  0.00    +0.000 C 
ATOM      4  C   UNL     1      -1.041  10.386  19.306  0.00  0.00    +0.000 C 
ATOM      5  N   UNL     1      -0.199  10.914  20.368  0.00  0.00    +0.000 N 
ATOM      6  C   UNL     1      -0.319  12.219  20.784  0.00  0.00    +0.000 A 
ATOM      7  N   UNL     1      -1.469  12.845  20.511  0.00  0.00    +0.000 NA
ATOM      8  C   UNL     1      -1.750  14.086  20.967  0.00  0.00    +0.000 A 
ATOM      9  N   UNL     1      -3.060  14.570  20.823  0.00  0.00    +0.000 N 
ATOM     10  C   UNL     1      -0.702  14.746  21.579  0.00  0.00    +0.000 A 
ATOM     11  C   UNL     1       0.487  14.063  21.786  0.00  0.00    +0.000 A 
ATOM     12  N   UNL     1       1.415  14.860  22.404  0.00  0.00    +0.000 NA
ATOM     13  C   UNL     1       0.812  16.014  22.575  0.00  0.00    +0.000 A 
ATOM     14  N   UNL     1      -0.483  15.979  22.132  0.00  0.00    +0.000 N 
ATOM     15  C   UNL     1      -1.418  17.066  22.242  0.00  0.00    +0.000 C 
ATOM     16  N   UNL     1       0.690  12.780  21.448  0.00  0.00    +0.000 NA
ATOM     17  C   UNL     1       0.414   9.947  21.278  0.00  0.00    +0.000 C 
ATOM     18  C   UNL     1       1.716   9.371  20.696  0.00  0.00    +0.000 C 
ATOM     19  H   UNL     1      -3.240  15.449  21.281  0.00  0.00    +0.000 HD
ENDROOT
BRANCH   9  20
ATOM     20  C   UNL     1      -4.203  13.727  20.904  0.00  0.00    +0.000 A 
ATOM     21  C   UNL     1      -4.575  12.928  19.803  0.00  0.00    +0.000 A 
ATOM     22  C   UNL     1      -5.719  12.115  19.791  0.00  0.00    +0.000 A 
ATOM     23  C   UNL     1      -6.448  12.044  20.982  0.00  0.00    +0.000 A 
ATOM     24  C   UNL     1      -6.073  12.792  22.107  0.00  0.00    +0.000 A 
ATOM     25  C   UNL     1      -4.966  13.654  22.075  0.00  0.00    +0.000 A 
ATOM     26  C   UNL     1      -4.659  14.517  23.265  0.00  0.00    +0.000 C 
BRANCH  22  27
ATOM     27  C   UNL     1      -6.129  11.417  18.485  0.00  0.00    +0.000 C 
ATOM     28  C   UNL     1      -7.109  12.300  17.683  0.00  0.00    +0.000 C 
ATOM     29  C   UNL     1      -4.934  11.090  17.566  0.00  0.00    +0.000 C 
ATOM     30  C   UNL     1      -6.829  10.078  18.818  0.00  0.00    +0.000 C 
ENDBRANCH  22  27
ENDBRANCH   9  20
BRANCH   1  34
ATOM     31  C   UNL     1       3.768   5.277  18.574  0.00  0.00    +0.000 A 
ATOM     32  C   UNL     1       2.992   5.351  19.726  0.00  0.00    +0.000 A 
ATOM     33  C   UNL     1       2.209   6.480  19.992  0.00  0.00    +0.000 A 
ATOM     34  C   UNL     1       2.200   7.581  19.127  0.00  0.00    +0.000 A 
ATOM     35  C   UNL     1       3.002   7.488  17.975  0.00  0.00    +0.000 A 
ATOM     36  C   UNL     1       3.778   6.355  17.696  0.00  0.00    +0.000 A 
BRANCH  31  38
ATOM     37  C   UNL     1       4.330   3.169  19.472  0.00  0.00    +0.000 C 
ATOM     38  O   UNL     1       4.501   4.131  18.438  0.00  0.00    +0.000 OA
ENDBRANCH  31  38
ENDBRANCH   1  34
TORSDOF 4
ENDMDL
MODEL 3
REMARK VINA RESULT:      -8.6      2.215      5.194
REMARK  Name = 
REMARK  10 active torsions:
REMARK  status: ('A' for Active; 'I' for Inactive)
REMARK    1  A    between atoms: C_1  and  O_2
REMARK    2  A    between atoms: O_2  and  C_3
REMARK    3  A    between atoms: C_6  and  N_7
REMARK    4  A    between atoms: N_15  and  C_16
REMARK    5  A    between atoms: C_18  and  C_19
REMARK    6  A    between atoms: C_19  and  C_20
REMARK    7  A    between atoms: C_19  and  C_21
REMARK    8  A    between atoms: C_19  and  C_22
REMARK    9  A    between atoms: C_25  and  C_26
REMARK   10  A    between atoms: N_31  and  C_32
REMARK                            x       y       z     vdW  Elec       q    Type
REMARK                         _______ _______ _______ _____ _____    ______ ____
ROOT
ATOM      1  N   UNL     1       2.558   7.647  18.839  0.00  0.00    +0.000 N 
ATOM      2  C   UNL     1       1.491   7.227  19.764  0.00  0.00    +0.000 C 
ATOM      3  C   UNL     1       1.265   8.267  20.859  0.00  0.00    +0.000 C 
ATOM      4  C   UNL     1       1.030   9.709  20.406  0.00  0.00    +0.000 C 
ATOM      5  N   UNL     1       0.573   9.777  19.027  0.00  0.00    +0.000 N 
ATOM      6  C   UNL     1      -0.679  10.254  18.719  0.00  0.00    +0.000 A 
ATOM      7  N   UNL     1      -1.279  11.029  19.629  0.00  0.00    +0.000 NA
ATOM      8  C   UNL     1      -2.457  11.649  19.395  0.00  0.00    +0.000 A 
ATOM      9  N   UNL     1      -2.897  12.616  20.315  0.00  0.00    +0.000 N 
ATOM     10  C   UNL     1      -3.099  11.289  18.227  0.00  0.00    +0.000 A 
ATOM     11  C   UNL     1      -2.449  10.436  17.346  0.00  0.00    +0.000 A 
ATOM     12  N   UNL     1      -3.222  10.183  16.241  0.00  0.00    +0.000 NA
ATOM     13  C   UNL     1      -4.327  10.865  16.436  0.00  0.00    +0.000 A 
ATOM     14  N   UNL     1      -4.280  11.583  17.601  0.00  0.00    +0.000 N 
ATOM     15  C   UNL     1      -5.311  12.477  18.057  0.00  0.00    +0.000 C 
ATOM     16  N   UNL     1      -1.215   9.946  17.540  0.00  0.00    +0.000 NA
ATOM     17  C   UNL     1       1.597   9.785  17.983  0.00  0.00    +0.000 C 
ATOM     18  C   UNL     1       2.058   8.360  17.633  0.00  0.00    +0.000 C 
ATOM     19  H   UNL     1      -3.719  13.125  20.033  0.00  0.00    +0.000 HD
ENDROOT
BRANCH   9  20
ATOM     20  C   UNL     1      -2.003  13.469  21.018  0.00  0.00    +0.000 A 
ATOM     21  C   UNL     1      -1.348  14.521  20.346  0.00  0.00    +0.000 A 
ATOM     22  C   UNL     1      -0.413  15.367  20.961  0.00  0.00    +0.000 A 
ATOM     23  C   UNL     1      -0.217  15.190  22.335  0.00  0.00    +0.000 A 
ATOM     24  C   UNL     1      -0.891  14.181  23.038  0.00  0.00    +0.000 A 
ATOM     25  C   UNL     1      -1.769  13.299  22.389  0.00  0.00    +0.000 A 
ATOM     26  C   UNL     1      -2.390  12.168  23.155  0.00  0.00    +0.000 C 
BRANCH  22  27
ATOM     27  C   UNL     1       0.370  16.372  20.101  0.00  0.00    +0.000 C 
ATOM     28  C   UNL     1       0.806  17.587  20.948  0.00  0.00    +0.000 C 
ATOM     29  C   UNL     1       1.636  15.769  19.460  0.00  0.00    +0.000 C 
ATOM     30  C   UNL     1      -0.534  16.872  18.948  0.00  0.00    +0.000 C 
ENDBRANCH  22  27
ENDBRANCH   9  20
BRANCH   1  34
ATOM     31  C   UNL     1       5.852   5.059  18.239  0.00  0.00    +0.000 A 
ATOM     32  C   UNL     1       5.618   6.103  17.351  0.00  0.00    +0.000 A 
ATOM     33  C   UNL     1       4.549   6.985  17.547  0.00  0.00    +0.000 A 
ATOM     34  C   UNL     1       3.665   6.831  18.623  0.00  0.00    +0.000 A 
ATOM     35  C   UNL     1       3.915   5.760  19.500  0.00  0.00    +0.000 A 
ATOM     36  C   UNL     1       4.992   4.881  19.316  0.00  0.00    +0.000 A 
BRANCH  31  38
ATOM     37  C   UNL     1       7.436   4.415  16.613  0.00  0.00    +0.000 C 
ATOM     38  O   UNL     1       6.915   4.257  17.927  0.00  0.00    +0.000 OA
ENDBRANCH  31  38
ENDBRANCH   1  34
TORSDOF 4
ENDMDL
MODEL 4
REMARK VINA RESULT:      -8.5      2.211      5.234
REMARK  Name = 
REMARK  10 active torsions:
REMARK  status: ('A' for Active; 'I' for Inactive)
REMARK    1  A    between atoms: C_1  and  O_2
REMARK    2  A    between atoms: O_2  and  C_3
REMARK    3  A    between atoms: C_6  and  N_7
REMARK    4  A    between atoms: N_15  and  C_16
REMARK    5  A    between atoms: C_18  and  C_19
REMARK    6  A    between atoms: C_19  and  C_20
REMARK    7  A    between atoms: C_19  and  C_21
REMARK    8  A    between atoms: C_19  and  C_22
REMARK    9  A    between atoms: C_25  and  C_26
REMARK   10  A    between atoms: N_31  and  C_32
REMARK                            x       y       z     vdW  Elec       q    Type
REMARK                         _______ _______ _______ _____ _____    ______ ____
ROOT
ATOM      1  N   UNL     1       2.381   7.663  18.960  0.00  0.00    +0.000 N 
ATOM      2  C   UNL     1       1.333   7.317  19.934  0.00  0.00    +0.000 C 
ATOM      3  C   UNL     1       1.169   8.413  20.986  0.00  0.00    +0.000 C 
ATOM      4  C   UNL     1       0.961   9.839  20.473  0.00  0.00    +0.000 C 
ATOM      5  N   UNL     1       0.464   9.857  19.107  0.00  0.00    +0.000 N 
ATOM      6  C   UNL     1      -0.783  10.356  18.815  0.00  0.00    +0.000 A 
ATOM      7  N   UNL     1      -1.333  11.189  19.705  0.00  0.00    +0.000 NA
ATOM      8  C   UNL     1      -2.500  11.833  19.478  0.00  0.00    +0.000 A 
ATOM      9  N   UNL     1      -2.884  12.853  20.364  0.00  0.00    +0.000 N 
ATOM     10  C   UNL     1      -3.187  11.438  18.346  0.00  0.00    +0.000 A 
ATOM     11  C   UNL     1      -2.589  10.528  17.488  0.00  0.00    +0.000 A 
ATOM     12  N   UNL     1      -3.402  10.248  16.419  0.00  0.00    +0.000 NA
ATOM     13  C   UNL     1      -4.481  10.970  16.615  0.00  0.00    +0.000 A 
ATOM     14  N   UNL     1      -4.378  11.739  17.743  0.00  0.00    +0.000 N 
ATOM     15  C   UNL     1      -5.369  12.682  18.188  0.00  0.00    +0.000 C 
ATOM     16  N   UNL     1      -1.364  10.011  17.667  0.00  0.00    +0.000 NA
ATOM     17  C   UNL     1       1.455   9.787  18.034  0.00  0.00    +0.000 C 
ATOM     18  C   UNL     1       1.864   8.335  17.737  0.00  0.00    +0.000 C 
ATOM     19  H   UNL     1      -3.699  13.373  20.083  0.00  0.00    +0.000 HD
ENDROOT
BRANCH   9  20
ATOM     20  C   UNL     1      -1.944  13.710  21.000  0.00  0.00    +0.000 A 
ATOM     21  C   UNL     1      -1.326  14.749  20.274  0.00  0.00    +0.000 A 
ATOM     22  C   UNL     1      -0.351  15.598  20.820  0.00  0.00    +0.000 A 
ATOM     23  C   UNL     1      -0.074  15.439  22.182  0.00  0.00    +0.000 A 
ATOM     24  C   UNL     1      -0.710  14.445  22.939  0.00  0.00    +0.000 A 
ATOM     25  C   UNL     1      -1.630  13.559  22.356  0.00  0.00    +0.000 A 
ATOM     26  C   UNL     1      -2.209  12.442  23.175  0.00  0.00    +0.000 C 
BRANCH  22  27
ATOM     27  C   UNL     1       0.384  16.586  19.900  0.00  0.00    +0.000 C 
ATOM     28  C   UNL     1       1.705  15.972  19.391  0.00  0.00    +0.000 C 
ATOM     29  C   UNL     1      -0.445  17.003  18.668  0.00  0.00    +0.000 C 
ATOM     30  C   UNL     1       0.711  17.876  20.690  0.00  0.00    +0.000 C 
ENDBRANCH  22  27
ENDBRANCH   9  20
BRANCH   1  34
ATOM     31  C   UNL     1       5.726   5.165  18.263  0.00  0.00    +0.000 A 
ATOM     32  C   UNL     1       4.892   4.924  19.350  0.00  0.00    +0.000 A 
ATOM     33  C   UNL     1       3.767   5.723  19.582  0.00  0.00    +0.000 A 
ATOM     34  C   UNL     1       3.458   6.805  18.749  0.00  0.00    +0.000 A 
ATOM     35  C   UNL     1       4.322   7.037  17.663  0.00  0.00    +0.000 A 
ATOM     36  C   UNL     1       5.443   6.232  17.418  0.00  0.00    +0.000 A 
BRANCH  31  38
ATOM     37  C   UNL     1       7.588   4.487  16.983  0.00  0.00    +0.000 C 
ATOM     38  O   UNL     1       6.801   4.327  18.157  0.00  0.00    +0.000 OA
ENDBRANCH  31  38
ENDBRANCH   1  34
TORSDOF 4
ENDMDL
MODEL 5
REMARK VINA RESULT:      -8.3      2.176      5.163
REMARK  Name = 
REMARK  10 active torsions:
REMARK  status: ('A' for Active; 'I' for Inactive)
REMARK    1  A    between atoms: C_1  and  O_2
REMARK    2  A    between atoms: O_2  and  C_3
REMARK    3  A    between atoms: C_6  and  N_7
REMARK    4  A    between atoms: N_15  and  C_16
REMARK    5  A    between atoms: C_18  and  C_19
REMARK    6  A    between atoms: C_19  and  C_20
REMARK    7  A    between atoms: C_19  and  C_21
REMARK    8  A    between atoms: C_19  and  C_22
REMARK    9  A    between atoms: C_25  and  C_26
REMARK   10  A    between atoms: N_31  and  C_32
REMARK                            x       y       z     vdW  Elec       q    Type
REMARK                         _______ _______ _______ _____ _____    ______ ____
ROOT
ATOM      1  N   UNL     1       2.178   7.903  18.993  0.00  0.00    +0.000 N 
ATOM      2  C   UNL     1       1.303   7.692  20.159  0.00  0.00    +0.000 C 
ATOM      3  C   UNL     1       1.331   8.896  21.099  0.00  0.00    +0.000 C 
ATOM      4  C   UNL     1       1.057  10.266  20.477  0.00  0.00    +0.000 C 
ATOM      5  N   UNL     1       0.337  10.156  19.218  0.00  0.00    +0.000 N 
ATOM      6  C   UNL     1      -0.935  10.658  19.084  0.00  0.00    +0.000 A 
ATOM      7  N   UNL     1      -1.318  11.595  19.958  0.00  0.00    +0.000 NA
ATOM      8  C   UNL     1      -2.499  12.246  19.859  0.00  0.00    +0.000 A 
ATOM      9  N   UNL     1      -2.718  13.363  20.681  0.00  0.00    +0.000 N 
ATOM     10  C   UNL     1      -3.371  11.755  18.906  0.00  0.00    +0.000 A 
ATOM     11  C   UNL     1      -2.936  10.743  18.063  0.00  0.00    +0.000 A 
ATOM     12  N   UNL     1      -3.920  10.377  17.180  0.00  0.00    +0.000 NA
ATOM     13  C   UNL     1      -4.942  11.147  17.473  0.00  0.00    +0.000 A 
ATOM     14  N   UNL     1      -4.643  12.026  18.479  0.00  0.00    +0.000 N 
ATOM     15  C   UNL     1      -5.534  13.039  18.977  0.00  0.00    +0.000 C 
ATOM     16  N   UNL     1      -1.704  10.212  18.092  0.00  0.00    +0.000 NA
ATOM     17  C   UNL     1       1.134   9.945  18.010  0.00  0.00    +0.000 C 
ATOM     18  C   UNL     1       1.471   8.459  17.808  0.00  0.00    +0.000 C 
ATOM     19  H   UNL     1      -3.563  13.875  20.484  0.00  0.00    +0.000 HD
ENDROOT
BRANCH   9  20
ATOM     20  C   UNL     1      -1.675  14.254  21.057  0.00  0.00    +0.000 A 
ATOM     21  C   UNL     1      -1.131  15.149  20.113  0.00  0.00    +0.000 A 
ATOM     22  C   UNL     1      -0.067  16.018  20.397  0.00  0.00    +0.000 A 
ATOM     23  C   UNL     1       0.389  16.038  21.719  0.00  0.00    +0.000 A 
ATOM     24  C   UNL     1      -0.166  15.192  22.690  0.00  0.00    +0.000 A 
ATOM     25  C   UNL     1      -1.183  14.279  22.368  0.00  0.00    +0.000 A 
ATOM     26  C   UNL     1      -1.678  13.318  23.409  0.00  0.00    +0.000 C 
BRANCH  22  27
ATOM     27  C   UNL     1       0.564  16.830  19.255  0.00  0.00    +0.000 C 
ATOM     28  C   UNL     1      -0.482  17.126  18.159  0.00  0.00    +0.000 C 
ATOM     29  C   UNL     1       1.153  18.179  19.717  0.00  0.00    +0.000 C 
ATOM     30  C   UNL     1       1.722  16.017  18.627  0.00  0.00    +0.000 C 
ENDBRANCH  22  27
ENDBRANCH   9  20
BRANCH   1  34
ATOM     31  C   UNL     1       5.190   5.048  18.165  0.00  0.00    +0.000 A 
ATOM     32  C   UNL     1       4.992   6.120  17.302  0.00  0.00    +0.000 A 
ATOM     33  C   UNL     1       4.018   7.088  17.572  0.00  0.00    +0.000 A 
ATOM     34  C   UNL     1       3.194   6.997  18.701  0.00  0.00    +0.000 A 
ATOM     35  C   UNL     1       3.404   5.898  19.553  0.00  0.00    +0.000 A 
ATOM     36  C   UNL     1       4.387   4.932  19.294  0.00  0.00    +0.000 A 
BRANCH  31  38
ATOM     37  C   UNL     1       7.457   4.711  17.609  0.00  0.00    +0.000 C 
ATOM     38  O   UNL     1       6.157   4.161  17.780  0.00  0.00    +0.000 OA
ENDBRANCH  31  38
ENDBRANCH   1  34
TORSDOF 4
ENDMDL
MODEL 6
REMARK VINA RESULT:      -7.8      1.675      2.186
REMARK  Name = 
REMARK  10 active torsions:
REMARK  status: ('A' for Active; 'I' for Inactive)
REMARK    1  A    between atoms: C_1  and  O_2
REMARK    2  A    between atoms: O_2  and  C_3
REMARK    3  A    between atoms: C_6  and  N_7
REMARK    4  A    between atoms: N_15  and  C_16
REMARK    5  A    between atoms: C_18  and  C_19
REMARK    6  A    between atoms: C_19  and  C_20
REMARK    7  A    between atoms: C_19  and  C_21
REMARK    8  A    between atoms: C_19  and  C_22
REMARK    9  A    between atoms: C_25  and  C_26
REMARK   10  A    between atoms: N_31  and  C_32
REMARK                            x       y       z     vdW  Elec       q    Type
REMARK                         _______ _______ _______ _____ _____    ______ ____
ROOT
ATOM      1  N   UNL     1       0.469  10.233  19.904  0.00  0.00    +0.000 N 
ATOM      2  C   UNL     1       0.352  11.459  19.097  0.00  0.00    +0.000 C 
ATOM      3  C   UNL     1      -1.104  11.752  18.740  0.00  0.00    +0.000 C 
ATOM      4  C   UNL     1      -2.106  11.785  19.894  0.00  0.00    +0.000 C 
ATOM      5  N   UNL     1      -1.454  12.023  21.172  0.00  0.00    +0.000 N 
ATOM      6  C   UNL     1      -1.705  13.166  21.892  0.00  0.00    +0.000 A 
ATOM      7  N   UNL     1      -2.839  13.824  21.622  0.00  0.00    +0.000 NA
ATOM      8  C   UNL     1      -3.251  14.893  22.340  0.00  0.00    +0.000 A 
ATOM      9  N   UNL     1      -4.553  15.376  22.131  0.00  0.00    +0.000 N 
ATOM     10  C   UNL     1      -2.340  15.382  23.255  0.00  0.00    +0.000 A 
ATOM     11  C   UNL     1      -1.155  14.688  23.453  0.00  0.00    +0.000 A 
ATOM     12  N   UNL     1      -0.370  15.306  24.392  0.00  0.00    +0.000 NA
ATOM     13  C   UNL     1      -1.055  16.362  24.766  0.00  0.00    +0.000 A 
ATOM     14  N   UNL     1      -2.270  16.425  24.139  0.00  0.00    +0.000 N 
ATOM     15  C   UNL     1      -3.272  17.428  24.387  0.00  0.00    +0.000 C 
ATOM     16  N   UNL     1      -0.834  13.546  22.825  0.00  0.00    +0.000 NA
ATOM     17  C   UNL     1      -0.922  10.858  21.878  0.00  0.00    +0.000 C 
ATOM     18  C   UNL     1       0.478  10.481  21.371  0.00  0.00    +0.000 C 
ATOM     19  H   UNL     1      -4.845  16.097  22.771  0.00  0.00    +0.000 HD
ENDROOT
BRANCH   9  20
ATOM     20  C   UNL     1      -5.646  14.523  21.814  0.00  0.00    +0.000 A 
ATOM     21  C   UNL     1      -5.620  13.742  20.640  0.00  0.00    +0.000 A 
ATOM     22  C   UNL     1      -6.683  12.921  20.236  0.00  0.00    +0.000 A 
ATOM     23  C   UNL     1      -7.767  12.823  21.114  0.00  0.00    +0.000 A 
ATOM     24  C   UNL     1      -7.798  13.552  22.311  0.00  0.00    +0.000 A 
ATOM     25  C   UNL     1      -6.755  14.423  22.663  0.00  0.00    +0.000 A 
ATOM     26  C   UNL     1      -6.873  15.265  23.900  0.00  0.00    +0.000 C 
BRANCH  22  27
ATOM     27  C   UNL     1      -6.626  12.244  18.857  0.00  0.00    +0.000 C 
ATOM     28  C   UNL     1      -7.580  12.947  17.868  0.00  0.00    +0.000 C 
ATOM     29  C   UNL     1      -5.216  12.251  18.232  0.00  0.00    +0.000 C 
ATOM     30  C   UNL     1      -7.059  10.765  18.994  0.00  0.00    +0.000 C 
ENDBRANCH  22  27
ENDBRANCH   9  20
BRANCH   1  34
ATOM     31  C   UNL     1       2.862   6.958  18.697  0.00  0.00    +0.000 A 
ATOM     32  C   UNL     1       2.609   7.998  17.809  0.00  0.00    +0.000 A 
ATOM     33  C   UNL     1       1.842   9.102  18.198  0.00  0.00    +0.000 A 
ATOM     34  C   UNL     1       1.281   9.185  19.479  0.00  0.00    +0.000 A 
ATOM     35  C   UNL     1       1.540   8.115  20.355  0.00  0.00    +0.000 A 
ATOM     36  C   UNL     1       2.319   7.012  19.975  0.00  0.00    +0.000 A 
BRANCH  31  38
ATOM     37  C   UNL     1       4.195   5.066  19.157  0.00  0.00    +0.000 C 
ATOM     38  O   UNL     1       3.608   5.930  18.191  0.00  0.00    +0.000 OA
ENDBRANCH  31  38
ENDBRANCH   1  34
TORSDOF 4
ENDMDL
MODEL 7
REMARK VINA RESULT:      -7.8      1.206      1.486
REMARK  Name = 
REMARK  10 active torsions:
REMARK  status: ('A' for Active; 'I' for Inactive)
REMARK    1  A    between atoms: C_1  and  O_2
REMARK    2  A    between atoms: O_2  and  C_3
REMARK    3  A    between atoms: C_6  and  N_7
REMARK    4  A    between atoms: N_15  and  C_16
REMARK    5  A    between atoms: C_18  and  C_19
REMARK    6  A    between atoms: C_19  and  C_20
REMARK    7  A    between atoms: C_19  and  C_21
REMARK    8  A    between atoms: C_19  and  C_22
REMARK    9  A    between atoms: C_25  and  C_26
REMARK   10  A    between atoms: N_31  and  C_32
REMARK                            x       y       z     vdW  Elec       q    Type
REMARK                         _______ _______ _______ _____ _____    ______ ____
ROOT
ATOM      1  N   UNL     1       0.900   9.626  19.745  0.00  0.00    +0.000 N 
ATOM      2  C   UNL     1       0.728  10.685  18.737  0.00  0.00    +0.000 C 
ATOM      3  C   UNL     1      -0.750  10.965  18.471  0.00  0.00    +0.000 C 
ATOM      4  C   UNL     1      -1.631  11.249  19.688  0.00  0.00    +0.000 C 
ATOM      5  N   UNL     1      -0.849  11.693  20.831  0.00  0.00    +0.000 N 
ATOM      6  C   UNL     1      -1.002  12.959  21.345  0.00  0.00    +0.000 A 
ATOM      7  N   UNL     1      -2.143  13.599  21.065  0.00  0.00    +0.000 NA
ATOM      8  C   UNL     1      -2.458  14.798  21.605  0.00  0.00    +0.000 A 
ATOM      9  N   UNL     1      -3.764  15.285  21.433  0.00  0.00    +0.000 N 
ATOM     10  C   UNL     1      -1.449  15.411  22.322  0.00  0.00    +0.000 A 
ATOM     11  C   UNL     1      -0.266  14.720  22.533  0.00  0.00    +0.000 A 
ATOM     12  N   UNL     1       0.623  15.469  23.261  0.00  0.00    +0.000 NA
ATOM     13  C   UNL     1       0.001  16.602  23.494  0.00  0.00    +0.000 A 
ATOM     14  N   UNL     1      -1.270  16.596  22.984  0.00  0.00    +0.000 N 
ATOM     15  C   UNL     1      -2.220  17.666  23.133  0.00  0.00    +0.000 C 
ATOM     16  N   UNL     1      -0.034  13.470  22.103  0.00  0.00    +0.000 NA
ATOM     17  C   UNL     1      -0.273  10.658  21.690  0.00  0.00    +0.000 C 
ATOM     18  C   UNL     1       1.061  10.139  21.132  0.00  0.00    +0.000 C 
ATOM     19  H   UNL     1      -3.975  16.123  21.951  0.00  0.00    +0.000 HD
ENDROOT
BRANCH   9  20
ATOM     20  C   UNL     1      -4.901  14.433  21.386  0.00  0.00    +0.000 A 
ATOM     21  C   UNL     1      -5.075  13.540  20.309  0.00  0.00    +0.000 A 
ATOM     22  C   UNL     1      -6.197  12.709  20.169  0.00  0.00    +0.000 A 
ATOM     23  C   UNL     1      -7.122  12.724  21.218  0.00  0.00    +0.000 A 
ATOM     24  C   UNL     1      -6.949  13.568  22.324  0.00  0.00    +0.000 A 
ATOM     25  C   UNL     1      -5.856  14.443  22.411  0.00  0.00    +0.000 A 
ATOM     26  C   UNL     1      -5.761  15.406  23.560  0.00  0.00    +0.000 C 
BRANCH  22  27
ATOM     27  C   UNL     1      -6.373  11.899  18.875  0.00  0.00    +0.000 C 
ATOM     28  C   UNL     1      -5.013  11.691  18.176  0.00  0.00    +0.000 C 
ATOM     29  C   UNL     1      -6.998  10.507  19.106  0.00  0.00    +0.000 C 
ATOM     30  C   UNL     1      -7.310  12.667  17.913  0.00  0.00    +0.000 C 
ENDBRANCH  22  27
ENDBRANCH   9  20
BRANCH   1  34
ATOM     31  C   UNL     1       3.246   6.240  18.774  0.00  0.00    +0.000 A 
ATOM     32  C   UNL     1       2.561   6.287  19.983  0.00  0.00    +0.000 A 
ATOM     33  C   UNL     1       1.759   7.387  20.310  0.00  0.00    +0.000 A 
ATOM     34  C   UNL     1       1.642   8.485  19.450  0.00  0.00    +0.000 A 
ATOM     35  C   UNL     1       2.354   8.420  18.238  0.00  0.00    +0.000 A 
ATOM     36  C   UNL     1       3.148   7.316  17.899  0.00  0.00    +0.000 A 
BRANCH  31  38
ATOM     37  C   UNL     1       5.314   5.353  18.067  0.00  0.00    +0.000 C 
ATOM     38  O   UNL     1       4.009   5.121  18.581  0.00  0.00    +0.000 OA
ENDBRANCH  31  38
ENDBRANCH   1  34
TORSDOF 4
ENDMDL
MODEL 8
REMARK VINA RESULT:      -7.7      2.565      5.215
REMARK  Name = 
REMARK  10 active torsions:
REMARK  status: ('A' for Active; 'I' for Inactive)
REMARK    1  A    between atoms: C_1  and  O_2
REMARK    2  A    between atoms: O_2  and  C_3
REMARK    3  A    between atoms: C_6  and  N_7
REMARK    4  A    between atoms: N_15  and  C_16
REMARK    5  A    between atoms: C_18  and  C_19
REMARK    6  A    between atoms: C_19  and  C_20
REMARK    7  A    between atoms: C_19  and  C_21
REMARK    8  A    between atoms: C_19  and  C_22
REMARK    9  A    between atoms: C_25  and  C_26
REMARK   10  A    between atoms: N_31  and  C_32
REMARK                            x       y       z     vdW  Elec       q    Type
REMARK                         _______ _______ _______ _____ _____    ______ ____
ROOT
ATOM      1  N   UNL     1       0.548  10.346  19.761  0.00  0.00    +0.000 N 
ATOM      2  C   UNL     1       0.940  11.109  20.958  0.00  0.00    +0.000 C 
ATOM      3  C   UNL     1       1.127  12.590  20.636  0.00  0.00    +0.000 C 
ATOM      4  C   UNL     1      -0.027  13.293  19.919  0.00  0.00    +0.000 C 
ATOM      5  N   UNL     1      -1.287  12.589  20.099  0.00  0.00    +0.000 N 
ATOM      6  C   UNL     1      -2.330  13.168  20.781  0.00  0.00    +0.000 A 
ATOM      7  N   UNL     1      -2.322  14.501  20.895  0.00  0.00    +0.000 NA
ATOM      8  C   UNL     1      -3.347  15.192  21.442  0.00  0.00    +0.000 A 
ATOM      9  N   UNL     1      -3.352  16.591  21.315  0.00  0.00    +0.000 N 
ATOM     10  C   UNL     1      -4.326  14.428  22.045  0.00  0.00    +0.000 A 
ATOM     11  C   UNL     1      -4.251  13.047  21.942  0.00  0.00    +0.000 A 
ATOM     12  N   UNL     1      -5.298  12.444  22.592  0.00  0.00    +0.000 NA
ATOM     13  C   UNL     1      -6.004  13.433  23.089  0.00  0.00    +0.000 A 
ATOM     14  N   UNL     1      -5.480  14.651  22.747  0.00  0.00    +0.000 N 
ATOM     15  C   UNL     1      -6.064  15.921  23.087  0.00  0.00    +0.000 C 
ATOM     16  N   UNL     1      -3.294  12.390  21.269  0.00  0.00    +0.000 NA
ATOM     17  C   UNL     1      -1.583  11.500  19.168  0.00  0.00    +0.000 C 
ATOM     18  C   UNL     1      -0.923  10.184  19.610  0.00  0.00    +0.000 C 
ATOM     19  H   UNL     1      -4.192  17.043  21.638  0.00  0.00    +0.000 HD
ENDROOT
BRANCH   9  20
ATOM     20  C   UNL     1      -2.840  17.259  20.169  0.00  0.00    +0.000 A 
ATOM     21  C   UNL     1      -1.471  17.170  19.847  0.00  0.00    +0.000 A 
ATOM     22  C   UNL     1      -0.886  17.845  18.764  0.00  0.00    +0.000 A 
ATOM     23  C   UNL     1      -1.753  18.556  17.928  0.00  0.00    +0.000 A 
ATOM     24  C   UNL     1      -3.127  18.622  18.198  0.00  0.00    +0.000 A 
ATOM     25  C   UNL     1      -3.681  17.998  19.327  0.00  0.00    +0.000 A 
ATOM     26  C   UNL     1      -5.138  18.180  19.639  0.00  0.00    +0.000 C 
BRANCH  22  27
ATOM     27  C   UNL     1       0.642  17.818  18.600  0.00  0.00    +0.000 C 
ATOM     28  C   UNL     1       1.322  18.630  19.723  0.00  0.00    +0.000 C 
ATOM     29  C   UNL     1       1.234  16.394  18.627  0.00  0.00    +0.000 C 
ATOM     30  C   UNL     1       1.022  18.446  17.238  0.00  0.00    +0.000 C 
ENDBRANCH  22  27
ENDBRANCH   9  20
BRANCH   1  34
ATOM     31  C   UNL     1       2.776   6.951  18.569  0.00  0.00    +0.000 A 
ATOM     32  C   UNL     1       2.544   7.983  17.666  0.00  0.00    +0.000 A 
ATOM     33  C   UNL     1       1.832   9.124  18.049  0.00  0.00    +0.000 A 
ATOM     34  C   UNL     1       1.305   9.256  19.340  0.00  0.00    +0.000 A 
ATOM     35  C   UNL     1       1.543   8.194  20.233  0.00  0.00    +0.000 A 
ATOM     36  C   UNL     1       2.267   7.054  19.858  0.00  0.00    +0.000 A 
BRANCH  31  38
ATOM     37  C   UNL     1       4.434   5.315  18.943  0.00  0.00    +0.000 C 
ATOM     38  O   UNL     1       3.468   5.883  18.068  0.00  0.00    +0.000 OA
ENDBRANCH  31  38
ENDBRANCH   1  34
TORSDOF 4
ENDMDL
MODEL 9
REMARK VINA RESULT:      -7.5      2.527      5.293
REMARK  Name = 
REMARK  10 active torsions:
REMARK  status: ('A' for Active; 'I' for Inactive)
REMARK    1  A    between atoms: C_1  and  O_2
REMARK    2  A    between atoms: O_2  and  C_3
REMARK    3  A    between atoms: C_6  and  N_7
REMARK    4  A    between atoms: N_15  and  C_16
REMARK    5  A    between atoms: C_18  and  C_19
REMARK    6  A    between atoms: C_19  and  C_20
REMARK    7  A    between atoms: C_19  and  C_21
REMARK    8  A    between atoms: C_19  and  C_22
REMARK    9  A    between atoms: C_25  and  C_26
REMARK   10  A    between atoms: N_31  and  C_32
REMARK                            x       y       z     vdW  Elec       q    Type
REMARK                         _______ _______ _______ _____ _____    ______ ____
ROOT
ATOM      1  N   UNL     1       0.574  10.301  19.754  0.00  0.00    +0.000 N 
ATOM      2  C   UNL     1       0.997  11.047  20.952  0.00  0.00    +0.000 C 
ATOM      3  C   UNL     1       1.200  12.529  20.640  0.00  0.00    +0.000 C 
ATOM      4  C   UNL     1       0.045  13.255  19.949  0.00  0.00    +0.000 C 
ATOM      5  N   UNL     1      -1.222  12.568  20.143  0.00  0.00    +0.000 N 
ATOM      6  C   UNL     1      -2.245  13.155  20.848  0.00  0.00    +0.000 A 
ATOM      7  N   UNL     1      -2.215  14.487  20.974  0.00  0.00    +0.000 NA
ATOM      8  C   UNL     1      -3.221  15.188  21.544  0.00  0.00    +0.000 A 
ATOM      9  N   UNL     1      -3.208  16.588  21.431  0.00  0.00    +0.000 N 
ATOM     10  C   UNL     1      -4.202  14.432  22.156  0.00  0.00    +0.000 A 
ATOM     11  C   UNL     1      -4.149  13.051  22.038  0.00  0.00    +0.000 A 
ATOM     12  N   UNL     1      -5.193  12.457  22.700  0.00  0.00    +0.000 NA
ATOM     13  C   UNL     1      -5.877  13.451  23.218  0.00  0.00    +0.000 A 
ATOM     14  N   UNL     1      -5.340  14.665  22.879  0.00  0.00    +0.000 N 
ATOM     15  C   UNL     1      -5.900  15.940  23.240  0.00  0.00    +0.000 C 
ATOM     16  N   UNL     1      -3.213  12.386  21.344  0.00  0.00    +0.000 NA
ATOM     17  C   UNL     1      -1.549  11.493  19.207  0.00  0.00    +0.000 C 
ATOM     18  C   UNL     1      -0.902  10.163  19.625  0.00  0.00    +0.000 C 
ATOM     19  H   UNL     1      -4.036  17.048  21.772  0.00  0.00    +0.000 HD
ENDROOT
BRANCH   9  20
ATOM     20  C   UNL     1      -2.705  17.259  20.283  0.00  0.00    +0.000 A 
ATOM     21  C   UNL     1      -1.338  17.169  19.949  0.00  0.00    +0.000 A 
ATOM     22  C   UNL     1      -0.762  17.848  18.864  0.00  0.00    +0.000 A 
ATOM     23  C   UNL     1      -1.636  18.563  18.038  0.00  0.00    +0.000 A 
ATOM     24  C   UNL     1      -3.007  18.630  18.320  0.00  0.00    +0.000 A 
ATOM     25  C   UNL     1      -3.552  18.003  19.451  0.00  0.00    +0.000 A 
ATOM     26  C   UNL     1      -5.006  18.186  19.777  0.00  0.00    +0.000 C 
BRANCH  22  27
ATOM     27  C   UNL     1       0.764  17.820  18.686  0.00  0.00    +0.000 C 
ATOM     28  C   UNL     1       1.164  18.437  17.329  0.00  0.00    +0.000 C 
ATOM     29  C   UNL     1       1.521  18.586  19.791  0.00  0.00    +0.000 C 
ATOM     30  C   UNL     1       1.258  16.353  18.726  0.00  0.00    +0.000 C 
ENDBRANCH  22  27
ENDBRANCH   9  20
BRANCH   1  34
ATOM     31  C   UNL     1       2.878   7.055  18.318  0.00  0.00    +0.000 A 
ATOM     32  C   UNL     1       2.417   7.054  19.630  0.00  0.00    +0.000 A 
ATOM     33  C   UNL     1       1.632   8.105  20.115  0.00  0.00    +0.000 A 
ATOM     34  C   UNL     1       1.308   9.205  19.310  0.00  0.00    +0.000 A 
ATOM     35  C   UNL     1       1.796   9.190  17.991  0.00  0.00    +0.000 A 
ATOM     36  C   UNL     1       2.572   8.133  17.495  0.00  0.00    +0.000 A 
BRANCH  31  38
ATOM     37  C   UNL     1       2.942   4.770  17.735  0.00  0.00    +0.000 C 
ATOM     38  O   UNL     1       3.650   5.981  17.971  0.00  0.00    +0.000 OA
ENDBRANCH  31  38
ENDBRANCH   1  34
TORSDOF 4
ENDMDL
