MODEL 1
REMARK VINA RESULT:      -6.8      0.000      0.000
REMARK  Name = 
REMARK  6 active torsions:
REMARK  status: ('A' for Active; 'I' for Inactive)
REMARK    1  A    between atoms: C_1  and  C_2
REMARK    2  A    between atoms: C_2  and  C_15
REMARK    3  A    between atoms: N_3  and  N_4
REMARK    4  A    between atoms: C_5  and  S_6
REMARK    5  A    between atoms: N_7  and  C_8
REMARK    6  A    between atoms: C_8  and  C_9
REMARK                            x       y       z     vdW  Elec       q    Type
REMARK                         _______ _______ _______ _____ _____    ______ ____
ROOT
ATOM      1  N   UNL     1       2.396   7.203  19.138  0.00  0.00    +0.000 NA
ATOM      2  C   UNL     1       2.618   5.927  19.233  0.00  0.00    +0.000 C 
ATOM      3  N   UNL     1       3.185   5.157  18.258  0.00  0.00    +0.000 N 
ATOM      4  H   UNL     1       3.361   4.198  18.522  0.00  0.00    +0.000 HD
ENDROOT
BRANCH   1   7
ATOM      5  C   UNL     1       1.127   9.582  18.602  0.00  0.00    +0.000 C 
ATOM      6  C   UNL     1       1.215   8.951  19.978  0.00  0.00    +0.000 C 
ATOM      7  N   UNL     1       1.797   7.813  20.241  0.00  0.00    +0.000 NA
BRANCH   6   8
ATOM      8  C   UNL     1       0.559   9.714  21.085  0.00  0.00    +0.000 A 
ATOM      9  C   UNL     1       0.203   9.079  22.257  0.00  0.00    +0.000 A 
ATOM     10  C   UNL     1      -0.395   9.876  23.201  0.00  0.00    +0.000 A 
ATOM     11  N   UNL     1      -0.628  11.190  23.026  0.00  0.00    +0.000 NA
ATOM     12  C   UNL     1      -0.239  11.703  21.850  0.00  0.00    +0.000 A 
ATOM     13  N   UNL     1       0.351  11.030  20.857  0.00  0.00    +0.000 NA
ENDBRANCH   6   8
ENDBRANCH   1   7
BRANCH   2  14
ATOM     14  S   UNL     1       2.224   4.992  20.670  0.00  0.00    +0.000 S 
ATOM     15  H   UNL     1       1.006   5.540  20.781  0.00  0.00    +0.000 HD
ENDBRANCH   2  14
BRANCH   3  16
ATOM     16  C   UNL     1       4.091   5.689  17.258  0.00  0.00    +0.000 C 
BRANCH  16  17
ATOM     17  C   UNL     1       5.485   5.946  17.790  0.00  0.00    +0.000 A 
ATOM     18  C   UNL     1       6.295   6.910  17.192  0.00  0.00    +0.000 A 
ATOM     19  C   UNL     1       7.563   7.154  17.711  0.00  0.00    +0.000 A 
ATOM     20  C   UNL     1       7.987   6.440  18.823  0.00  0.00    +0.000 A 
ATOM     21  C   UNL     1       7.124   5.502  19.365  0.00  0.00    +0.000 A 
ATOM     22  N   UNL     1       5.890   5.239  18.879  0.00  0.00    +0.000 NA
ENDBRANCH  16  17
ENDBRANCH   3  16
TORSDOF 5
ENDMDL
MODEL 2
REMARK VINA RESULT:      -6.7      4.779      6.701
REMARK  Name = 
REMARK  6 active torsions:
REMARK  status: ('A' for Active; 'I' for Inactive)
REMARK    1  A    between atoms: C_1  and  C_2
REMARK    2  A    between atoms: C_2  and  C_15
REMARK    3  A    between atoms: N_3  and  N_4
REMARK    4  A    between atoms: C_5  and  S_6
REMARK    5  A    between atoms: N_7  and  C_8
REMARK    6  A    between atoms: C_8  and  C_9
REMARK                            x       y       z     vdW  Elec       q    Type
REMARK                         _______ _______ _______ _____ _____    ______ ____
ROOT
ATOM      1  N   UNL     1       6.500   6.969  17.326  0.00  0.00    +0.000 NA
ATOM      2  C   UNL     1       7.507   6.970  18.146  0.00  0.00    +0.000 C 
ATOM      3  N   UNL     1       8.404   7.990  18.282  0.00  0.00    +0.000 N 
ATOM      4  H   UNL     1       9.081   7.867  19.021  0.00  0.00    +0.000 HD
ENDROOT
BRANCH   1   7
ATOM      5  C   UNL     1       3.832   7.421  17.812  0.00  0.00    +0.000 C 
ATOM      6  C   UNL     1       4.439   6.051  17.578  0.00  0.00    +0.000 C 
ATOM      7  N   UNL     1       5.700   5.826  17.327  0.00  0.00    +0.000 NA
BRANCH   6   8
ATOM      8  C   UNL     1       3.484   4.901  17.633  0.00  0.00    +0.000 A 
ATOM      9  C   UNL     1       2.150   5.112  17.917  0.00  0.00    +0.000 A 
ATOM     10  C   UNL     1       1.368   3.985  17.945  0.00  0.00    +0.000 A 
ATOM     11  N   UNL     1       1.840   2.746  17.715  0.00  0.00    +0.000 NA
ATOM     12  C   UNL     1       3.151   2.657  17.448  0.00  0.00    +0.000 A 
ATOM     13  N   UNL     1       4.011   3.680  17.392  0.00  0.00    +0.000 NA
ENDBRANCH   6   8
ENDBRANCH   1   7
BRANCH   2  14
ATOM     14  S   UNL     1       7.857   5.632  19.234  0.00  0.00    +0.000 S 
ATOM     15  H   UNL     1       6.715   4.996  18.934  0.00  0.00    +0.000 HD
ENDBRANCH   2  14
BRANCH   3  16
ATOM     16  C   UNL     1       8.082   9.371  17.977  0.00  0.00    +0.000 C 
BRANCH  16  17
ATOM     17  C   UNL     1       9.084  10.358  18.539  0.00  0.00    +0.000 A 
ATOM     18  C   UNL     1       9.242  10.484  19.918  0.00  0.00    +0.000 A 
ATOM     19  C   UNL     1      10.187  11.375  20.418  0.00  0.00    +0.000 A 
ATOM     20  C   UNL     1      10.962  12.108  19.530  0.00  0.00    +0.000 A 
ATOM     21  C   UNL     1      10.751  11.924  18.173  0.00  0.00    +0.000 A 
ATOM     22  N   UNL     1       9.835  11.071  17.658  0.00  0.00    +0.000 NA
ENDBRANCH  16  17
ENDBRANCH   3  16
TORSDOF 5
ENDMDL
MODEL 3
REMARK VINA RESULT:      -6.7      0.677      1.086
REMARK  Name = 
REMARK  6 active torsions:
REMARK  status: ('A' for Active; 'I' for Inactive)
REMARK    1  A    between atoms: C_1  and  C_2
REMARK    2  A    between atoms: C_2  and  C_15
REMARK    3  A    between atoms: N_3  and  N_4
REMARK    4  A    between atoms: C_5  and  S_6
REMARK    5  A    between atoms: N_7  and  C_8
REMARK    6  A    between atoms: C_8  and  C_9
REMARK                            x       y       z     vdW  Elec       q    Type
REMARK                         _______ _______ _______ _____ _____    ______ ____
ROOT
ATOM      1  N   UNL     1       2.419   7.320  19.039  0.00  0.00    +0.000 NA
ATOM      2  C   UNL     1       2.667   6.047  19.111  0.00  0.00    +0.000 C 
ATOM      3  N   UNL     1       3.250   5.306  18.123  0.00  0.00    +0.000 N 
ATOM      4  H   UNL     1       3.445   4.347  18.369  0.00  0.00    +0.000 HD
ENDROOT
BRANCH   1   7
ATOM      5  C   UNL     1       1.149   9.710  18.555  0.00  0.00    +0.000 C 
ATOM      6  C   UNL     1       1.225   9.041  19.915  0.00  0.00    +0.000 C 
ATOM      7  N   UNL     1       1.808   7.897  20.152  0.00  0.00    +0.000 NA
BRANCH   6   8
ATOM      8  C   UNL     1       0.556   9.771  21.036  0.00  0.00    +0.000 A 
ATOM      9  C   UNL     1       0.142   9.093  22.163  0.00  0.00    +0.000 A 
ATOM     10  C   UNL     1      -0.462   9.864  23.125  0.00  0.00    +0.000 A 
ATOM     11  N   UNL     1      -0.650  11.191  23.006  0.00  0.00    +0.000 NA
ATOM     12  C   UNL     1      -0.207  11.747  21.869  0.00  0.00    +0.000 A 
ATOM     13  N   UNL     1       0.395  11.102  20.864  0.00  0.00    +0.000 NA
ENDBRANCH   6   8
ENDBRANCH   1   7
BRANCH   2  14
ATOM     14  S   UNL     1       2.291   5.078  20.530  0.00  0.00    +0.000 S 
ATOM     15  H   UNL     1       3.183   4.130  20.209  0.00  0.00    +0.000 HD
ENDBRANCH   2  14
BRANCH   3  16
ATOM     16  C   UNL     1       4.145   5.874  17.134  0.00  0.00    +0.000 C 
BRANCH  16  17
ATOM     17  C   UNL     1       5.527   6.171  17.677  0.00  0.00    +0.000 A 
ATOM     18  C   UNL     1       6.032   5.431  18.745  0.00  0.00    +0.000 A 
ATOM     19  C   UNL     1       7.315   5.697  19.214  0.00  0.00    +0.000 A 
ATOM     20  C   UNL     1       8.069   6.685  18.596  0.00  0.00    +0.000 A 
ATOM     21  C   UNL     1       7.502   7.374  17.537  0.00  0.00    +0.000 A 
ATOM     22  N   UNL     1       6.255   7.143  17.065  0.00  0.00    +0.000 NA
ENDBRANCH  16  17
ENDBRANCH   3  16
TORSDOF 5
ENDMDL
MODEL 4
REMARK VINA RESULT:      -6.6      4.813      6.619
REMARK  Name = 
REMARK  6 active torsions:
REMARK  status: ('A' for Active; 'I' for Inactive)
REMARK    1  A    between atoms: C_1  and  C_2
REMARK    2  A    between atoms: C_2  and  C_15
REMARK    3  A    between atoms: N_3  and  N_4
REMARK    4  A    between atoms: C_5  and  S_6
REMARK    5  A    between atoms: N_7  and  C_8
REMARK    6  A    between atoms: C_8  and  C_9
REMARK                            x       y       z     vdW  Elec       q    Type
REMARK                         _______ _______ _______ _____ _____    ______ ____
ROOT
ATOM      1  N   UNL     1       6.527   6.958  17.468  0.00  0.00    +0.000 NA
ATOM      2  C   UNL     1       7.572   6.958  18.240  0.00  0.00    +0.000 C 
ATOM      3  N   UNL     1       8.481   7.973  18.325  0.00  0.00    +0.000 N 
ATOM      4  H   UNL     1       9.191   7.850  19.033  0.00  0.00    +0.000 HD
ENDROOT
BRANCH   1   7
ATOM      5  C   UNL     1       3.824   7.453  17.527  0.00  0.00    +0.000 C 
ATOM      6  C   UNL     1       4.440   6.068  17.562  0.00  0.00    +0.000 C 
ATOM      7  N   UNL     1       5.721   5.820  17.515  0.00  0.00    +0.000 NA
BRANCH   6   8
ATOM      8  C   UNL     1       3.474   4.929  17.642  0.00  0.00    +0.000 A 
ATOM      9  C   UNL     1       2.159   5.152  17.996  0.00  0.00    +0.000 A 
ATOM     10  C   UNL     1       1.364   4.034  18.041  0.00  0.00    +0.000 A 
ATOM     11  N   UNL     1       1.806   2.794  17.762  0.00  0.00    +0.000 NA
ATOM     12  C   UNL     1       3.102   2.694  17.427  0.00  0.00    +0.000 A 
ATOM     13  N   UNL     1       3.971   3.707  17.350  0.00  0.00    +0.000 NA
ENDBRANCH   6   8
ENDBRANCH   1   7
BRANCH   2  14
ATOM     14  S   UNL     1       7.965   5.625  19.318  0.00  0.00    +0.000 S 
ATOM     15  H   UNL     1       6.910   5.861  20.112  0.00  0.00    +0.000 HD
ENDBRANCH   2  14
BRANCH   3  16
ATOM     16  C   UNL     1       8.153   9.354  18.027  0.00  0.00    +0.000 C 
BRANCH  16  17
ATOM     17  C   UNL     1       9.107  10.346  18.658  0.00  0.00    +0.000 A 
ATOM     18  C   UNL     1       9.917  11.146  17.854  0.00  0.00    +0.000 A 
ATOM     19  C   UNL     1      10.767  12.073  18.449  0.00  0.00    +0.000 A 
ATOM     20  C   UNL     1      10.779  12.190  19.832  0.00  0.00    +0.000 A 
ATOM     21  C   UNL     1       9.942  11.363  20.565  0.00  0.00    +0.000 A 
ATOM     22  N   UNL     1       9.111  10.449  20.014  0.00  0.00    +0.000 NA
ENDBRANCH  16  17
ENDBRANCH   3  16
TORSDOF 5
ENDMDL
MODEL 5
REMARK VINA RESULT:      -6.6      4.354      6.688
REMARK  Name = 
REMARK  6 active torsions:
REMARK  status: ('A' for Active; 'I' for Inactive)
REMARK    1  A    between atoms: C_1  and  C_2
REMARK    2  A    between atoms: C_2  and  C_15
REMARK    3  A    between atoms: N_3  and  N_4
REMARK    4  A    between atoms: C_5  and  S_6
REMARK    5  A    between atoms: N_7  and  C_8
REMARK    6  A    between atoms: C_8  and  C_9
REMARK                            x       y       z     vdW  Elec       q    Type
REMARK                         _______ _______ _______ _____ _____    ______ ____
ROOT
ATOM      1  N   UNL     1       6.576   7.073  17.242  0.00  0.00    +0.000 NA
ATOM      2  C   UNL     1       7.551   7.064  18.100  0.00  0.00    +0.000 C 
ATOM      3  N   UNL     1       8.453   8.075  18.270  0.00  0.00    +0.000 N 
ATOM      4  H   UNL     1       9.099   7.944  19.035  0.00  0.00    +0.000 HD
ENDROOT
BRANCH   1   7
ATOM      5  C   UNL     1       3.919   7.530  17.780  0.00  0.00    +0.000 C 
ATOM      6  C   UNL     1       4.510   6.164  17.487  0.00  0.00    +0.000 C 
ATOM      7  N   UNL     1       5.766   5.938  17.211  0.00  0.00    +0.000 NA
BRANCH   6   8
ATOM      8  C   UNL     1       3.546   5.021  17.512  0.00  0.00    +0.000 A 
ATOM      9  C   UNL     1       3.957   3.752  17.159  0.00  0.00    +0.000 A 
ATOM     10  C   UNL     1       2.987   2.782  17.215  0.00  0.00    +0.000 A 
ATOM     11  N   UNL     1       1.715   3.021  17.586  0.00  0.00    +0.000 NA
ATOM     12  C   UNL     1       1.427   4.291  17.908  0.00  0.00    +0.000 A 
ATOM     13  N   UNL     1       2.283   5.317  17.893  0.00  0.00    +0.000 NA
ENDBRANCH   6   8
ENDBRANCH   1   7
BRANCH   2  14
ATOM     14  S   UNL     1       7.847   5.721  19.198  0.00  0.00    +0.000 S 
ATOM     15  H   UNL     1       7.476   4.805  18.292  0.00  0.00    +0.000 HD
ENDBRANCH   2  14
BRANCH   3  16
ATOM     16  C   UNL     1       8.155   9.460  17.956  0.00  0.00    +0.000 C 
BRANCH  16  17
ATOM     17  C   UNL     1       9.145  10.436  18.555  0.00  0.00    +0.000 A 
ATOM     18  C   UNL     1       9.240  10.575  19.939  0.00  0.00    +0.000 A 
ATOM     19  C   UNL     1      10.176  11.456  20.473  0.00  0.00    +0.000 A 
ATOM     20  C   UNL     1      11.004  12.165  19.615  0.00  0.00    +0.000 A 
ATOM     21  C   UNL     1      10.855  11.970  18.252  0.00  0.00    +0.000 A 
ATOM     22  N   UNL     1       9.950  11.127  17.703  0.00  0.00    +0.000 NA
ENDBRANCH  16  17
ENDBRANCH   3  16
TORSDOF 5
ENDMDL
MODEL 6
REMARK VINA RESULT:      -6.5      1.244      1.500
REMARK  Name = 
REMARK  6 active torsions:
REMARK  status: ('A' for Active; 'I' for Inactive)
REMARK    1  A    between atoms: C_1  and  C_2
REMARK    2  A    between atoms: C_2  and  C_15
REMARK    3  A    between atoms: N_3  and  N_4
REMARK    4  A    between atoms: C_5  and  S_6
REMARK    5  A    between atoms: N_7  and  C_8
REMARK    6  A    between atoms: C_8  and  C_9
REMARK                            x       y       z     vdW  Elec       q    Type
REMARK                         _______ _______ _______ _____ _____    ______ ____
ROOT
ATOM      1  N   UNL     1       3.129   5.878  18.393  0.00  0.00    +0.000 NA
ATOM      2  C   UNL     1       3.412   4.640  18.665  0.00  0.00    +0.000 C 
ATOM      3  N   UNL     1       4.107   3.798  17.844  0.00  0.00    +0.000 N 
ATOM      4  H   UNL     1       4.312   2.892  18.239  0.00  0.00    +0.000 HD
ENDROOT
BRANCH   1   7
ATOM      5  C   UNL     1       2.562   8.492  17.756  0.00  0.00    +0.000 C 
ATOM      6  C   UNL     1       2.154   7.819  19.053  0.00  0.00    +0.000 C 
ATOM      7  N   UNL     1       2.400   6.574  19.358  0.00  0.00    +0.000 NA
BRANCH   6   8
ATOM      8  C   UNL     1       1.402   8.678  20.021  0.00  0.00    +0.000 A 
ATOM      9  C   UNL     1       1.307   8.315  21.348  0.00  0.00    +0.000 A 
ATOM     10  C   UNL     1       0.591   9.175  22.143  0.00  0.00    +0.000 A 
ATOM     11  N   UNL     1       0.012  10.302  21.689  0.00  0.00    +0.000 NA
ATOM     12  C   UNL     1       0.170  10.557  20.381  0.00  0.00    +0.000 A 
ATOM     13  N   UNL     1       0.843   9.798  19.511  0.00  0.00    +0.000 NA
ENDBRANCH   6   8
ENDBRANCH   1   7
BRANCH   2  14
ATOM     14  S   UNL     1       2.943   3.859  20.170  0.00  0.00    +0.000 S 
ATOM     15  H   UNL     1       2.577   2.727  19.552  0.00  0.00    +0.000 HD
ENDBRANCH   2  14
BRANCH   3  16
ATOM     16  C   UNL     1       5.068   4.266  16.863  0.00  0.00    +0.000 C 
BRANCH  16  17
ATOM     17  C   UNL     1       6.133   5.167  17.451  0.00  0.00    +0.000 A 
ATOM     18  C   UNL     1       6.360   6.429  16.906  0.00  0.00    +0.000 A 
ATOM     19  C   UNL     1       7.323   7.256  17.477  0.00  0.00    +0.000 A 
ATOM     20  C   UNL     1       8.026   6.810  18.587  0.00  0.00    +0.000 A 
ATOM     21  C   UNL     1       7.741   5.545  19.076  0.00  0.00    +0.000 A 
ATOM     22  N   UNL     1       6.816   4.717  18.538  0.00  0.00    +0.000 NA
ENDBRANCH  16  17
ENDBRANCH   3  16
TORSDOF 5
ENDMDL
MODEL 7
REMARK VINA RESULT:      -6.5      1.019      1.492
REMARK  Name = 
REMARK  6 active torsions:
REMARK  status: ('A' for Active; 'I' for Inactive)
REMARK    1  A    between atoms: C_1  and  C_2
REMARK    2  A    between atoms: C_2  and  C_15
REMARK    3  A    between atoms: N_3  and  N_4
REMARK    4  A    between atoms: C_5  and  S_6
REMARK    5  A    between atoms: N_7  and  C_8
REMARK    6  A    between atoms: C_8  and  C_9
REMARK                            x       y       z     vdW  Elec       q    Type
REMARK                         _______ _______ _______ _____ _____    ______ ____
ROOT
ATOM      1  N   UNL     1       2.967   6.237  18.671  0.00  0.00    +0.000 NA
ATOM      2  C   UNL     1       3.195   4.979  18.899  0.00  0.00    +0.000 C 
ATOM      3  N   UNL     1       3.782   4.118  18.016  0.00  0.00    +0.000 N 
ATOM      4  H   UNL     1       3.960   3.192  18.379  0.00  0.00    +0.000 HD
ENDROOT
BRANCH   1   7
ATOM      5  C   UNL     1       1.995   8.704  17.944  0.00  0.00    +0.000 C 
ATOM      6  C   UNL     1       1.908   8.129  19.345  0.00  0.00    +0.000 C 
ATOM      7  N   UNL     1       2.348   6.952  19.697  0.00  0.00    +0.000 NA
BRANCH   6   8
ATOM      8  C   UNL     1       1.248   9.002  20.364  0.00  0.00    +0.000 A 
ATOM      9  C   UNL     1       0.689  10.208  19.995  0.00  0.00    +0.000 A 
ATOM     10  C   UNL     1       0.115  10.927  21.014  0.00  0.00    +0.000 A 
ATOM     11  N   UNL     1       0.082  10.511  22.293  0.00  0.00    +0.000 NA
ATOM     12  C   UNL     1       0.655   9.322  22.538  0.00  0.00    +0.000 A 
ATOM     13  N   UNL     1       1.243   8.534  21.632  0.00  0.00    +0.000 NA
ENDBRANCH   6   8
ENDBRANCH   1   7
BRANCH   2  14
ATOM     14  S   UNL     1       2.785   4.192  20.418  0.00  0.00    +0.000 S 
ATOM     15  H   UNL     1       3.444   5.102  21.150  0.00  0.00    +0.000 HD
ENDBRANCH   2  14
BRANCH   3  16
ATOM     16  C   UNL     1       4.699   4.552  16.980  0.00  0.00    +0.000 C 
BRANCH  16  17
ATOM     17  C   UNL     1       5.890   5.318  17.518  0.00  0.00    +0.000 A 
ATOM     18  C   UNL     1       6.214   6.566  16.990  0.00  0.00    +0.000 A 
ATOM     19  C   UNL     1       7.294   7.270  17.515  0.00  0.00    +0.000 A 
ATOM     20  C   UNL     1       8.016   6.717  18.563  0.00  0.00    +0.000 A 
ATOM     21  C   UNL     1       7.631   5.474  19.038  0.00  0.00    +0.000 A 
ATOM     22  N   UNL     1       6.590   4.764  18.544  0.00  0.00    +0.000 NA
ENDBRANCH  16  17
ENDBRANCH   3  16
TORSDOF 5
ENDMDL
MODEL 8
REMARK VINA RESULT:      -6.5      4.410      6.621
REMARK  Name = 
REMARK  6 active torsions:
REMARK  status: ('A' for Active; 'I' for Inactive)
REMARK    1  A    between atoms: C_1  and  C_2
REMARK    2  A    between atoms: C_2  and  C_15
REMARK    3  A    between atoms: N_3  and  N_4
REMARK    4  A    between atoms: C_5  and  S_6
REMARK    5  A    between atoms: N_7  and  C_8
REMARK    6  A    between atoms: C_8  and  C_9
REMARK                            x       y       z     vdW  Elec       q    Type
REMARK                         _______ _______ _______ _____ _____    ______ ____
ROOT
ATOM      1  N   UNL     1       6.500   7.010  17.165  0.00  0.00    +0.000 NA
ATOM      2  C   UNL     1       7.485   7.065  18.009  0.00  0.00    +0.000 C 
ATOM      3  N   UNL     1       8.351   8.114  18.132  0.00  0.00    +0.000 N 
ATOM      4  H   UNL     1       9.011   8.033  18.892  0.00  0.00    +0.000 HD
ENDROOT
BRANCH   1   7
ATOM      5  C   UNL     1       3.839   7.387  17.746  0.00  0.00    +0.000 C 
ATOM      6  C   UNL     1       4.473   6.035  17.480  0.00  0.00    +0.000 C 
ATOM      7  N   UNL     1       5.730   5.846  17.184  0.00  0.00    +0.000 NA
BRANCH   6   8
ATOM      8  C   UNL     1       3.552   4.860  17.559  0.00  0.00    +0.000 A 
ATOM      9  C   UNL     1       4.034   3.580  17.375  0.00  0.00    +0.000 A 
ATOM     10  C   UNL     1       3.098   2.580  17.465  0.00  0.00    +0.000 A 
ATOM     11  N   UNL     1       1.795   2.800  17.716  0.00  0.00    +0.000 NA
ATOM     12  C   UNL     1       1.437   4.083  17.879  0.00  0.00    +0.000 A 
ATOM     13  N   UNL     1       2.254   5.139  17.815  0.00  0.00    +0.000 NA
ENDBRANCH   6   8
ENDBRANCH   1   7
BRANCH   2  14
ATOM     14  S   UNL     1       7.843   5.774  19.149  0.00  0.00    +0.000 S 
ATOM     15  H   UNL     1       7.234   6.404  20.164  0.00  0.00    +0.000 HD
ENDBRANCH   2  14
BRANCH   3  16
ATOM     16  C   UNL     1       8.000   9.475  17.774  0.00  0.00    +0.000 C 
BRANCH  16  17
ATOM     17  C   UNL     1       8.849  10.516  18.472  0.00  0.00    +0.000 A 
ATOM     18  C   UNL     1       9.173  11.705  17.821  0.00  0.00    +0.000 A 
ATOM     19  C   UNL     1       9.930  12.664  18.488  0.00  0.00    +0.000 A 
ATOM     20  C   UNL     1      10.333  12.420  19.793  0.00  0.00    +0.000 A 
ATOM     21  C   UNL     1       9.968  11.217  20.376  0.00  0.00    +0.000 A 
ATOM     22  N   UNL     1       9.239  10.264  19.750  0.00  0.00    +0.000 NA
ENDBRANCH  16  17
ENDBRANCH   3  16
TORSDOF 5
ENDMDL
MODEL 9
REMARK VINA RESULT:      -6.4      1.122      1.727
REMARK  Name = 
REMARK  6 active torsions:
REMARK  status: ('A' for Active; 'I' for Inactive)
REMARK    1  A    between atoms: C_1  and  C_2
REMARK    2  A    between atoms: C_2  and  C_15
REMARK    3  A    between atoms: N_3  and  N_4
REMARK    4  A    between atoms: C_5  and  S_6
REMARK    5  A    between atoms: N_7  and  C_8
REMARK    6  A    between atoms: C_8  and  C_9
REMARK                            x       y       z     vdW  Elec       q    Type
REMARK                         _______ _______ _______ _____ _____    ______ ____
ROOT
ATOM      1  N   UNL     1       2.939   6.730  18.457  0.00  0.00    +0.000 NA
ATOM      2  C   UNL     1       3.151   5.451  18.542  0.00  0.00    +0.000 C 
ATOM      3  N   UNL     1       3.780   4.698  17.592  0.00  0.00    +0.000 N 
ATOM      4  H   UNL     1       3.937   3.734  17.848  0.00  0.00    +0.000 HD
ENDROOT
BRANCH   1   7
ATOM      5  C   UNL     1       1.679   9.103  17.873  0.00  0.00    +0.000 C 
ATOM      6  C   UNL     1       1.692   8.456  19.245  0.00  0.00    +0.000 C 
ATOM      7  N   UNL     1       2.269   7.320  19.529  0.00  0.00    +0.000 NA
BRANCH   6   8
ATOM      8  C   UNL     1       0.964   9.199  20.320  0.00  0.00    +0.000 A 
ATOM      9  C   UNL     1       0.246  10.338  20.019  0.00  0.00    +0.000 A 
ATOM     10  C   UNL     1      -0.378  10.939  21.083  0.00  0.00    +0.000 A 
ATOM     11  N   UNL     1      -0.313  10.474  22.344  0.00  0.00    +0.000 NA
ATOM     12  C   UNL     1       0.412   9.359  22.522  0.00  0.00    +0.000 A 
ATOM     13  N   UNL     1       1.062   8.686  21.567  0.00  0.00    +0.000 NA
ENDBRANCH   6   8
ENDBRANCH   1   7
BRANCH   2  14
ATOM     14  S   UNL     1       2.661   4.490  19.931  0.00  0.00    +0.000 S 
ATOM     15  H   UNL     1       3.780   4.773  20.613  0.00  0.00    +0.000 HD
ENDBRANCH   2  14
BRANCH   3  16
ATOM     16  C   UNL     1       4.752   5.246  16.665  0.00  0.00    +0.000 C 
BRANCH  16  17
ATOM     17  C   UNL     1       5.944   5.879  17.351  0.00  0.00    +0.000 A 
ATOM     18  C   UNL     1       6.599   5.202  18.379  0.00  0.00    +0.000 A 
ATOM     19  C   UNL     1       7.711   5.786  18.979  0.00  0.00    +0.000 A 
ATOM     20  C   UNL     1       8.151   7.023  18.531  0.00  0.00    +0.000 A 
ATOM     21  C   UNL     1       7.451   7.632  17.502  0.00  0.00    +0.000 A 
ATOM     22  N   UNL     1       6.364   7.093  16.904  0.00  0.00    +0.000 NA
ENDBRANCH  16  17
ENDBRANCH   3  16
TORSDOF 5
ENDMDL
