MODEL 1
REMARK VINA RESULT:      -8.3      0.000      0.000
REMARK  Name = 
REMARK  7 active torsions:
REMARK  status: ('A' for Active; 'I' for Inactive)
REMARK    1  A    between atoms: S_2  and  O_4
REMARK    2  A    between atoms: S_2  and  C_5
REMARK    3  A    between atoms: C_10  and  N_11
REMARK    4  A    between atoms: N_12  and  C_13
REMARK    5  A    between atoms: C_15  and  S_16
REMARK    6  A    between atoms: S_16  and  O_19
REMARK    7  A    between atoms: C_26  and  O_27
REMARK                            x       y       z     vdW  Elec       q    Type
REMARK                         _______ _______ _______ _____ _____    ______ ____
ROOT
ATOM      1  N   UNL     1       2.115   3.016  18.763  0.00  0.00    +0.000 NA
ATOM      2  N   UNL     1       3.187   2.554  18.282  0.00  0.00    +0.000 NA
ENDROOT
BRANCH   1   8
ATOM      3  C   UNL     1       1.392   9.410  19.352  0.00  0.00    +0.000 A 
ATOM      4  C   UNL     1       1.664   9.119  18.016  0.00  0.00    +0.000 A 
ATOM      5  C   UNL     1       1.853   7.792  17.630  0.00  0.00    +0.000 A 
ATOM      6  C   UNL     1       1.798   6.757  18.576  0.00  0.00    +0.000 A 
ATOM      7  C   UNL     1       2.034   5.426  18.196  0.00  0.00    +0.000 A 
ATOM      8  C   UNL     1       1.935   4.373  19.113  0.00  0.00    +0.000 A 
ATOM      9  C   UNL     1       1.700   4.691  20.457  0.00  0.00    +0.000 A 
ATOM     10  C   UNL     1       1.484   6.015  20.864  0.00  0.00    +0.000 A 
ATOM     11  C   UNL     1       1.512   7.058  19.928  0.00  0.00    +0.000 A 
ATOM     12  C   UNL     1       1.299   8.393  20.307  0.00  0.00    +0.000 A 
BRANCH   3  14
ATOM     13  O   UNL     1       2.045  11.915  18.955  0.00  0.00    +0.000 OA
ATOM     14  S   UNL     1       1.256  11.100  19.852  0.00  0.00    +0.000 S 
ATOM     15  O   UNL     1       1.443  11.156  21.284  0.00  0.00    +0.000 OA
BRANCH  14  16
ATOM     16  O   UNL     1      -0.283  11.494  19.554  0.00  0.00    +0.000 OA
ATOM     17  H   UNL     1      -0.816  10.673  19.581  0.00  0.00    +0.000 HD
ENDBRANCH  14  16
ENDBRANCH   3  14
ENDBRANCH   1   8
BRANCH   2  18
ATOM     18  C   UNL     1       4.311   3.366  18.012  0.00  0.00    +0.000 A 
ATOM     19  C   UNL     1       4.635   3.762  16.719  0.00  0.00    +0.000 A 
ATOM     20  C   UNL     1       5.636   4.715  16.505  0.00  0.00    +0.000 A 
ATOM     21  C   UNL     1       6.428   5.215  17.572  0.00  0.00    +0.000 A 
ATOM     22  C   UNL     1       7.452   6.187  17.461  0.00  0.00    +0.000 A 
ATOM     23  C   UNL     1       8.160   6.609  18.580  0.00  0.00    +0.000 A 
ATOM     24  C   UNL     1       7.851   6.034  19.794  0.00  0.00    +0.000 A 
ATOM     25  N   UNL     1       6.889   5.099  19.951  0.00  0.00    +0.000 NA
ATOM     26  C   UNL     1       6.187   4.712  18.864  0.00  0.00    +0.000 A 
ATOM     27  C   UNL     1       5.146   3.801  19.053  0.00  0.00    +0.000 A 
BRANCH  20  28
ATOM     28  S   UNL     1       5.788   5.381  14.871  0.00  0.00    +0.000 S 
ATOM     29  O   UNL     1       5.289   4.391  13.945  0.00  0.00    +0.000 OA
ATOM     30  O   UNL     1       5.289   6.735  14.912  0.00  0.00    +0.000 OA
BRANCH  28  31
ATOM     31  O   UNL     1       7.376   5.446  14.578  0.00  0.00    +0.000 OA
ATOM     32  H   UNL     1       7.644   4.570  14.224  0.00  0.00    +0.000 HD
ENDBRANCH  28  31
ENDBRANCH  20  28
BRANCH  27  33
ATOM     33  O   UNL     1       4.930   3.339  20.337  0.00  0.00    +0.000 OA
ATOM     34  H   UNL     1       5.100   4.118  20.911  0.00  0.00    +0.000 HD
ENDBRANCH  27  33
ENDBRANCH   2  18
TORSDOF 7
ENDMDL
MODEL 2
REMARK VINA RESULT:      -7.9      2.189      3.322
REMARK  Name = 
REMARK  7 active torsions:
REMARK  status: ('A' for Active; 'I' for Inactive)
REMARK    1  A    between atoms: S_2  and  O_4
REMARK    2  A    between atoms: S_2  and  C_5
REMARK    3  A    between atoms: C_10  and  N_11
REMARK    4  A    between atoms: N_12  and  C_13
REMARK    5  A    between atoms: C_15  and  S_16
REMARK    6  A    between atoms: S_16  and  O_19
REMARK    7  A    between atoms: C_26  and  O_27
REMARK                            x       y       z     vdW  Elec       q    Type
REMARK                         _______ _______ _______ _____ _____    ______ ____
ROOT
ATOM      1  N   UNL     1       2.270   4.221  20.125  0.00  0.00    +0.000 NA
ATOM      2  N   UNL     1       3.229   3.518  19.699  0.00  0.00    +0.000 NA
ENDROOT
BRANCH   1   8
ATOM      3  C   UNL     1       1.201  10.568  19.551  0.00  0.00    +0.000 A 
ATOM      4  C   UNL     1       0.947  10.196  20.871  0.00  0.00    +0.000 A 
ATOM      5  C   UNL     1       1.117   8.865  21.251  0.00  0.00    +0.000 A 
ATOM      6  C   UNL     1       1.513   7.898  20.315  0.00  0.00    +0.000 A 
ATOM      7  C   UNL     1       1.639   6.550  20.686  0.00  0.00    +0.000 A 
ATOM      8  C   UNL     1       2.081   5.578  19.780  0.00  0.00    +0.000 A 
ATOM      9  C   UNL     1       2.292   5.965  18.451  0.00  0.00    +0.000 A 
ATOM     10  C   UNL     1       2.150   7.301  18.051  0.00  0.00    +0.000 A 
ATOM     11  C   UNL     1       1.778   8.283  18.979  0.00  0.00    +0.000 A 
ATOM     12  C   UNL     1       1.629   9.629  18.608  0.00  0.00    +0.000 A 
BRANCH   3  14
ATOM     13  O   UNL     1       1.483  13.129  20.018  0.00  0.00    +0.000 OA
ATOM     14  S   UNL     1       0.885  12.234  19.052  0.00  0.00    +0.000 S 
ATOM     15  O   UNL     1      -0.512  12.333  18.695  0.00  0.00    +0.000 OA
BRANCH  14  16
ATOM     16  O   UNL     1       1.741  12.425  17.696  0.00  0.00    +0.000 OA
ATOM     17  H   UNL     1       1.177  12.160  16.941  0.00  0.00    +0.000 HD
ENDBRANCH  14  16
ENDBRANCH   3  14
ENDBRANCH   1   8
BRANCH   2  18
ATOM     18  C   UNL     1       4.196   4.017  18.798  0.00  0.00    +0.000 A 
ATOM     19  C   UNL     1       5.339   4.675  19.241  0.00  0.00    +0.000 A 
ATOM     20  C   UNL     1       6.364   4.987  18.342  0.00  0.00    +0.000 A 
ATOM     21  C   UNL     1       6.226   4.759  16.947  0.00  0.00    +0.000 A 
ATOM     22  C   UNL     1       7.206   5.027  15.962  0.00  0.00    +0.000 A 
ATOM     23  C   UNL     1       6.963   4.755  14.620  0.00  0.00    +0.000 A 
ATOM     24  C   UNL     1       5.732   4.239  14.279  0.00  0.00    +0.000 A 
ATOM     25  N   UNL     1       4.762   3.972  15.181  0.00  0.00    +0.000 NA
ATOM     26  C   UNL     1       5.013   4.215  16.485  0.00  0.00    +0.000 A 
ATOM     27  C   UNL     1       4.031   3.865  17.413  0.00  0.00    +0.000 A 
BRANCH  20  28
ATOM     28  S   UNL     1       7.897   5.552  19.023  0.00  0.00    +0.000 S 
ATOM     29  O   UNL     1       8.886   4.525  18.791  0.00  0.00    +0.000 OA
ATOM     30  O   UNL     1       8.077   6.920  18.597  0.00  0.00    +0.000 OA
BRANCH  28  31
ATOM     31  O   UNL     1       7.684   5.555  20.624  0.00  0.00    +0.000 OA
ATOM     32  H   UNL     1       8.221   4.820  20.992  0.00  0.00    +0.000 HD
ENDBRANCH  28  31
ENDBRANCH  20  28
BRANCH  27  33
ATOM     33  O   UNL     1       2.858   3.321  16.924  0.00  0.00    +0.000 OA
ATOM     34  H   UNL     1       3.122   2.879  16.087  0.00  0.00    +0.000 HD
ENDBRANCH  27  33
ENDBRANCH   2  18
TORSDOF 7
ENDMDL
MODEL 3
REMARK VINA RESULT:      -7.8      0.863      1.185
REMARK  Name = 
REMARK  7 active torsions:
REMARK  status: ('A' for Active; 'I' for Inactive)
REMARK    1  A    between atoms: S_2  and  O_4
REMARK    2  A    between atoms: S_2  and  C_5
REMARK    3  A    between atoms: C_10  and  N_11
REMARK    4  A    between atoms: N_12  and  C_13
REMARK    5  A    between atoms: C_15  and  S_16
REMARK    6  A    between atoms: S_16  and  O_19
REMARK    7  A    between atoms: C_26  and  O_27
REMARK                            x       y       z     vdW  Elec       q    Type
REMARK                         _______ _______ _______ _____ _____    ______ ____
ROOT
ATOM      1  N   UNL     1       2.486   2.229  18.360  0.00  0.00    +0.000 NA
ATOM      2  N   UNL     1       3.564   1.995  17.745  0.00  0.00    +0.000 NA
ENDROOT
BRANCH   1   8
ATOM      3  C   UNL     1       1.342   8.303  20.247  0.00  0.00    +0.000 A 
ATOM      4  C   UNL     1       1.803   8.330  18.931  0.00  0.00    +0.000 A 
ATOM      5  C   UNL     1       2.113   7.130  18.290  0.00  0.00    +0.000 A 
ATOM      6  C   UNL     1       1.991   5.906  18.965  0.00  0.00    +0.000 A 
ATOM      7  C   UNL     1       2.348   4.702  18.337  0.00  0.00    +0.000 A 
ATOM      8  C   UNL     1       2.187   3.467  18.974  0.00  0.00    +0.000 A 
ATOM      9  C   UNL     1       1.762   3.465  20.309  0.00  0.00    +0.000 A 
ATOM     10  C   UNL     1       1.423   4.656  20.965  0.00  0.00    +0.000 A 
ATOM     11  C   UNL     1       1.515   5.885  20.298  0.00  0.00    +0.000 A 
ATOM     12  C   UNL     1       1.181   7.093  20.929  0.00  0.00    +0.000 A 
BRANCH   3  14
ATOM     13  O   UNL     1       1.986   9.946  22.182  0.00  0.00    +0.000 OA
ATOM     14  S   UNL     1       1.050   9.831  21.086  0.00  0.00    +0.000 S 
ATOM     15  O   UNL     1      -0.375   9.958  21.293  0.00  0.00    +0.000 OA
BRANCH  14  16
ATOM     16  O   UNL     1       1.483  10.971  20.025  0.00  0.00    +0.000 OA
ATOM     17  H   UNL     1       2.234  10.626  19.499  0.00  0.00    +0.000 HD
ENDBRANCH  14  16
ENDBRANCH   3  14
ENDBRANCH   1   8
BRANCH   2  18
ATOM     18  C   UNL     1       4.572   2.971  17.581  0.00  0.00    +0.000 A 
ATOM     19  C   UNL     1       4.886   3.498  16.333  0.00  0.00    +0.000 A 
ATOM     20  C   UNL     1       5.751   4.592  16.228  0.00  0.00    +0.000 A 
ATOM     21  C   UNL     1       6.425   5.120  17.361  0.00  0.00    +0.000 A 
ATOM     22  C   UNL     1       7.305   6.228  17.361  0.00  0.00    +0.000 A 
ATOM     23  C   UNL     1       7.906   6.663  18.537  0.00  0.00    +0.000 A 
ATOM     24  C   UNL     1       7.634   5.968  19.695  0.00  0.00    +0.000 A 
ATOM     25  N   UNL     1       6.808   4.901  19.746  0.00  0.00    +0.000 NA
ATOM     26  C   UNL     1       6.208   4.498  18.605  0.00  0.00    +0.000 A 
ATOM     27  C   UNL     1       5.299   3.442  18.686  0.00  0.00    +0.000 A 
BRANCH  20  28
ATOM     28  S   UNL     1       5.869   5.385  14.650  0.00  0.00    +0.000 S 
ATOM     29  O   UNL     1       5.374   4.462  13.655  0.00  0.00    +0.000 OA
ATOM     30  O   UNL     1       5.348   6.723  14.801  0.00  0.00    +0.000 OA
BRANCH  28  31
ATOM     31  O   UNL     1       7.452   5.500  14.343  0.00  0.00    +0.000 OA
ATOM     32  H   UNL     1       7.549   5.878  13.442  0.00  0.00    +0.000 HD
ENDBRANCH  28  31
ENDBRANCH  20  28
BRANCH  27  33
ATOM     33  O   UNL     1       5.101   2.866  19.926  0.00  0.00    +0.000 OA
ATOM     34  H   UNL     1       4.935   3.625  20.527  0.00  0.00    +0.000 HD
ENDBRANCH  27  33
ENDBRANCH   2  18
TORSDOF 7
ENDMDL
MODEL 4
REMARK VINA RESULT:      -7.8      0.147      1.097
REMARK  Name = 
REMARK  7 active torsions:
REMARK  status: ('A' for Active; 'I' for Inactive)
REMARK    1  A    between atoms: S_2  and  O_4
REMARK    2  A    between atoms: S_2  and  C_5
REMARK    3  A    between atoms: C_10  and  N_11
REMARK    4  A    between atoms: N_12  and  C_13
REMARK    5  A    between atoms: C_15  and  S_16
REMARK    6  A    between atoms: S_16  and  O_19
REMARK    7  A    between atoms: C_26  and  O_27
REMARK                            x       y       z     vdW  Elec       q    Type
REMARK                         _______ _______ _______ _____ _____    ______ ____
ROOT
ATOM      1  N   UNL     1       2.238   2.889  18.703  0.00  0.00    +0.000 NA
ATOM      2  N   UNL     1       3.326   2.456  18.228  0.00  0.00    +0.000 NA
ENDROOT
BRANCH   1   8
ATOM      3  C   UNL     1       1.347   9.259  19.326  0.00  0.00    +0.000 A 
ATOM      4  C   UNL     1       1.628   8.983  17.989  0.00  0.00    +0.000 A 
ATOM      5  C   UNL     1       1.851   7.663  17.596  0.00  0.00    +0.000 A 
ATOM      6  C   UNL     1       1.823   6.622  18.536  0.00  0.00    +0.000 A 
ATOM      7  C   UNL     1       2.094   5.299  18.149  0.00  0.00    +0.000 A 
ATOM      8  C   UNL     1       2.023   4.240  19.060  0.00  0.00    +0.000 A 
ATOM      9  C   UNL     1       1.780   4.544  20.406  0.00  0.00    +0.000 A 
ATOM     10  C   UNL     1       1.530   5.859  20.820  0.00  0.00    +0.000 A 
ATOM     11  C   UNL     1       1.530   6.908  19.890  0.00  0.00    +0.000 A 
ATOM     12  C   UNL     1       1.281   8.235  20.275  0.00  0.00    +0.000 A 
BRANCH   3  14
ATOM     13  O   UNL     1       1.639  11.069  21.197  0.00  0.00    +0.000 OA
ATOM     14  S   UNL     1       1.167  10.943  19.835  0.00  0.00    +0.000 S 
ATOM     15  O   UNL     1      -0.154  11.384  19.450  0.00  0.00    +0.000 OA
BRANCH  14  16
ATOM     16  O   UNL     1       2.228  11.760  18.932  0.00  0.00    +0.000 OA
ATOM     17  H   UNL     1       2.984  12.009  19.502  0.00  0.00    +0.000 HD
ENDBRANCH  14  16
ENDBRANCH   3  14
ENDBRANCH   1   8
BRANCH   2  18
ATOM     18  C   UNL     1       4.432   3.297  17.973  0.00  0.00    +0.000 A 
ATOM     19  C   UNL     1       4.782   3.678  16.682  0.00  0.00    +0.000 A 
ATOM     20  C   UNL     1       5.759   4.656  16.477  0.00  0.00    +0.000 A 
ATOM     21  C   UNL     1       6.505   5.202  17.555  0.00  0.00    +0.000 A 
ATOM     22  C   UNL     1       7.501   6.202  17.454  0.00  0.00    +0.000 A 
ATOM     23  C   UNL     1       8.164   6.667  18.584  0.00  0.00    +0.000 A 
ATOM     24  C   UNL     1       7.837   6.108  19.800  0.00  0.00    +0.000 A 
ATOM     25  N   UNL     1       6.899   5.146  19.948  0.00  0.00    +0.000 NA
ATOM     26  C   UNL     1       6.241   4.717  18.851  0.00  0.00    +0.000 A 
ATOM     27  C   UNL     1       5.223   3.778  19.028  0.00  0.00    +0.000 A 
BRANCH  20  28
ATOM     28  S   UNL     1       5.939   5.294  14.835  0.00  0.00    +0.000 S 
ATOM     29  O   UNL     1       7.346   5.527  14.605  0.00  0.00    +0.000 OA
ATOM     30  O   UNL     1       5.130   4.473  13.965  0.00  0.00    +0.000 OA
BRANCH  28  31
ATOM     31  O   UNL     1       5.285   6.771  14.872  0.00  0.00    +0.000 OA
ATOM     32  H   UNL     1       5.572   7.197  15.709  0.00  0.00    +0.000 HD
ENDBRANCH  28  31
ENDBRANCH  20  28
BRANCH  27  33
ATOM     33  O   UNL     1       4.984   3.336  20.315  0.00  0.00    +0.000 OA
ATOM     34  H   UNL     1       5.575   3.882  20.878  0.00  0.00    +0.000 HD
ENDBRANCH  27  33
ENDBRANCH   2  18
TORSDOF 7
ENDMDL
MODEL 5
REMARK VINA RESULT:      -7.5      2.124      3.033
REMARK  Name = 
REMARK  7 active torsions:
REMARK  status: ('A' for Active; 'I' for Inactive)
REMARK    1  A    between atoms: S_2  and  O_4
REMARK    2  A    between atoms: S_2  and  C_5
REMARK    3  A    between atoms: C_10  and  N_11
REMARK    4  A    between atoms: N_12  and  C_13
REMARK    5  A    between atoms: C_15  and  S_16
REMARK    6  A    between atoms: S_16  and  O_19
REMARK    7  A    between atoms: C_26  and  O_27
REMARK                            x       y       z     vdW  Elec       q    Type
REMARK                         _______ _______ _______ _____ _____    ______ ____
ROOT
ATOM      1  N   UNL     1       2.402   3.626  20.134  0.00  0.00    +0.000 NA
ATOM      2  N   UNL     1       3.336   3.024  19.532  0.00  0.00    +0.000 NA
ENDROOT
BRANCH   1   8
ATOM      3  C   UNL     1       1.649   9.884  18.710  0.00  0.00    +0.000 A 
ATOM      4  C   UNL     1       2.132   9.230  17.578  0.00  0.00    +0.000 A 
ATOM      5  C   UNL     1       2.369   7.856  17.630  0.00  0.00    +0.000 A 
ATOM      6  C   UNL     1       2.152   7.138  18.816  0.00  0.00    +0.000 A 
ATOM      7  C   UNL     1       2.435   5.764  18.883  0.00  0.00    +0.000 A 
ATOM      8  C   UNL     1       2.180   5.018  20.039  0.00  0.00    +0.000 A 
ATOM      9  C   UNL     1       1.733   5.702  21.178  0.00  0.00    +0.000 A 
ATOM     10  C   UNL     1       1.466   7.077  21.141  0.00  0.00    +0.000 A 
ATOM     11  C   UNL     1       1.654   7.805  19.959  0.00  0.00    +0.000 A 
ATOM     12  C   UNL     1       1.393   9.184  19.893  0.00  0.00    +0.000 A 
BRANCH   3  14
ATOM     13  O   UNL     1       2.042  12.204  19.860  0.00  0.00    +0.000 OA
ATOM     14  S   UNL     1       1.448  11.640  18.668  0.00  0.00    +0.000 S 
ATOM     15  O   UNL     1       0.079  11.922  18.301  0.00  0.00    +0.000 OA
BRANCH  14  16
ATOM     16  O   UNL     1       2.383  12.130  17.445  0.00  0.00    +0.000 OA
ATOM     17  H   UNL     1       3.263  11.711  17.549  0.00  0.00    +0.000 HD
ENDBRANCH  14  16
ENDBRANCH   3  14
ENDBRANCH   1   8
BRANCH   2  18
ATOM     18  C   UNL     1       4.237   3.689  18.670  0.00  0.00    +0.000 A 
ATOM     19  C   UNL     1       5.340   4.382  19.155  0.00  0.00    +0.000 A 
ATOM     20  C   UNL     1       6.311   4.865  18.274  0.00  0.00    +0.000 A 
ATOM     21  C   UNL     1       6.151   4.775  16.866  0.00  0.00    +0.000 A 
ATOM     22  C   UNL     1       7.079   5.219  15.894  0.00  0.00    +0.000 A 
ATOM     23  C   UNL     1       6.818   5.072  14.536  0.00  0.00    +0.000 A 
ATOM     24  C   UNL     1       5.619   4.501  14.169  0.00  0.00    +0.000 A 
ATOM     25  N   UNL     1       4.698   4.067  15.057  0.00  0.00    +0.000 NA
ATOM     26  C   UNL     1       4.968   4.190  16.374  0.00  0.00    +0.000 A 
ATOM     27  C   UNL     1       4.042   3.671  17.280  0.00  0.00    +0.000 A 
BRANCH  20  28
ATOM     28  S   UNL     1       7.818   5.473  18.978  0.00  0.00    +0.000 S 
ATOM     29  O   UNL     1       8.841   4.477  18.754  0.00  0.00    +0.000 OA
ATOM     30  O   UNL     1       7.963   6.847  18.562  0.00  0.00    +0.000 OA
BRANCH  28  31
ATOM     31  O   UNL     1       7.583   5.459  20.577  0.00  0.00    +0.000 OA
ATOM     32  H   UNL     1       8.282   4.893  20.971  0.00  0.00    +0.000 HD
ENDBRANCH  28  31
ENDBRANCH  20  28
BRANCH  27  33
ATOM     33  O   UNL     1       2.900   3.092  16.760  0.00  0.00    +0.000 OA
ATOM     34  H   UNL     1       2.969   3.237  15.791  0.00  0.00    +0.000 HD
ENDBRANCH  27  33
ENDBRANCH   2  18
TORSDOF 7
ENDMDL
MODEL 6
REMARK VINA RESULT:      -7.4      2.220      3.281
REMARK  Name = 
REMARK  7 active torsions:
REMARK  status: ('A' for Active; 'I' for Inactive)
REMARK    1  A    between atoms: S_2  and  O_4
REMARK    2  A    between atoms: S_2  and  C_5
REMARK    3  A    between atoms: C_10  and  N_11
REMARK    4  A    between atoms: N_12  and  C_13
REMARK    5  A    between atoms: C_15  and  S_16
REMARK    6  A    between atoms: S_16  and  O_19
REMARK    7  A    between atoms: C_26  and  O_27
REMARK                            x       y       z     vdW  Elec       q    Type
REMARK                         _______ _______ _______ _____ _____    ______ ____
ROOT
ATOM      1  N   UNL     1       2.081   4.372  20.129  0.00  0.00    +0.000 NA
ATOM      2  N   UNL     1       3.027   3.635  19.735  0.00  0.00    +0.000 NA
ENDROOT
BRANCH   1   8
ATOM      3  C   UNL     1       1.247  10.747  19.476  0.00  0.00    +0.000 A 
ATOM      4  C   UNL     1       0.961  10.399  20.795  0.00  0.00    +0.000 A 
ATOM      5  C   UNL     1       1.078   9.066  21.191  0.00  0.00    +0.000 A 
ATOM      6  C   UNL     1       1.453   8.076  20.270  0.00  0.00    +0.000 A 
ATOM      7  C   UNL     1       1.525   6.728  20.657  0.00  0.00    +0.000 A 
ATOM      8  C   UNL     1       1.945   5.732  19.768  0.00  0.00    +0.000 A 
ATOM      9  C   UNL     1       2.189   6.097  18.438  0.00  0.00    +0.000 A 
ATOM     10  C   UNL     1       2.101   7.433  18.023  0.00  0.00    +0.000 A 
ATOM     11  C   UNL     1       1.751   8.437  18.935  0.00  0.00    +0.000 A 
ATOM     12  C   UNL     1       1.655   9.784  18.548  0.00  0.00    +0.000 A 
BRANCH   3  14
ATOM     13  O   UNL     1       2.117  12.820  18.132  0.00  0.00    +0.000 OA
ATOM     14  S   UNL     1       0.998  12.418  18.955  0.00  0.00    +0.000 S 
ATOM     15  O   UNL     1       0.596  13.187  20.111  0.00  0.00    +0.000 OA
BRANCH  14  16
ATOM     16  O   UNL     1      -0.271  12.352  17.958  0.00  0.00    +0.000 OA
ATOM     17  H   UNL     1      -0.498  11.410  17.818  0.00  0.00    +0.000 HD
ENDBRANCH  14  16
ENDBRANCH   3  14
ENDBRANCH   1   8
BRANCH   2  18
ATOM     18  C   UNL     1       4.034   4.094  18.857  0.00  0.00    +0.000 A 
ATOM     19  C   UNL     1       5.174   4.740  19.323  0.00  0.00    +0.000 A 
ATOM     20  C   UNL     1       6.234   5.011  18.453  0.00  0.00    +0.000 A 
ATOM     21  C   UNL     1       6.140   4.753  17.060  0.00  0.00    +0.000 A 
ATOM     22  C   UNL     1       7.157   4.979  16.102  0.00  0.00    +0.000 A 
ATOM     23  C   UNL     1       6.954   4.680  14.760  0.00  0.00    +0.000 A 
ATOM     24  C   UNL     1       5.725   4.180  14.389  0.00  0.00    +0.000 A 
ATOM     25  N   UNL     1       4.720   3.953  15.263  0.00  0.00    +0.000 NA
ATOM     26  C   UNL     1       4.931   4.222  16.569  0.00  0.00    +0.000 A 
ATOM     27  C   UNL     1       3.912   3.913  17.470  0.00  0.00    +0.000 A 
BRANCH  20  28
ATOM     28  S   UNL     1       7.755   5.563  19.172  0.00  0.00    +0.000 S 
ATOM     29  O   UNL     1       8.120   6.804  18.530  0.00  0.00    +0.000 OA
ATOM     30  O   UNL     1       7.625   5.433  20.604  0.00  0.00    +0.000 OA
BRANCH  28  31
ATOM     31  O   UNL     1       8.874   4.507  18.677  0.00  0.00    +0.000 OA
ATOM     32  H   UNL     1       9.746   4.953  18.742  0.00  0.00    +0.000 HD
ENDBRANCH  28  31
ENDBRANCH  20  28
BRANCH  27  33
ATOM     33  O   UNL     1       2.746   3.380  16.954  0.00  0.00    +0.000 OA
ATOM     34  H   UNL     1       2.955   3.195  16.012  0.00  0.00    +0.000 HD
ENDBRANCH  27  33
ENDBRANCH   2  18
TORSDOF 7
ENDMDL
MODEL 7
REMARK VINA RESULT:      -7.4      7.143     10.253
REMARK  Name = 
REMARK  7 active torsions:
REMARK  status: ('A' for Active; 'I' for Inactive)
REMARK    1  A    between atoms: S_2  and  O_4
REMARK    2  A    between atoms: S_2  and  C_5
REMARK    3  A    between atoms: C_10  and  N_11
REMARK    4  A    between atoms: N_12  and  C_13
REMARK    5  A    between atoms: C_15  and  S_16
REMARK    6  A    between atoms: S_16  and  O_19
REMARK    7  A    between atoms: C_26  and  O_27
REMARK                            x       y       z     vdW  Elec       q    Type
REMARK                         _______ _______ _______ _____ _____    ______ ____
ROOT
ATOM      1  N   UNL     1       0.478  14.887  22.439  0.00  0.00    +0.000 NA
ATOM      2  N   UNL     1       1.245  14.187  21.720  0.00  0.00    +0.000 NA
ENDROOT
BRANCH   1   8
ATOM      3  C   UNL     1      -5.622  13.095  23.594  0.00  0.00    +0.000 A 
ATOM      4  C   UNL     1      -4.770  12.214  24.259  0.00  0.00    +0.000 A 
ATOM      5  C   UNL     1      -3.391  12.398  24.171  0.00  0.00    +0.000 A 
ATOM      6  C   UNL     1      -2.856  13.442  23.400  0.00  0.00    +0.000 A 
ATOM      7  C   UNL     1      -1.467  13.600  23.273  0.00  0.00    +0.000 A 
ATOM      8  C   UNL     1      -0.912  14.662  22.551  0.00  0.00    +0.000 A 
ATOM      9  C   UNL     1      -1.784  15.512  21.857  0.00  0.00    +0.000 A 
ATOM     10  C   UNL     1      -3.174  15.360  21.950  0.00  0.00    +0.000 A 
ATOM     11  C   UNL     1      -3.725  14.338  22.735  0.00  0.00    +0.000 A 
ATOM     12  C   UNL     1      -5.114  14.162  22.847  0.00  0.00    +0.000 A 
BRANCH   3  14
ATOM     13  O   UNL     1      -7.889  12.970  22.290  0.00  0.00    +0.000 OA
ATOM     14  S   UNL     1      -7.364  12.795  23.626  0.00  0.00    +0.000 S 
ATOM     15  O   UNL     1      -7.917  13.509  24.754  0.00  0.00    +0.000 OA
BRANCH  14  16
ATOM     16  O   UNL     1      -7.502  11.217  23.942  0.00  0.00    +0.000 OA
ATOM     17  H   UNL     1      -8.159  10.839  23.322  0.00  0.00    +0.000 HD
ENDBRANCH  14  16
ENDBRANCH   3  14
ENDBRANCH   1   8
BRANCH   2  18
ATOM     18  C   UNL     1       0.786  13.077  20.976  0.00  0.00    +0.000 A 
ATOM     19  C   UNL     1       1.048  11.770  21.372  0.00  0.00    +0.000 A 
ATOM     20  C   UNL     1       0.423  10.700  20.725  0.00  0.00    +0.000 A 
ATOM     21  C   UNL     1      -0.394  10.896  19.581  0.00  0.00    +0.000 A 
ATOM     22  C   UNL     1      -1.079   9.884  18.865  0.00  0.00    +0.000 A 
ATOM     23  C   UNL     1      -1.860  10.195  17.759  0.00  0.00    +0.000 A 
ATOM     24  C   UNL     1      -1.928  11.514  17.367  0.00  0.00    +0.000 A 
ATOM     25  N   UNL     1      -1.288  12.515  18.011  0.00  0.00    +0.000 NA
ATOM     26  C   UNL     1      -0.551  12.210  19.100  0.00  0.00    +0.000 A 
ATOM     27  C   UNL     1       0.043  13.262  19.800  0.00  0.00    +0.000 A 
BRANCH  20  28
ATOM     28  S   UNL     1       0.577   9.099  21.467  0.00  0.00    +0.000 S 
ATOM     29  O   UNL     1      -0.736   8.695  21.915  0.00  0.00    +0.000 OA
ATOM     30  O   UNL     1       1.384   8.292  20.584  0.00  0.00    +0.000 OA
BRANCH  28  31
ATOM     31  O   UNL     1       1.414   9.334  22.829  0.00  0.00    +0.000 OA
ATOM     32  H   UNL     1       0.793   9.700  23.495  0.00  0.00    +0.000 HD
ENDBRANCH  28  31
ENDBRANCH  20  28
BRANCH  27  33
ATOM     33  O   UNL     1      -0.145  14.539  19.307  0.00  0.00    +0.000 OA
ATOM     34  H   UNL     1      -0.297  14.413  18.345  0.00  0.00    +0.000 HD
ENDBRANCH  27  33
ENDBRANCH   2  18
TORSDOF 7
ENDMDL
MODEL 8
REMARK VINA RESULT:      -7.3      2.110      2.963
REMARK  Name = 
REMARK  7 active torsions:
REMARK  status: ('A' for Active; 'I' for Inactive)
REMARK    1  A    between atoms: S_2  and  O_4
REMARK    2  A    between atoms: S_2  and  C_5
REMARK    3  A    between atoms: C_10  and  N_11
REMARK    4  A    between atoms: N_12  and  C_13
REMARK    5  A    between atoms: C_15  and  S_16
REMARK    6  A    between atoms: S_16  and  O_19
REMARK    7  A    between atoms: C_26  and  O_27
REMARK                            x       y       z     vdW  Elec       q    Type
REMARK                         _______ _______ _______ _____ _____    ______ ____
ROOT
ATOM      1  N   UNL     1       2.216   3.547  19.993  0.00  0.00    +0.000 NA
ATOM      2  N   UNL     1       3.133   2.929  19.382  0.00  0.00    +0.000 NA
ENDROOT
BRANCH   1   8
ATOM      3  C   UNL     1       1.682   9.867  18.759  0.00  0.00    +0.000 A 
ATOM      4  C   UNL     1       2.099   9.225  17.594  0.00  0.00    +0.000 A 
ATOM      5  C   UNL     1       2.279   7.842  17.602  0.00  0.00    +0.000 A 
ATOM      6  C   UNL     1       2.072   7.101  18.776  0.00  0.00    +0.000 A 
ATOM      7  C   UNL     1       2.299   5.715  18.798  0.00  0.00    +0.000 A 
ATOM      8  C   UNL     1       2.050   4.950  19.943  0.00  0.00    +0.000 A 
ATOM      9  C   UNL     1       1.671   5.620  21.113  0.00  0.00    +0.000 A 
ATOM     10  C   UNL     1       1.461   7.005  21.121  0.00  0.00    +0.000 A 
ATOM     11  C   UNL     1       1.641   7.757  19.952  0.00  0.00    +0.000 A 
ATOM     12  C   UNL     1       1.437   9.146  19.931  0.00  0.00    +0.000 A 
BRANCH   3  14
ATOM     13  O   UNL     1       2.624  12.178  17.962  0.00  0.00    +0.000 OA
ATOM     14  S   UNL     1       1.555  11.631  18.768  0.00  0.00    +0.000 S 
ATOM     15  O   UNL     1       1.348  12.053  20.135  0.00  0.00    +0.000 OA
BRANCH  14  16
ATOM     16  O   UNL     1       0.195  11.948  17.957  0.00  0.00    +0.000 OA
ATOM     17  H   UNL     1      -0.393  11.168  18.032  0.00  0.00    +0.000 HD
ENDBRANCH  14  16
ENDBRANCH   3  14
ENDBRANCH   1   8
BRANCH   2  18
ATOM     18  C   UNL     1       4.070   3.584  18.552  0.00  0.00    +0.000 A 
ATOM     19  C   UNL     1       5.182   4.236  19.075  0.00  0.00    +0.000 A 
ATOM     20  C   UNL     1       6.185   4.708  18.223  0.00  0.00    +0.000 A 
ATOM     21  C   UNL     1       6.051   4.651  16.811  0.00  0.00    +0.000 A 
ATOM     22  C   UNL     1       7.011   5.089  15.867  0.00  0.00    +0.000 A 
ATOM     23  C   UNL     1       6.773   4.977  14.502  0.00  0.00    +0.000 A 
ATOM     24  C   UNL     1       5.566   4.449  14.098  0.00  0.00    +0.000 A 
ATOM     25  N   UNL     1       4.615   4.024  14.958  0.00  0.00    +0.000 NA
ATOM     26  C   UNL     1       4.862   4.112  16.283  0.00  0.00    +0.000 A 
ATOM     27  C   UNL     1       3.903   3.601  17.159  0.00  0.00    +0.000 A 
BRANCH  20  28
ATOM     28  S   UNL     1       7.694   5.257  18.970  0.00  0.00    +0.000 S 
ATOM     29  O   UNL     1       7.451   5.415  20.385  0.00  0.00    +0.000 OA
ATOM     30  O   UNL     1       8.757   4.432  18.447  0.00  0.00    +0.000 OA
BRANCH  28  31
ATOM     31  O   UNL     1       7.921   6.762  18.428  0.00  0.00    +0.000 OA
ATOM     32  H   UNL     1       7.054   7.092  18.107  0.00  0.00    +0.000 HD
ENDBRANCH  28  31
ENDBRANCH  20  28
BRANCH  27  33
ATOM     33  O   UNL     1       2.756   3.067  16.604  0.00  0.00    +0.000 OA
ATOM     34  H   UNL     1       2.927   3.065  15.637  0.00  0.00    +0.000 HD
ENDBRANCH  27  33
ENDBRANCH   2  18
TORSDOF 7
ENDMDL
MODEL 9
REMARK VINA RESULT:      -7.3      0.575      1.389
REMARK  Name = 
REMARK  7 active torsions:
REMARK  status: ('A' for Active; 'I' for Inactive)
REMARK    1  A    between atoms: S_2  and  O_4
REMARK    2  A    between atoms: S_2  and  C_5
REMARK    3  A    between atoms: C_10  and  N_11
REMARK    4  A    between atoms: N_12  and  C_13
REMARK    5  A    between atoms: C_15  and  S_16
REMARK    6  A    between atoms: S_16  and  O_19
REMARK    7  A    between atoms: C_26  and  O_27
REMARK                            x       y       z     vdW  Elec       q    Type
REMARK                         _______ _______ _______ _____ _____    ______ ____
ROOT
ATOM      1  N   UNL     1       2.082   3.216  18.783  0.00  0.00    +0.000 NA
ATOM      2  N   UNL     1       3.175   2.686  18.440  0.00  0.00    +0.000 NA
ENDROOT
BRANCH   1   8
ATOM      3  C   UNL     1       1.110   9.397  20.403  0.00  0.00    +0.000 A 
ATOM      4  C   UNL     1       0.950   8.612  21.544  0.00  0.00    +0.000 A 
ATOM      5  C   UNL     1       1.120   7.230  21.453  0.00  0.00    +0.000 A 
ATOM      6  C   UNL     1       1.422   6.626  20.224  0.00  0.00    +0.000 A 
ATOM      7  C   UNL     1       1.546   5.231  20.123  0.00  0.00    +0.000 A 
ATOM      8  C   UNL     1       1.896   4.611  18.918  0.00  0.00    +0.000 A 
ATOM      9  C   UNL     1       2.013   5.413  17.775  0.00  0.00    +0.000 A 
ATOM     10  C   UNL     1       1.870   6.806  17.847  0.00  0.00    +0.000 A 
ATOM     11  C   UNL     1       1.592   7.428  19.071  0.00  0.00    +0.000 A 
ATOM     12  C   UNL     1       1.444   8.821  19.173  0.00  0.00    +0.000 A 
BRANCH   3  14
ATOM     13  O   UNL     1       1.645  11.816  19.555  0.00  0.00    +0.000 OA
ATOM     14  S   UNL     1       0.793  11.133  20.503  0.00  0.00    +0.000 S 
ATOM     15  O   UNL     1       0.772  11.500  21.900  0.00  0.00    +0.000 OA
BRANCH  14  16
ATOM     16  O   UNL     1      -0.711  11.308  19.938  0.00  0.00    +0.000 OA
ATOM     17  H   UNL     1      -1.305  11.459  20.702  0.00  0.00    +0.000 HD
ENDBRANCH  14  16
ENDBRANCH   3  14
ENDBRANCH   1   8
BRANCH   2  18
ATOM     18  C   UNL     1       4.322   3.447  18.121  0.00  0.00    +0.000 A 
ATOM     19  C   UNL     1       4.652   3.759  16.806  0.00  0.00    +0.000 A 
ATOM     20  C   UNL     1       5.680   4.667  16.535  0.00  0.00    +0.000 A 
ATOM     21  C   UNL     1       6.492   5.203  17.569  0.00  0.00    +0.000 A 
ATOM     22  C   UNL     1       7.544   6.135  17.400  0.00  0.00    +0.000 A 
ATOM     23  C   UNL     1       8.271   6.597  18.491  0.00  0.00    +0.000 A 
ATOM     24  C   UNL     1       7.950   6.103  19.737  0.00  0.00    +0.000 A 
ATOM     25  N   UNL     1       6.961   5.208  19.950  0.00  0.00    +0.000 NA
ATOM     26  C   UNL     1       6.242   4.781  18.889  0.00  0.00    +0.000 A 
ATOM     27  C   UNL     1       5.175   3.915  19.132  0.00  0.00    +0.000 A 
BRANCH  20  28
ATOM     28  S   UNL     1       5.845   5.234  14.866  0.00  0.00    +0.000 S 
ATOM     29  O   UNL     1       5.318   4.205  13.999  0.00  0.00    +0.000 OA
ATOM     30  O   UNL     1       5.380   6.600  14.829  0.00  0.00    +0.000 OA
BRANCH  28  31
ATOM     31  O   UNL     1       7.433   5.240  14.568  0.00  0.00    +0.000 OA
ATOM     32  H   UNL     1       7.784   6.105  14.871  0.00  0.00    +0.000 HD
ENDBRANCH  28  31
ENDBRANCH  20  28
BRANCH  27  33
ATOM     33  O   UNL     1       4.951   3.534  20.442  0.00  0.00    +0.000 OA
ATOM     34  H   UNL     1       5.833   3.256  20.772  0.00  0.00    +0.000 HD
ENDBRANCH  27  33
ENDBRANCH   2  18
TORSDOF 7
ENDMDL
