MODEL 1
REMARK VINA RESULT:      -9.8      0.000      0.000
REMARK  Name = 
REMARK  10 active torsions:
REMARK  status: ('A' for Active; 'I' for Inactive)
REMARK    1  A    between atoms: C_1  and  C_2
REMARK    2  A    between atoms: C_3  and  C_4
REMARK    3  A    between atoms: N_6  and  C_7
REMARK    4  A    between atoms: C_7  and  C_8
REMARK    5  A    between atoms: C_7  and  C_15
REMARK    6  A    between atoms: C_8  and  C_9
REMARK    7  A    between atoms: C_15  and  C_17
REMARK    8  A    between atoms: N_19  and  C_20
REMARK    9  A    between atoms: C_20  and  C_21
REMARK   10  A    between atoms: C_21  and  C_22
REMARK                            x       y       z     vdW  Elec       q    Type
REMARK                         _______ _______ _______ _____ _____    ______ ____
ROOT
ATOM      1  C   UNL     1       4.580   5.918  17.710  0.00  0.00    +0.000 C 
ENDROOT
BRANCH   1   4
ATOM      2  C   UNL     1       2.942   6.860  19.460  0.00  0.00    +0.000 C 
ATOM      3  O   UNL     1       3.026   5.865  20.174  0.00  0.00    +0.000 OA
ATOM      4  N   UNL     1       3.715   7.005  18.306  0.00  0.00    +0.000 N 
ATOM      5  H   UNL     1       3.598   7.841  17.743  0.00  0.00    +0.000 HD
BRANCH   2   8
ATOM      6  C   UNL     1       2.019   9.025  17.449  0.00  0.00    +0.000 C 
ATOM      7  C   UNL     1       1.600   8.940  18.884  0.00  0.00    +0.000 A 
ATOM      8  C   UNL     1       1.937   8.004  19.801  0.00  0.00    +0.000 A 
ATOM      9  N   UNL     1       1.311   7.979  21.045  0.00  0.00    +0.000 N 
ATOM     10  C   UNL     1       0.425   9.022  21.458  0.00  0.00    +0.000 A 
ATOM     11  C   UNL     1      -0.355   8.971  22.624  0.00  0.00    +0.000 A 
ATOM     12  C   UNL     1      -0.823  10.123  23.259  0.00  0.00    +0.000 A 
ATOM     13  C   UNL     1      -0.779  11.318  22.580  0.00  0.00    +0.000 A 
ATOM     14  C   UNL     1      -0.310  11.314  21.260  0.00  0.00    +0.000 A 
ATOM     15  C   UNL     1       0.306  10.175  20.712  0.00  0.00    +0.000 A 
ATOM     16  C   UNL     1       0.765  10.108  19.321  0.00  0.00    +0.000 A 
ATOM     17  O   UNL     1       0.431  11.002  18.549  0.00  0.00    +0.000 OA
ATOM     18  H   UNL     1       1.964   7.716  21.781  0.00  0.00    +0.000 HD
ENDBRANCH   2   8
ENDBRANCH   1   4
BRANCH   1  19
ATOM     19  C   UNL     1       5.863   6.300  16.905  0.00  0.00    +0.000 C 
ATOM     20  O   UNL     1       5.971   6.240  15.679  0.00  0.00    +0.000 OA
BRANCH  19  21
ATOM     21  C   UNL     1       7.125   6.640  17.666  0.00  0.00    +0.000 C 
ATOM     22  O   UNL     1       7.870   5.732  17.994  0.00  0.00    +0.000 OA
ATOM     23  N   UNL     1       7.295   8.003  17.854  0.00  0.00    +0.000 N 
ATOM     24  H   UNL     1       6.508   8.581  17.571  0.00  0.00    +0.000 HD
BRANCH  23  25
ATOM     25  C   UNL     1       8.516   8.699  18.261  0.00  0.00    +0.000 C 
BRANCH  25  26
ATOM     26  C   UNL     1       8.675  10.121  17.755  0.00  0.00    +0.000 C 
BRANCH  26  27
ATOM     27  C   UNL     1       9.644  10.925  18.578  0.00  0.00    +0.000 A 
ATOM     28  C   UNL     1       9.709  10.910  19.992  0.00  0.00    +0.000 A 
ATOM     29  C   UNL     1      10.577  11.733  20.676  0.00  0.00    +0.000 A 
ATOM     30  C   UNL     1      11.465  12.474  19.938  0.00  0.00    +0.000 A 
ATOM     31  C   UNL     1      11.388  12.508  18.532  0.00  0.00    +0.000 A 
ATOM     32  C   UNL     1      10.458  11.770  17.853  0.00  0.00    +0.000 A 
ENDBRANCH  26  27
ENDBRANCH  25  26
ENDBRANCH  23  25
ENDBRANCH  19  21
ENDBRANCH   1  19
BRANCH   1  33
ATOM     33  C   UNL     1       3.818   4.904  16.811  0.00  0.00    +0.000 C 
BRANCH  33  34
ATOM     34  C   UNL     1       3.111   3.773  17.523  0.00  0.00    +0.000 A 
ATOM     35  C   UNL     1       3.784   2.656  18.033  0.00  0.00    +0.000 A 
ATOM     36  C   UNL     1       3.129   1.659  18.758  0.00  0.00    +0.000 A 
ATOM     37  C   UNL     1       1.766   1.767  18.981  0.00  0.00    +0.000 A 
ATOM     38  C   UNL     1       1.074   2.861  18.466  0.00  0.00    +0.000 A 
ATOM     39  C   UNL     1       1.724   3.863  17.758  0.00  0.00    +0.000 A 
ENDBRANCH  33  34
ENDBRANCH   1  33
TORSDOF 9
ENDMDL
MODEL 2
REMARK VINA RESULT:      -9.7      0.791      1.140
REMARK  Name = 
REMARK  10 active torsions:
REMARK  status: ('A' for Active; 'I' for Inactive)
REMARK    1  A    between atoms: C_1  and  C_2
REMARK    2  A    between atoms: C_3  and  C_4
REMARK    3  A    between atoms: N_6  and  C_7
REMARK    4  A    between atoms: C_7  and  C_8
REMARK    5  A    between atoms: C_7  and  C_15
REMARK    6  A    between atoms: C_8  and  C_9
REMARK    7  A    between atoms: C_15  and  C_17
REMARK    8  A    between atoms: N_19  and  C_20
REMARK    9  A    between atoms: C_20  and  C_21
REMARK   10  A    between atoms: C_21  and  C_22
REMARK                            x       y       z     vdW  Elec       q    Type
REMARK                         _______ _______ _______ _____ _____    ______ ____
ROOT
ATOM      1  C   UNL     1       5.085   5.226  18.135  0.00  0.00    +0.000 C 
ENDROOT
BRANCH   1   4
ATOM      2  C   UNL     1       3.272   6.261  19.644  0.00  0.00    +0.000 C 
ATOM      3  O   UNL     1       3.232   5.283  20.383  0.00  0.00    +0.000 OA
ATOM      4  N   UNL     1       4.189   6.354  18.594  0.00  0.00    +0.000 N 
ATOM      5  H   UNL     1       4.172   7.178  18.003  0.00  0.00    +0.000 HD
BRANCH   2   8
ATOM      6  C   UNL     1       2.452   8.223  17.393  0.00  0.00    +0.000 C 
ATOM      7  C   UNL     1       1.981   8.286  18.812  0.00  0.00    +0.000 A 
ATOM      8  C   UNL     1       2.271   7.444  19.831  0.00  0.00    +0.000 A 
ATOM      9  N   UNL     1       1.600   7.550  21.046  0.00  0.00    +0.000 N 
ATOM     10  C   UNL     1       0.714   8.637  21.319  0.00  0.00    +0.000 A 
ATOM     11  C   UNL     1      -0.109   8.711  22.454  0.00  0.00    +0.000 A 
ATOM     12  C   UNL     1      -0.585   9.926  22.953  0.00  0.00    +0.000 A 
ATOM     13  C   UNL     1      -0.500  11.046  22.161  0.00  0.00    +0.000 A 
ATOM     14  C   UNL     1       0.017  10.905  20.866  0.00  0.00    +0.000 A 
ATOM     15  C   UNL     1       0.637   9.710  20.458  0.00  0.00    +0.000 A 
ATOM     16  C   UNL     1       1.146   9.500  19.098  0.00  0.00    +0.000 A 
ATOM     17  O   UNL     1       0.853  10.315  18.230  0.00  0.00    +0.000 OA
ATOM     18  H   UNL     1       2.222   7.355  21.829  0.00  0.00    +0.000 HD
ENDBRANCH   2   8
ENDBRANCH   1   4
BRANCH   1  19
ATOM     19  C   UNL     1       6.458   5.549  17.462  0.00  0.00    +0.000 C 
ATOM     20  O   UNL     1       6.945   4.927  16.517  0.00  0.00    +0.000 OA
BRANCH  19  21
ATOM     21  C   UNL     1       7.338   6.612  18.081  0.00  0.00    +0.000 C 
ATOM     22  O   UNL     1       8.084   6.293  18.992  0.00  0.00    +0.000 OA
ATOM     23  N   UNL     1       7.209   7.849  17.469  0.00  0.00    +0.000 N 
ATOM     24  H   UNL     1       6.467   7.915  16.778  0.00  0.00    +0.000 HD
BRANCH  23  25
ATOM     25  C   UNL     1       8.104   9.000  17.592  0.00  0.00    +0.000 C 
BRANCH  25  26
ATOM     26  C   UNL     1       8.772   9.185  18.943  0.00  0.00    +0.000 C 
BRANCH  26  27
ATOM     27  C   UNL     1       9.454  10.519  19.074  0.00  0.00    +0.000 A 
ATOM     28  C   UNL     1      10.028  11.242  18.001  0.00  0.00    +0.000 A 
ATOM     29  C   UNL     1      10.703  12.424  18.215  0.00  0.00    +0.000 A 
ATOM     30  C   UNL     1      10.688  12.942  19.486  0.00  0.00    +0.000 A 
ATOM     31  C   UNL     1      10.138  12.216  20.559  0.00  0.00    +0.000 A 
ATOM     32  C   UNL     1       9.558  10.992  20.366  0.00  0.00    +0.000 A 
ENDBRANCH  26  27
ENDBRANCH  25  26
ENDBRANCH  23  25
ENDBRANCH  19  21
ENDBRANCH   1  19
BRANCH   1  33
ATOM     33  C   UNL     1       4.400   4.195  17.194  0.00  0.00    +0.000 C 
BRANCH  33  34
ATOM     34  C   UNL     1       3.207   3.458  17.760  0.00  0.00    +0.000 A 
ATOM     35  C   UNL     1       3.326   2.287  18.520  0.00  0.00    +0.000 A 
ATOM     36  C   UNL     1       2.223   1.663  19.103  0.00  0.00    +0.000 A 
ATOM     37  C   UNL     1       0.962   2.208  18.925  0.00  0.00    +0.000 A 
ATOM     38  C   UNL     1       0.819   3.362  18.157  0.00  0.00    +0.000 A 
ATOM     39  C   UNL     1       1.916   3.996  17.588  0.00  0.00    +0.000 A 
ENDBRANCH  33  34
ENDBRANCH   1  33
TORSDOF 9
ENDMDL
MODEL 3
REMARK VINA RESULT:      -9.5      1.291      1.711
REMARK  Name = 
REMARK  10 active torsions:
REMARK  status: ('A' for Active; 'I' for Inactive)
REMARK    1  A    between atoms: C_1  and  C_2
REMARK    2  A    between atoms: C_3  and  C_4
REMARK    3  A    between atoms: N_6  and  C_7
REMARK    4  A    between atoms: C_7  and  C_8
REMARK    5  A    between atoms: C_7  and  C_15
REMARK    6  A    between atoms: C_8  and  C_9
REMARK    7  A    between atoms: C_15  and  C_17
REMARK    8  A    between atoms: N_19  and  C_20
REMARK    9  A    between atoms: C_20  and  C_21
REMARK   10  A    between atoms: C_21  and  C_22
REMARK                            x       y       z     vdW  Elec       q    Type
REMARK                         _______ _______ _______ _____ _____    ______ ____
ROOT
ATOM      1  C   UNL     1       5.034   5.273  19.136  0.00  0.00    +0.000 C 
ENDROOT
BRANCH   1   4
ATOM      2  C   UNL     1       2.829   6.581  18.887  0.00  0.00    +0.000 C 
ATOM      3  O   UNL     1       2.518   5.994  17.855  0.00  0.00    +0.000 OA
ATOM      4  N   UNL     1       3.974   6.240  19.611  0.00  0.00    +0.000 N 
ATOM      5  H   UNL     1       4.194   6.765  20.451  0.00  0.00    +0.000 HD
BRANCH   2   8
ATOM      6  C   UNL     1       2.261   9.183  17.309  0.00  0.00    +0.000 C 
ATOM      7  C   UNL     1       1.781   8.888  18.696  0.00  0.00    +0.000 A 
ATOM      8  C   UNL     1       1.963   7.762  19.425  0.00  0.00    +0.000 A 
ATOM      9  N   UNL     1       1.292   7.589  20.632  0.00  0.00    +0.000 N 
ATOM     10  C   UNL     1       0.529   8.643  21.223  0.00  0.00    +0.000 A 
ATOM     11  C   UNL     1      -0.295   8.478  22.347  0.00  0.00    +0.000 A 
ATOM     12  C   UNL     1      -0.639   9.543  23.182  0.00  0.00    +0.000 A 
ATOM     13  C   UNL     1      -0.420  10.827  22.743  0.00  0.00    +0.000 A 
ATOM     14  C   UNL     1       0.094  11.008  21.452  0.00  0.00    +0.000 A 
ATOM     15  C   UNL     1       0.583   9.920  20.707  0.00  0.00    +0.000 A 
ATOM     16  C   UNL     1       1.083  10.053  19.334  0.00  0.00    +0.000 A 
ATOM     17  O   UNL     1       0.893  11.110  18.741  0.00  0.00    +0.000 OA
ATOM     18  H   UNL     1       1.879   7.111  21.315  0.00  0.00    +0.000 HD
ENDBRANCH   2   8
ENDBRANCH   1   4
BRANCH   1  19
ATOM     19  C   UNL     1       5.428   5.233  17.625  0.00  0.00    +0.000 C 
ATOM     20  O   UNL     1       5.406   4.225  16.916  0.00  0.00    +0.000 OA
BRANCH  19  21
ATOM     21  C   UNL     1       6.013   6.476  16.993  0.00  0.00    +0.000 C 
ATOM     22  O   UNL     1       5.500   6.908  15.974  0.00  0.00    +0.000 OA
ATOM     23  N   UNL     1       7.069   7.008  17.716  0.00  0.00    +0.000 N 
ATOM     24  H   UNL     1       7.389   6.441  18.496  0.00  0.00    +0.000 HD
BRANCH  23  25
ATOM     25  C   UNL     1       7.658   8.341  17.579  0.00  0.00    +0.000 C 
BRANCH  25  26
ATOM     26  C   UNL     1       8.636   8.753  18.665  0.00  0.00    +0.000 C 
BRANCH  26  27
ATOM     27  C   UNL     1       9.020  10.205  18.577  0.00  0.00    +0.000 A 
ATOM     28  C   UNL     1      10.066  10.811  19.313  0.00  0.00    +0.000 A 
ATOM     29  C   UNL     1      10.305  12.165  19.232  0.00  0.00    +0.000 A 
ATOM     30  C   UNL     1       9.579  12.885  18.317  0.00  0.00    +0.000 A 
ATOM     31  C   UNL     1       8.523  12.291  17.601  0.00  0.00    +0.000 A 
ATOM     32  C   UNL     1       8.215  10.968  17.755  0.00  0.00    +0.000 A 
ENDBRANCH  26  27
ENDBRANCH  25  26
ENDBRANCH  23  25
ENDBRANCH  19  21
ENDBRANCH   1  19
BRANCH   1  33
ATOM     33  C   UNL     1       4.785   3.791  19.535  0.00  0.00    +0.000 C 
BRANCH  33  34
ATOM     34  C   UNL     1       3.341   3.364  19.666  0.00  0.00    +0.000 A 
ATOM     35  C   UNL     1       2.600   3.538  20.842  0.00  0.00    +0.000 A 
ATOM     36  C   UNL     1       1.245   3.213  20.924  0.00  0.00    +0.000 A 
ATOM     37  C   UNL     1       0.604   2.694  19.811  0.00  0.00    +0.000 A 
ATOM     38  C   UNL     1       1.327   2.496  18.637  0.00  0.00    +0.000 A 
ATOM     39  C   UNL     1       2.671   2.832  18.546  0.00  0.00    +0.000 A 
ENDBRANCH  33  34
ENDBRANCH   1  33
TORSDOF 9
ENDMDL
MODEL 4
REMARK VINA RESULT:      -9.3      4.226      8.341
REMARK  Name = 
REMARK  10 active torsions:
REMARK  status: ('A' for Active; 'I' for Inactive)
REMARK    1  A    between atoms: C_1  and  C_2
REMARK    2  A    between atoms: C_3  and  C_4
REMARK    3  A    between atoms: N_6  and  C_7
REMARK    4  A    between atoms: C_7  and  C_8
REMARK    5  A    between atoms: C_7  and  C_15
REMARK    6  A    between atoms: C_8  and  C_9
REMARK    7  A    between atoms: C_15  and  C_17
REMARK    8  A    between atoms: N_19  and  C_20
REMARK    9  A    between atoms: C_20  and  C_21
REMARK   10  A    between atoms: C_21  and  C_22
REMARK                            x       y       z     vdW  Elec       q    Type
REMARK                         _______ _______ _______ _____ _____    ______ ____
ROOT
ATOM      1  C   UNL     1       0.708  10.592  19.048  0.00  0.00    +0.000 C 
ENDROOT
BRANCH   1   4
ATOM      2  C   UNL     1       2.066   8.555  18.247  0.00  0.00    +0.000 C 
ATOM      3  O   UNL     1       2.349   9.080  17.174  0.00  0.00    +0.000 OA
ATOM      4  N   UNL     1       1.356   9.239  19.237  0.00  0.00    +0.000 N 
ATOM      5  H   UNL     1       1.136   8.756  20.101  0.00  0.00    +0.000 HD
BRANCH   2   8
ATOM      6  C   UNL     1       4.553   7.154  17.048  0.00  0.00    +0.000 C 
ATOM      7  C   UNL     1       3.552   6.514  17.959  0.00  0.00    +0.000 A 
ATOM      8  C   UNL     1       2.469   7.077  18.543  0.00  0.00    +0.000 A 
ATOM      9  N   UNL     1       1.746   6.380  19.508  0.00  0.00    +0.000 N 
ATOM     10  C   UNL     1       2.012   5.005  19.794  0.00  0.00    +0.000 A 
ATOM     11  C   UNL     1       1.431   4.301  20.860  0.00  0.00    +0.000 A 
ATOM     12  C   UNL     1       1.308   2.909  20.856  0.00  0.00    +0.000 A 
ATOM     13  C   UNL     1       2.028   2.184  19.937  0.00  0.00    +0.000 A 
ATOM     14  C   UNL     1       2.893   2.874  19.078  0.00  0.00    +0.000 A 
ATOM     15  C   UNL     1       2.869   4.278  18.996  0.00  0.00    +0.000 A 
ATOM     16  C   UNL     1       3.789   5.044  18.150  0.00  0.00    +0.000 A 
ATOM     17  O   UNL     1       4.741   4.461  17.642  0.00  0.00    +0.000 OA
ATOM     18  H   UNL     1       0.748   6.570  19.429  0.00  0.00    +0.000 HD
ENDBRANCH   2   8
ENDBRANCH   1   4
BRANCH   1  19
ATOM     19  C   UNL     1       1.351  11.860  19.696  0.00  0.00    +0.000 C 
ATOM     20  O   UNL     1       1.080  12.296  20.815  0.00  0.00    +0.000 OA
BRANCH  19  21
ATOM     21  C   UNL     1       2.278  12.713  18.858  0.00  0.00    +0.000 C 
ATOM     22  O   UNL     1       2.631  12.292  17.769  0.00  0.00    +0.000 OA
ATOM     23  N   UNL     1       2.573  13.933  19.446  0.00  0.00    +0.000 N 
ATOM     24  H   UNL     1       2.237  14.048  20.398  0.00  0.00    +0.000 HD
BRANCH  23  25
ATOM     25  C   UNL     1       3.167  15.108  18.807  0.00  0.00    +0.000 C 
BRANCH  25  26
ATOM     26  C   UNL     1       2.682  16.457  19.306  0.00  0.00    +0.000 C 
BRANCH  26  27
ATOM     27  C   UNL     1       1.640  17.065  18.408  0.00  0.00    +0.000 A 
ATOM     28  C   UNL     1       1.917  17.825  17.247  0.00  0.00    +0.000 A 
ATOM     29  C   UNL     1       0.905  18.413  16.519  0.00  0.00    +0.000 A 
ATOM     30  C   UNL     1      -0.387  18.130  16.885  0.00  0.00    +0.000 A 
ATOM     31  C   UNL     1      -0.666  17.394  18.052  0.00  0.00    +0.000 A 
ATOM     32  C   UNL     1       0.338  16.896  18.835  0.00  0.00    +0.000 A 
ENDBRANCH  26  27
ENDBRANCH  25  26
ENDBRANCH  23  25
ENDBRANCH  19  21
ENDBRANCH   1  19
BRANCH   1  33
ATOM     33  C   UNL     1      -0.796  10.650  19.440  0.00  0.00    +0.000 C 
BRANCH  33  34
ATOM     34  C   UNL     1      -1.787  10.686  18.299  0.00  0.00    +0.000 A 
ATOM     35  C   UNL     1      -1.651   9.901  17.147  0.00  0.00    +0.000 A 
ATOM     36  C   UNL     1      -2.615   9.886  16.138  0.00  0.00    +0.000 A 
ATOM     37  C   UNL     1      -3.747  10.675  16.269  0.00  0.00    +0.000 A 
ATOM     38  C   UNL     1      -3.893  11.477  17.399  0.00  0.00    +0.000 A 
ATOM     39  C   UNL     1      -2.944  11.485  18.412  0.00  0.00    +0.000 A 
ENDBRANCH  33  34
ENDBRANCH   1  33
TORSDOF 9
ENDMDL
MODEL 5
REMARK VINA RESULT:      -9.3      1.038      1.487
REMARK  Name = 
REMARK  10 active torsions:
REMARK  status: ('A' for Active; 'I' for Inactive)
REMARK    1  A    between atoms: C_1  and  C_2
REMARK    2  A    between atoms: C_3  and  C_4
REMARK    3  A    between atoms: N_6  and  C_7
REMARK    4  A    between atoms: C_7  and  C_8
REMARK    5  A    between atoms: C_7  and  C_15
REMARK    6  A    between atoms: C_8  and  C_9
REMARK    7  A    between atoms: C_15  and  C_17
REMARK    8  A    between atoms: N_19  and  C_20
REMARK    9  A    between atoms: C_20  and  C_21
REMARK   10  A    between atoms: C_21  and  C_22
REMARK                            x       y       z     vdW  Elec       q    Type
REMARK                         _______ _______ _______ _____ _____    ______ ____
ROOT
ATOM      1  C   UNL     1       5.150   5.056  18.491  0.00  0.00    +0.000 C 
ENDROOT
BRANCH   1   4
ATOM      2  C   UNL     1       3.249   6.158  19.835  0.00  0.00    +0.000 C 
ATOM      3  O   UNL     1       3.101   5.178  20.559  0.00  0.00    +0.000 OA
ATOM      4  N   UNL     1       4.262   6.218  18.875  0.00  0.00    +0.000 N 
ATOM      5  H   UNL     1       4.333   7.045  18.293  0.00  0.00    +0.000 HD
BRANCH   2   8
ATOM      6  C   UNL     1       2.549   8.032  17.472  0.00  0.00    +0.000 C 
ATOM      7  C   UNL     1       2.046   8.180  18.874  0.00  0.00    +0.000 A 
ATOM      8  C   UNL     1       2.284   7.380  19.939  0.00  0.00    +0.000 A 
ATOM      9  N   UNL     1       1.588   7.568  21.131  0.00  0.00    +0.000 N 
ATOM     10  C   UNL     1       0.734   8.696  21.329  0.00  0.00    +0.000 A 
ATOM     11  C   UNL     1      -0.113   8.852  22.437  0.00  0.00    +0.000 A 
ATOM     12  C   UNL     1      -0.558  10.105  22.865  0.00  0.00    +0.000 A 
ATOM     13  C   UNL     1      -0.417  11.181  22.021  0.00  0.00    +0.000 A 
ATOM     14  C   UNL     1       0.125  10.960  20.748  0.00  0.00    +0.000 A 
ATOM     15  C   UNL     1       0.713   9.727  20.414  0.00  0.00    +0.000 A 
ATOM     16  C   UNL     1       1.246   9.434  19.080  0.00  0.00    +0.000 A 
ATOM     17  O   UNL     1       1.001  10.214  18.166  0.00  0.00    +0.000 OA
ATOM     18  H   UNL     1       2.186   7.392  21.938  0.00  0.00    +0.000 HD
ENDBRANCH   2   8
ENDBRANCH   1   4
BRANCH   1  19
ATOM     19  C   UNL     1       6.574   5.326  17.909  0.00  0.00    +0.000 C 
ATOM     20  O   UNL     1       7.527   4.549  17.986  0.00  0.00    +0.000 OA
BRANCH  19  21
ATOM     21  C   UNL     1       6.874   6.688  17.324  0.00  0.00    +0.000 C 
ATOM     22  O   UNL     1       6.300   7.020  16.300  0.00  0.00    +0.000 OA
ATOM     23  N   UNL     1       7.762   7.425  18.091  0.00  0.00    +0.000 N 
ATOM     24  H   UNL     1       8.185   6.924  18.867  0.00  0.00    +0.000 HD
BRANCH  23  25
ATOM     25  C   UNL     1       8.034   8.861  18.002  0.00  0.00    +0.000 C 
BRANCH  25  26
ATOM     26  C   UNL     1       9.285   9.349  18.709  0.00  0.00    +0.000 C 
BRANCH  26  27
ATOM     27  C   UNL     1       9.219  10.809  19.063  0.00  0.00    +0.000 A 
ATOM     28  C   UNL     1       9.311  11.328  20.377  0.00  0.00    +0.000 A 
ATOM     29  C   UNL     1       9.165  12.675  20.626  0.00  0.00    +0.000 A 
ATOM     30  C   UNL     1       9.055  13.512  19.544  0.00  0.00    +0.000 A 
ATOM     31  C   UNL     1       8.940  12.998  18.238  0.00  0.00    +0.000 A 
ATOM     32  C   UNL     1       8.981  11.653  17.997  0.00  0.00    +0.000 A 
ENDBRANCH  26  27
ENDBRANCH  25  26
ENDBRANCH  23  25
ENDBRANCH  19  21
ENDBRANCH   1  19
BRANCH   1  33
ATOM     33  C   UNL     1       4.496   4.034  17.518  0.00  0.00    +0.000 C 
BRANCH  33  34
ATOM     34  C   UNL     1       3.186   3.425  17.963  0.00  0.00    +0.000 A 
ATOM     35  C   UNL     1       1.939   3.948  17.597  0.00  0.00    +0.000 A 
ATOM     36  C   UNL     1       0.739   3.329  17.949  0.00  0.00    +0.000 A 
ATOM     37  C   UNL     1       0.772   2.159  18.691  0.00  0.00    +0.000 A 
ATOM     38  C   UNL     1       2.001   1.632  19.082  0.00  0.00    +0.000 A 
ATOM     39  C   UNL     1       3.198   2.236  18.721  0.00  0.00    +0.000 A 
ENDBRANCH  33  34
ENDBRANCH   1  33
TORSDOF 9
ENDMDL
MODEL 6
REMARK VINA RESULT:      -9.3      1.650      2.487
REMARK  Name = 
REMARK  10 active torsions:
REMARK  status: ('A' for Active; 'I' for Inactive)
REMARK    1  A    between atoms: C_1  and  C_2
REMARK    2  A    between atoms: C_3  and  C_4
REMARK    3  A    between atoms: N_6  and  C_7
REMARK    4  A    between atoms: C_7  and  C_8
REMARK    5  A    between atoms: C_7  and  C_15
REMARK    6  A    between atoms: C_8  and  C_9
REMARK    7  A    between atoms: C_15  and  C_17
REMARK    8  A    between atoms: N_19  and  C_20
REMARK    9  A    between atoms: C_20  and  C_21
REMARK   10  A    between atoms: C_21  and  C_22
REMARK                            x       y       z     vdW  Elec       q    Type
REMARK                         _______ _______ _______ _____ _____    ______ ____
ROOT
ATOM      1  C   UNL     1       4.585   5.945  18.077  0.00  0.00    +0.000 C 
ENDROOT
BRANCH   1   4
ATOM      2  C   UNL     1       2.522   7.481  18.217  0.00  0.00    +0.000 C 
ATOM      3  O   UNL     1       2.029   7.026  17.189  0.00  0.00    +0.000 OA
ATOM      4  N   UNL     1       3.700   6.963  18.760  0.00  0.00    +0.000 N 
ATOM      5  H   UNL     1       4.074   7.383  19.604  0.00  0.00    +0.000 HD
BRANCH   2   8
ATOM      6  C   UNL     1       1.344   7.342  21.078  0.00  0.00    +0.000 C 
ATOM      7  C   UNL     1       1.334   8.550  20.194  0.00  0.00    +0.000 A 
ATOM      8  C   UNL     1       1.860   8.687  18.954  0.00  0.00    +0.000 A 
ATOM      9  N   UNL     1       1.917   9.939  18.348  0.00  0.00    +0.000 N 
ATOM     10  C   UNL     1       1.283  11.081  18.926  0.00  0.00    +0.000 A 
ATOM     11  C   UNL     1       1.442  12.392  18.449  0.00  0.00    +0.000 A 
ATOM     12  C   UNL     1       0.496  13.391  18.685  0.00  0.00    +0.000 A 
ATOM     13  C   UNL     1      -0.463  13.182  19.647  0.00  0.00    +0.000 A 
ATOM     14  C   UNL     1      -0.416  11.991  20.383  0.00  0.00    +0.000 A 
ATOM     15  C   UNL     1       0.442  10.940  20.010  0.00  0.00    +0.000 A 
ATOM     16  C   UNL     1       0.563   9.697  20.779  0.00  0.00    +0.000 A 
ATOM     17  O   UNL     1       0.046   9.643  21.890  0.00  0.00    +0.000 OA
ATOM     18  H   UNL     1       1.745   9.871  17.345  0.00  0.00    +0.000 HD
ENDBRANCH   2   8
ENDBRANCH   1   4
BRANCH   1  19
ATOM     19  C   UNL     1       5.365   6.338  16.782  0.00  0.00    +0.000 C 
ATOM     20  O   UNL     1       4.910   6.279  15.638  0.00  0.00    +0.000 OA
BRANCH  19  21
ATOM     21  C   UNL     1       6.831   6.689  16.895  0.00  0.00    +0.000 C 
ATOM     22  O   UNL     1       7.613   6.189  16.104  0.00  0.00    +0.000 OA
ATOM     23  N   UNL     1       7.093   7.612  17.896  0.00  0.00    +0.000 N 
ATOM     24  H   UNL     1       6.303   7.839  18.494  0.00  0.00    +0.000 HD
BRANCH  23  25
ATOM     25  C   UNL     1       8.314   8.397  18.084  0.00  0.00    +0.000 C 
BRANCH  25  26
ATOM     26  C   UNL     1       8.162   9.904  17.984  0.00  0.00    +0.000 C 
BRANCH  26  27
ATOM     27  C   UNL     1       9.333  10.644  18.569  0.00  0.00    +0.000 A 
ATOM     28  C   UNL     1      10.420  11.159  17.822  0.00  0.00    +0.000 A 
ATOM     29  C   UNL     1      11.492  11.760  18.442  0.00  0.00    +0.000 A 
ATOM     30  C   UNL     1      11.413  11.958  19.798  0.00  0.00    +0.000 A 
ATOM     31  C   UNL     1      10.346  11.428  20.547  0.00  0.00    +0.000 A 
ATOM     32  C   UNL     1       9.328  10.739  19.946  0.00  0.00    +0.000 A 
ENDBRANCH  26  27
ENDBRANCH  25  26
ENDBRANCH  23  25
ENDBRANCH  19  21
ENDBRANCH   1  19
BRANCH   1  33
ATOM     33  C   UNL     1       3.883   4.598  17.741  0.00  0.00    +0.000 C 
BRANCH  33  34
ATOM     34  C   UNL     1       2.963   4.037  18.801  0.00  0.00    +0.000 A 
ATOM     35  C   UNL     1       1.599   3.805  18.581  0.00  0.00    +0.000 A 
ATOM     36  C   UNL     1       0.780   3.212  19.542  0.00  0.00    +0.000 A 
ATOM     37  C   UNL     1       1.323   2.842  20.762  0.00  0.00    +0.000 A 
ATOM     38  C   UNL     1       2.673   3.080  21.008  0.00  0.00    +0.000 A 
ATOM     39  C   UNL     1       3.496   3.656  20.049  0.00  0.00    +0.000 A 
ENDBRANCH  33  34
ENDBRANCH   1  33
TORSDOF 9
ENDMDL
MODEL 7
REMARK VINA RESULT:      -9.2      4.121      8.547
REMARK  Name = 
REMARK  10 active torsions:
REMARK  status: ('A' for Active; 'I' for Inactive)
REMARK    1  A    between atoms: C_1  and  C_2
REMARK    2  A    between atoms: C_3  and  C_4
REMARK    3  A    between atoms: N_6  and  C_7
REMARK    4  A    between atoms: C_7  and  C_8
REMARK    5  A    between atoms: C_7  and  C_15
REMARK    6  A    between atoms: C_8  and  C_9
REMARK    7  A    between atoms: C_15  and  C_17
REMARK    8  A    between atoms: N_19  and  C_20
REMARK    9  A    between atoms: C_20  and  C_21
REMARK   10  A    between atoms: C_21  and  C_22
REMARK                            x       y       z     vdW  Elec       q    Type
REMARK                         _______ _______ _______ _____ _____    ______ ____
ROOT
ATOM      1  C   UNL     1       0.805  10.272  18.567  0.00  0.00    +0.000 C 
ENDROOT
BRANCH   1   4
ATOM      2  C   UNL     1       2.379   8.289  18.096  0.00  0.00    +0.000 C 
ATOM      3  O   UNL     1       2.707   8.722  16.995  0.00  0.00    +0.000 OA
ATOM      4  N   UNL     1       1.540   9.008  18.950  0.00  0.00    +0.000 N 
ATOM      5  H   UNL     1       1.289   8.599  19.844  0.00  0.00    +0.000 HD
BRANCH   2   8
ATOM      6  C   UNL     1       4.836   6.806  16.933  0.00  0.00    +0.000 C 
ATOM      7  C   UNL     1       3.935   6.281  18.007  0.00  0.00    +0.000 A 
ATOM      8  C   UNL     1       2.871   6.889  18.581  0.00  0.00    +0.000 A 
ATOM      9  N   UNL     1       2.253   6.325  19.694  0.00  0.00    +0.000 N 
ATOM     10  C   UNL     1       2.602   5.022  20.164  0.00  0.00    +0.000 A 
ATOM     11  C   UNL     1       2.133   4.472  21.368  0.00  0.00    +0.000 A 
ATOM     12  C   UNL     1       2.075   3.093  21.584  0.00  0.00    +0.000 A 
ATOM     13  C   UNL     1       2.761   2.260  20.734  0.00  0.00    +0.000 A 
ATOM     14  C   UNL     1       3.529   2.837  19.714  0.00  0.00    +0.000 A 
ATOM     15  C   UNL     1       3.433   4.210  19.422  0.00  0.00    +0.000 A 
ATOM     16  C   UNL     1       4.254   4.867  18.400  0.00  0.00    +0.000 A 
ATOM     17  O   UNL     1       5.193   4.247  17.914  0.00  0.00    +0.000 OA
ATOM     18  H   UNL     1       1.244   6.466  19.666  0.00  0.00    +0.000 HD
ENDBRANCH   2   8
ENDBRANCH   1   4
BRANCH   1  19
ATOM     19  C   UNL     1       1.494  11.661  18.762  0.00  0.00    +0.000 C 
ATOM     20  O   UNL     1       2.471  12.060  18.125  0.00  0.00    +0.000 OA
BRANCH  19  21
ATOM     21  C   UNL     1       1.037  12.546  19.900  0.00  0.00    +0.000 C 
ATOM     22  O   UNL     1       1.349  12.238  21.038  0.00  0.00    +0.000 OA
ATOM     23  N   UNL     1       0.337  13.663  19.472  0.00  0.00    +0.000 N 
ATOM     24  H   UNL     1       0.117  13.683  18.480  0.00  0.00    +0.000 HD
BRANCH  23  25
ATOM     25  C   UNL     1       0.021  14.865  20.246  0.00  0.00    +0.000 C 
BRANCH  25  26
ATOM     26  C   UNL     1       0.991  16.024  20.103  0.00  0.00    +0.000 C 
BRANCH  26  27
ATOM     27  C   UNL     1       0.720  16.858  18.881  0.00  0.00    +0.000 A 
ATOM     28  C   UNL     1       1.705  17.284  17.958  0.00  0.00    +0.000 A 
ATOM     29  C   UNL     1       1.386  18.110  16.903  0.00  0.00    +0.000 A 
ATOM     30  C   UNL     1       0.060  18.401  16.702  0.00  0.00    +0.000 A 
ATOM     31  C   UNL     1      -0.919  17.999  17.630  0.00  0.00    +0.000 A 
ATOM     32  C   UNL     1      -0.591  17.264  18.736  0.00  0.00    +0.000 A 
ENDBRANCH  26  27
ENDBRANCH  25  26
ENDBRANCH  23  25
ENDBRANCH  19  21
ENDBRANCH   1  19
BRANCH   1  33
ATOM     33  C   UNL     1      -0.605  10.421  19.207  0.00  0.00    +0.000 C 
BRANCH  33  34
ATOM     34  C   UNL     1      -1.760  10.608  18.250  0.00  0.00    +0.000 A 
ATOM     35  C   UNL     1      -1.875   9.899  17.047  0.00  0.00    +0.000 A 
ATOM     36  C   UNL     1      -2.986  10.023  16.213  0.00  0.00    +0.000 A 
ATOM     37  C   UNL     1      -4.015  10.878  16.575  0.00  0.00    +0.000 A 
ATOM     38  C   UNL     1      -3.912  11.606  17.758  0.00  0.00    +0.000 A 
ATOM     39  C   UNL     1      -2.815  11.475  18.599  0.00  0.00    +0.000 A 
ENDBRANCH  33  34
ENDBRANCH   1  33
TORSDOF 9
ENDMDL
MODEL 8
REMARK VINA RESULT:      -9.1      4.007      9.634
REMARK  Name = 
REMARK  10 active torsions:
REMARK  status: ('A' for Active; 'I' for Inactive)
REMARK    1  A    between atoms: C_1  and  C_2
REMARK    2  A    between atoms: C_3  and  C_4
REMARK    3  A    between atoms: N_6  and  C_7
REMARK    4  A    between atoms: C_7  and  C_8
REMARK    5  A    between atoms: C_7  and  C_15
REMARK    6  A    between atoms: C_8  and  C_9
REMARK    7  A    between atoms: C_15  and  C_17
REMARK    8  A    between atoms: N_19  and  C_20
REMARK    9  A    between atoms: C_20  and  C_21
REMARK   10  A    between atoms: C_21  and  C_22
REMARK                            x       y       z     vdW  Elec       q    Type
REMARK                         _______ _______ _______ _____ _____    ______ ____
ROOT
ATOM      1  C   UNL     1       0.453  10.309  18.755  0.00  0.00    +0.000 C 
ENDROOT
BRANCH   1   4
ATOM      2  C   UNL     1       2.140   8.438  18.220  0.00  0.00    +0.000 C 
ATOM      3  O   UNL     1       2.451   8.933  17.141  0.00  0.00    +0.000 OA
ATOM      4  N   UNL     1       1.255   9.073  19.094  0.00  0.00    +0.000 N 
ATOM      5  H   UNL     1       1.021   8.615  19.968  0.00  0.00    +0.000 HD
BRANCH   2   8
ATOM      6  C   UNL     1       4.642   7.109  16.970  0.00  0.00    +0.000 C 
ATOM      7  C   UNL     1       3.786   6.509  18.042  0.00  0.00    +0.000 A 
ATOM      8  C   UNL     1       2.706   7.049  18.653  0.00  0.00    +0.000 A 
ATOM      9  N   UNL     1       2.136   6.424  19.759  0.00  0.00    +0.000 N 
ATOM     10  C   UNL     1       2.555   5.125  20.183  0.00  0.00    +0.000 A 
ATOM     11  C   UNL     1       2.135   4.517  21.377  0.00  0.00    +0.000 A 
ATOM     12  C   UNL     1       2.146   3.132  21.552  0.00  0.00    +0.000 A 
ATOM     13  C   UNL     1       2.854   2.357  20.664  0.00  0.00    +0.000 A 
ATOM     14  C   UNL     1       3.575   3.001  19.650  0.00  0.00    +0.000 A 
ATOM     15  C   UNL     1       3.409   4.376  19.402  0.00  0.00    +0.000 A 
ATOM     16  C   UNL     1       4.179   5.102  18.386  0.00  0.00    +0.000 A 
ATOM     17  O   UNL     1       5.137   4.541  17.864  0.00  0.00    +0.000 OA
ATOM     18  H   UNL     1       1.121   6.517  19.752  0.00  0.00    +0.000 HD
ENDBRANCH   2   8
ENDBRANCH   1   4
BRANCH   1  19
ATOM     19  C   UNL     1       0.973  11.717  19.189  0.00  0.00    +0.000 C 
ATOM     20  O   UNL     1       1.561  12.511  18.453  0.00  0.00    +0.000 OA
BRANCH  19  21
ATOM     21  C   UNL     1       0.886  12.105  20.649  0.00  0.00    +0.000 C 
ATOM     22  O   UNL     1       1.920  12.336  21.253  0.00  0.00    +0.000 OA
ATOM     23  N   UNL     1      -0.419  12.197  21.109  0.00  0.00    +0.000 N 
ATOM     24  H   UNL     1      -1.132  11.881  20.457  0.00  0.00    +0.000 HD
BRANCH  23  25
ATOM     25  C   UNL     1      -0.883  12.832  22.343  0.00  0.00    +0.000 C 
BRANCH  25  26
ATOM     26  C   UNL     1      -1.804  11.999  23.217  0.00  0.00    +0.000 C 
BRANCH  26  27
ATOM     27  C   UNL     1      -3.249  12.390  23.073  0.00  0.00    +0.000 A 
ATOM     28  C   UNL     1      -3.865  12.778  21.859  0.00  0.00    +0.000 A 
ATOM     29  C   UNL     1      -5.177  13.194  21.824  0.00  0.00    +0.000 A 
ATOM     30  C   UNL     1      -5.905  13.098  22.983  0.00  0.00    +0.000 A 
ATOM     31  C   UNL     1      -5.291  12.736  24.197  0.00  0.00    +0.000 A 
ATOM     32  C   UNL     1      -3.961  12.421  24.255  0.00  0.00    +0.000 A 
ENDBRANCH  26  27
ENDBRANCH  25  26
ENDBRANCH  23  25
ENDBRANCH  19  21
ENDBRANCH   1  19
BRANCH   1  33
ATOM     33  C   UNL     1      -1.033  10.262  19.210  0.00  0.00    +0.000 C 
BRANCH  33  34
ATOM     34  C   UNL     1      -2.073  10.455  18.131  0.00  0.00    +0.000 A 
ATOM     35  C   UNL     1      -3.150  11.342  18.261  0.00  0.00    +0.000 A 
ATOM     36  C   UNL     1      -4.057  11.568  17.225  0.00  0.00    +0.000 A 
ATOM     37  C   UNL     1      -3.899  10.894  16.024  0.00  0.00    +0.000 A 
ATOM     38  C   UNL     1      -2.846   9.994  15.881  0.00  0.00    +0.000 A 
ATOM     39  C   UNL     1      -1.932   9.776  16.903  0.00  0.00    +0.000 A 
ENDBRANCH  33  34
ENDBRANCH   1  33
TORSDOF 9
ENDMDL
MODEL 9
REMARK VINA RESULT:      -9.1      4.069      8.972
REMARK  Name = 
REMARK  10 active torsions:
REMARK  status: ('A' for Active; 'I' for Inactive)
REMARK    1  A    between atoms: C_1  and  C_2
REMARK    2  A    between atoms: C_3  and  C_4
REMARK    3  A    between atoms: N_6  and  C_7
REMARK    4  A    between atoms: C_7  and  C_8
REMARK    5  A    between atoms: C_7  and  C_15
REMARK    6  A    between atoms: C_8  and  C_9
REMARK    7  A    between atoms: C_15  and  C_17
REMARK    8  A    between atoms: N_19  and  C_20
REMARK    9  A    between atoms: C_20  and  C_21
REMARK   10  A    between atoms: C_21  and  C_22
REMARK                            x       y       z     vdW  Elec       q    Type
REMARK                         _______ _______ _______ _____ _____    ______ ____
ROOT
ATOM      1  C   UNL     1       0.838  10.310  18.593  0.00  0.00    +0.000 C 
ENDROOT
BRANCH   1   4
ATOM      2  C   UNL     1       2.367   8.298  18.094  0.00  0.00    +0.000 C 
ATOM      3  O   UNL     1       2.676   8.721  16.985  0.00  0.00    +0.000 OA
ATOM      4  N   UNL     1       1.560   9.034  18.964  0.00  0.00    +0.000 N 
ATOM      5  H   UNL     1       1.322   8.634  19.865  0.00  0.00    +0.000 HD
BRANCH   2   8
ATOM      6  C   UNL     1       4.805   6.793  16.921  0.00  0.00    +0.000 C 
ATOM      7  C   UNL     1       3.901   6.274  17.994  0.00  0.00    +0.000 A 
ATOM      8  C   UNL     1       2.845   6.892  18.574  0.00  0.00    +0.000 A 
ATOM      9  N   UNL     1       2.224   6.331  19.686  0.00  0.00    +0.000 N 
ATOM     10  C   UNL     1       2.560   5.023  20.152  0.00  0.00    +0.000 A 
ATOM     11  C   UNL     1       2.088   4.473  21.354  0.00  0.00    +0.000 A 
ATOM     12  C   UNL     1       2.017   3.095  21.567  0.00  0.00    +0.000 A 
ATOM     13  C   UNL     1       2.692   2.257  20.711  0.00  0.00    +0.000 A 
ATOM     14  C   UNL     1       3.463   2.830  19.692  0.00  0.00    +0.000 A 
ATOM     15  C   UNL     1       3.381   4.204  19.405  0.00  0.00    +0.000 A 
ATOM     16  C   UNL     1       4.206   4.856  18.383  0.00  0.00    +0.000 A 
ATOM     17  O   UNL     1       5.137   4.227  17.892  0.00  0.00    +0.000 OA
ATOM     18  H   UNL     1       1.216   6.482  19.661  0.00  0.00    +0.000 HD
ENDBRANCH   2   8
ENDBRANCH   1   4
BRANCH   1  19
ATOM     19  C   UNL     1       1.557  11.687  18.764  0.00  0.00    +0.000 C 
ATOM     20  O   UNL     1       2.491  12.087  18.067  0.00  0.00    +0.000 OA
BRANCH  19  21
ATOM     21  C   UNL     1       1.192  12.556  19.947  0.00  0.00    +0.000 C 
ATOM     22  O   UNL     1       1.561  12.213  21.057  0.00  0.00    +0.000 OA
ATOM     23  N   UNL     1       0.497  13.700  19.587  0.00  0.00    +0.000 N 
ATOM     24  H   UNL     1       0.221  13.750  18.610  0.00  0.00    +0.000 HD
BRANCH  23  25
ATOM     25  C   UNL     1       0.261  14.891  20.405  0.00  0.00    +0.000 C 
BRANCH  25  26
ATOM     26  C   UNL     1      -1.192  15.230  20.686  0.00  0.00    +0.000 C 
BRANCH  26  27
ATOM     27  C   UNL     1      -1.887  14.170  21.496  0.00  0.00    +0.000 A 
ATOM     28  C   UNL     1      -3.193  13.685  21.243  0.00  0.00    +0.000 A 
ATOM     29  C   UNL     1      -3.788  12.766  22.079  0.00  0.00    +0.000 A 
ATOM     30  C   UNL     1      -3.025  12.241  23.091  0.00  0.00    +0.000 A 
ATOM     31  C   UNL     1      -1.736  12.737  23.360  0.00  0.00    +0.000 A 
ATOM     32  C   UNL     1      -1.180  13.724  22.594  0.00  0.00    +0.000 A 
ENDBRANCH  26  27
ENDBRANCH  25  26
ENDBRANCH  23  25
ENDBRANCH  19  21
ENDBRANCH   1  19
BRANCH   1  33
ATOM     33  C   UNL     1      -0.553  10.487  19.266  0.00  0.00    +0.000 C 
BRANCH  33  34
ATOM     34  C   UNL     1      -1.741  10.584  18.337  0.00  0.00    +0.000 A 
ATOM     35  C   UNL     1      -2.827  11.437  18.575  0.00  0.00    +0.000 A 
ATOM     36  C   UNL     1      -3.879  11.575  17.669  0.00  0.00    +0.000 A 
ATOM     37  C   UNL     1      -3.861  10.842  16.492  0.00  0.00    +0.000 A 
ATOM     38  C   UNL     1      -2.800   9.974  16.245  0.00  0.00    +0.000 A 
ATOM     39  C   UNL     1      -1.744   9.845  17.136  0.00  0.00    +0.000 A 
ENDBRANCH  33  34
ENDBRANCH   1  33
TORSDOF 9
ENDMDL
