MODEL 1
REMARK VINA RESULT:      -8.8      0.000      0.000
REMARK  Name = 
REMARK  12 active torsions:
REMARK  status: ('A' for Active; 'I' for Inactive)
REMARK    1  A    between atoms: C_1  and  O_2
REMARK    2  A    between atoms: O_2  and  N_3
REMARK    3  A    between atoms: N_3  and  C_4
REMARK    4  A    between atoms: C_6  and  C_7
REMARK    5  A    between atoms: C_8  and  C_9
REMARK    6  A    between atoms: C_12  and  O_13
REMARK    7  A    between atoms: O_13  and  C_14
REMARK    8  A    between atoms: N_22  and  C1*_23
REMARK    9  A    between atoms: C4*_25  and  C5*_26
REMARK   10  A    between atoms: C5*_26  and  O5*_27
REMARK   11  A    between atoms: C3*_28  and  O3*_29
REMARK   12  A    between atoms: C2*_30  and  O2*_31
REMARK                            x       y       z     vdW  Elec       q    Type
REMARK                         _______ _______ _______ _____ _____    ______ ____
ROOT
ATOM      1  C   UNL     1       7.077   5.245  15.670  0.00  0.00    +0.000 A 
ATOM      2  N   UNL     1       7.671   6.370  16.166  0.00  0.00    +0.000 NA
ATOM      3  C   UNL     1       7.189   6.900  17.308  0.00  0.00    +0.000 A 
ATOM      4  N   UNL     1       6.161   6.461  18.065  0.00  0.00    +0.000 NA
ATOM      5  C   UNL     1       5.595   5.366  17.531  0.00  0.00    +0.000 A 
ATOM      6  C   UNL     1       5.980   4.715  16.370  0.00  0.00    +0.000 A 
ATOM      7  N   UNL     1       5.182   3.615  16.137  0.00  0.00    +0.000 NA
ATOM      8  C   UNL     1       4.327   3.598  17.141  0.00  0.00    +0.000 A 
ATOM      9  N   UNL     1       4.541   4.639  18.009  0.00  0.00    +0.000 N 
ENDROOT
BRANCH   9  10
ATOM     10  C1* UNL     1       3.797   4.857  19.232  0.00  0.00    +0.000 C 
ATOM     11  O4* UNL     1       3.489   3.589  19.844  0.00  0.00    +0.000 OA
ATOM     12  C4* UNL     1       2.111   3.612  20.293  0.00  0.00    +0.000 C 
ATOM     13  C3* UNL     1       1.625   5.054  20.159  0.00  0.00    +0.000 C 
ATOM     14  C2* UNL     1       2.493   5.630  19.051  0.00  0.00    +0.000 C 
BRANCH  13  15
ATOM     15  O3* UNL     1       1.881   5.818  21.355  0.00  0.00    +0.000 OA
ATOM     16  H3* UNL     1       1.643   5.283  22.135  0.00  0.00    +0.000 HD
ENDBRANCH  13  15
BRANCH  14  17
ATOM     17  O2* UNL     1       2.685   7.038  19.211  0.00  0.00    +0.000 OA
ATOM     18  H2* UNL     1       1.802   7.414  19.414  0.00  0.00    +0.000 HD
ENDBRANCH  14  17
BRANCH  12  19
ATOM     19  C5* UNL     1       1.293   2.618  19.465  0.00  0.00    +0.000 C 
BRANCH  19  20
ATOM     20  O5* UNL     1       2.147   1.603  18.942  0.00  0.00    +0.000 OA
ATOM     21  H5* UNL     1       2.703   2.034  18.267  0.00  0.00    +0.000 HD
ENDBRANCH  19  20
ENDBRANCH  12  19
ENDBRANCH   9  10
BRANCH   1  22
ATOM     22  N   UNL     1       7.536   4.629  14.485  0.00  0.00    +0.000 N 
ATOM     23  H   UNL     1       8.552   4.720  14.427  0.00  0.00    +0.000 HD
BRANCH  22  25
ATOM     24  C   UNL     1       6.421   3.691  12.751  0.00  0.00    +0.000 C 
ATOM     25  O   UNL     1       6.887   4.927  13.284  0.00  0.00    +0.000 OA
ENDBRANCH  22  25
ENDBRANCH   1  22
BRANCH   3  26
ATOM     26  C   UNL     1       7.827   8.098  17.773  0.00  0.00    +0.000 C 
ATOM     27  C   UNL     1       8.368   9.102  18.168  0.00  0.00    +0.000 C 
BRANCH  27  28
ATOM     28  C   UNL     1       8.974  10.299  18.679  0.00  0.00    +0.000 A 
ATOM     29  C   UNL     1       9.264  11.354  17.819  0.00  0.00    +0.000 A 
ATOM     30  C   UNL     1       9.948  12.482  18.294  0.00  0.00    +0.000 A 
ATOM     31  C   UNL     1      10.323  12.579  19.636  0.00  0.00    +0.000 A 
ATOM     32  C   UNL     1      10.000  11.539  20.508  0.00  0.00    +0.000 A 
ATOM     33  C   UNL     1       9.330  10.401  20.027  0.00  0.00    +0.000 A 
BRANCH  31  34
ATOM     34  O   UNL     1      11.064  13.683  19.951  0.00  0.00    +0.000 OA
ATOM     35  C   UNL     1      10.557  14.942  19.531  0.00  0.00    +0.000 C 
ENDBRANCH  31  34
ENDBRANCH  27  28
ENDBRANCH   3  26
TORSDOF 10
ENDMDL
MODEL 2
REMARK VINA RESULT:      -8.2      0.861      1.214
REMARK  Name = 
REMARK  12 active torsions:
REMARK  status: ('A' for Active; 'I' for Inactive)
REMARK    1  A    between atoms: C_1  and  O_2
REMARK    2  A    between atoms: O_2  and  N_3
REMARK    3  A    between atoms: N_3  and  C_4
REMARK    4  A    between atoms: C_6  and  C_7
REMARK    5  A    between atoms: C_8  and  C_9
REMARK    6  A    between atoms: C_12  and  O_13
REMARK    7  A    between atoms: O_13  and  C_14
REMARK    8  A    between atoms: N_22  and  C1*_23
REMARK    9  A    between atoms: C4*_25  and  C5*_26
REMARK   10  A    between atoms: C5*_26  and  O5*_27
REMARK   11  A    between atoms: C3*_28  and  O3*_29
REMARK   12  A    between atoms: C2*_30  and  O2*_31
REMARK                            x       y       z     vdW  Elec       q    Type
REMARK                         _______ _______ _______ _____ _____    ______ ____
ROOT
ATOM      1  C   UNL     1       6.967   5.473  15.898  0.00  0.00    +0.000 A 
ATOM      2  N   UNL     1       7.688   6.542  16.347  0.00  0.00    +0.000 NA
ATOM      3  C   UNL     1       7.261   7.186  17.451  0.00  0.00    +0.000 A 
ATOM      4  N   UNL     1       6.179   6.916  18.212  0.00  0.00    +0.000 NA
ATOM      5  C   UNL     1       5.489   5.871  17.724  0.00  0.00    +0.000 A 
ATOM      6  C   UNL     1       5.806   5.118  16.605  0.00  0.00    +0.000 A 
ATOM      7  N   UNL     1       4.882   4.112  16.414  0.00  0.00    +0.000 NA
ATOM      8  C   UNL     1       4.020   4.251  17.402  0.00  0.00    +0.000 A 
ATOM      9  N   UNL     1       4.349   5.303  18.220  0.00  0.00    +0.000 N 
ENDROOT
BRANCH   9  10
ATOM     10  C1* UNL     1       3.623   5.674  19.417  0.00  0.00    +0.000 C 
ATOM     11  O4* UNL     1       3.435   4.512  20.247  0.00  0.00    +0.000 OA
ATOM     12  C4* UNL     1       2.072   4.509  20.742  0.00  0.00    +0.000 C 
ATOM     13  C3* UNL     1       1.468   5.866  20.383  0.00  0.00    +0.000 C 
ATOM     14  C2* UNL     1       2.257   6.304  19.160  0.00  0.00    +0.000 C 
BRANCH  13  15
ATOM     15  O3* UNL     1       1.694   6.842  21.421  0.00  0.00    +0.000 OA
ATOM     16  H3* UNL     1       1.411   6.473  22.277  0.00  0.00    +0.000 HD
ENDBRANCH  13  15
BRANCH  14  17
ATOM     17  O2* UNL     1       2.339   7.729  19.069  0.00  0.00    +0.000 OA
ATOM     18  H2* UNL     1       3.014   7.921  18.383  0.00  0.00    +0.000 HD
ENDBRANCH  14  17
BRANCH  12  19
ATOM     19  C5* UNL     1       1.315   3.329  20.130  0.00  0.00    +0.000 C 
BRANCH  19  20
ATOM     20  O5* UNL     1       0.588   2.639  21.145  0.00  0.00    +0.000 OA
ATOM     21  H5* UNL     1       0.624   3.204  21.939  0.00  0.00    +0.000 HD
ENDBRANCH  19  20
ENDBRANCH  12  19
ENDBRANCH   9  10
BRANCH   1  22
ATOM     22  N   UNL     1       7.361   4.745  14.755  0.00  0.00    +0.000 N 
ATOM     23  H   UNL     1       7.872   5.360  14.119  0.00  0.00    +0.000 HD
BRANCH  22  25
ATOM     24  C   UNL     1       6.739   3.963  12.721  0.00  0.00    +0.000 C 
ATOM     25  O   UNL     1       6.408   3.954  14.107  0.00  0.00    +0.000 OA
ENDBRANCH  22  25
ENDBRANCH   1  22
BRANCH   3  26
ATOM     26  C   UNL     1       8.035   8.321  17.866  0.00  0.00    +0.000 C 
ATOM     27  C   UNL     1       8.689   9.272  18.220  0.00  0.00    +0.000 C 
BRANCH  27  28
ATOM     28  C   UNL     1       9.426  10.416  18.676  0.00  0.00    +0.000 A 
ATOM     29  C   UNL     1       9.548  10.667  20.040  0.00  0.00    +0.000 A 
ATOM     30  C   UNL     1      10.180  11.836  20.487  0.00  0.00    +0.000 A 
ATOM     31  C   UNL     1      10.718  12.751  19.579  0.00  0.00    +0.000 A 
ATOM     32  C   UNL     1      10.629  12.483  18.213  0.00  0.00    +0.000 A 
ATOM     33  C   UNL     1       9.981  11.320  17.765  0.00  0.00    +0.000 A 
BRANCH  31  34
ATOM     34  O   UNL     1      11.221  13.892  20.137  0.00  0.00    +0.000 OA
ATOM     35  C   UNL     1      11.746  14.868  19.248  0.00  0.00    +0.000 C 
ENDBRANCH  31  34
ENDBRANCH  27  28
ENDBRANCH   3  26
TORSDOF 10
ENDMDL
MODEL 3
REMARK VINA RESULT:      -8.0      1.096      1.471
REMARK  Name = 
REMARK  12 active torsions:
REMARK  status: ('A' for Active; 'I' for Inactive)
REMARK    1  A    between atoms: C_1  and  O_2
REMARK    2  A    between atoms: O_2  and  N_3
REMARK    3  A    between atoms: N_3  and  C_4
REMARK    4  A    between atoms: C_6  and  C_7
REMARK    5  A    between atoms: C_8  and  C_9
REMARK    6  A    between atoms: C_12  and  O_13
REMARK    7  A    between atoms: O_13  and  C_14
REMARK    8  A    between atoms: N_22  and  C1*_23
REMARK    9  A    between atoms: C4*_25  and  C5*_26
REMARK   10  A    between atoms: C5*_26  and  O5*_27
REMARK   11  A    between atoms: C3*_28  and  O3*_29
REMARK   12  A    between atoms: C2*_30  and  O2*_31
REMARK                            x       y       z     vdW  Elec       q    Type
REMARK                         _______ _______ _______ _____ _____    ______ ____
ROOT
ATOM      1  C   UNL     1       7.249   5.442  15.471  0.00  0.00    +0.000 A 
ATOM      2  N   UNL     1       7.810   6.536  16.066  0.00  0.00    +0.000 NA
ATOM      3  C   UNL     1       7.219   7.039  17.169  0.00  0.00    +0.000 A 
ATOM      4  N   UNL     1       6.108   6.601  17.797  0.00  0.00    +0.000 NA
ATOM      5  C   UNL     1       5.580   5.538  17.168  0.00  0.00    +0.000 A 
ATOM      6  C   UNL     1       6.073   4.917  16.032  0.00  0.00    +0.000 A 
ATOM      7  N   UNL     1       5.282   3.844  15.677  0.00  0.00    +0.000 NA
ATOM      8  C   UNL     1       4.326   3.815  16.584  0.00  0.00    +0.000 A 
ATOM      9  N   UNL     1       4.466   4.820  17.506  0.00  0.00    +0.000 N 
ENDROOT
BRANCH   9  10
ATOM     10  C1* UNL     1       3.601   5.016  18.651  0.00  0.00    +0.000 C 
ATOM     11  O4* UNL     1       4.258   4.536  19.841  0.00  0.00    +0.000 OA
ATOM     12  C4* UNL     1       3.302   3.782  20.627  0.00  0.00    +0.000 C 
ATOM     13  C3* UNL     1       1.929   4.013  19.998  0.00  0.00    +0.000 C 
ATOM     14  C2* UNL     1       2.243   4.327  18.544  0.00  0.00    +0.000 C 
BRANCH  13  15
ATOM     15  O3* UNL     1       1.271   5.166  20.561  0.00  0.00    +0.000 OA
ATOM     16  H3* UNL     1       1.114   5.822  19.858  0.00  0.00    +0.000 HD
ENDBRANCH  13  15
BRANCH  14  17
ATOM     17  O2* UNL     1       1.257   5.187  17.966  0.00  0.00    +0.000 OA
ATOM     18  H2* UNL     1       0.874   5.701  18.709  0.00  0.00    +0.000 HD
ENDBRANCH  14  17
BRANCH  12  19
ATOM     19  C5* UNL     1       3.717   2.309  20.650  0.00  0.00    +0.000 C 
BRANCH  19  20
ATOM     20  O5* UNL     1       4.940   2.138  19.936  0.00  0.00    +0.000 OA
ATOM     21  H5* UNL     1       5.608   2.670  20.407  0.00  0.00    +0.000 HD
ENDBRANCH  19  20
ENDBRANCH  12  19
ENDBRANCH   9  10
BRANCH   1  22
ATOM     22  N   UNL     1       7.818   4.855  14.320  0.00  0.00    +0.000 N 
ATOM     23  H   UNL     1       8.716   4.432  14.563  0.00  0.00    +0.000 HD
BRANCH  22  25
ATOM     24  C   UNL     1       7.396   4.759  12.097  0.00  0.00    +0.000 C 
ATOM     25  O   UNL     1       7.865   5.606  13.142  0.00  0.00    +0.000 OA
ENDBRANCH  22  25
ENDBRANCH   1  22
BRANCH   3  26
ATOM     26  C   UNL     1       7.829   8.206  17.740  0.00  0.00    +0.000 C 
ATOM     27  C   UNL     1       8.337   9.192  18.217  0.00  0.00    +0.000 C 
BRANCH  27  28
ATOM     28  C   UNL     1       8.976  10.365  18.741  0.00  0.00    +0.000 A 
ATOM     29  C   UNL     1       9.406  10.391  20.065  0.00  0.00    +0.000 A 
ATOM     30  C   UNL     1       9.938  11.568  20.610  0.00  0.00    +0.000 A 
ATOM     31  C   UNL     1      10.070  12.721  19.832  0.00  0.00    +0.000 A 
ATOM     32  C   UNL     1       9.675  12.686  18.496  0.00  0.00    +0.000 A 
ATOM     33  C   UNL     1       9.125  11.511  17.955  0.00  0.00    +0.000 A 
BRANCH  31  34
ATOM     34  O   UNL     1      10.514  13.824  20.505  0.00  0.00    +0.000 OA
ATOM     35  C   UNL     1       9.826  14.172  21.698  0.00  0.00    +0.000 C 
ENDBRANCH  31  34
ENDBRANCH  27  28
ENDBRANCH   3  26
TORSDOF 10
ENDMDL
MODEL 4
REMARK VINA RESULT:      -7.8      1.036      1.103
REMARK  Name = 
REMARK  12 active torsions:
REMARK  status: ('A' for Active; 'I' for Inactive)
REMARK    1  A    between atoms: C_1  and  O_2
REMARK    2  A    between atoms: O_2  and  N_3
REMARK    3  A    between atoms: N_3  and  C_4
REMARK    4  A    between atoms: C_6  and  C_7
REMARK    5  A    between atoms: C_8  and  C_9
REMARK    6  A    between atoms: C_12  and  O_13
REMARK    7  A    between atoms: O_13  and  C_14
REMARK    8  A    between atoms: N_22  and  C1*_23
REMARK    9  A    between atoms: C4*_25  and  C5*_26
REMARK   10  A    between atoms: C5*_26  and  O5*_27
REMARK   11  A    between atoms: C3*_28  and  O3*_29
REMARK   12  A    between atoms: C2*_30  and  O2*_31
REMARK                            x       y       z     vdW  Elec       q    Type
REMARK                         _______ _______ _______ _____ _____    ______ ____
ROOT
ATOM      1  C   UNL     1       7.188   5.353  15.464  0.00  0.00    +0.000 A 
ATOM      2  N   UNL     1       7.756   6.461  16.024  0.00  0.00    +0.000 NA
ATOM      3  C   UNL     1       7.181   6.991  17.122  0.00  0.00    +0.000 A 
ATOM      4  N   UNL     1       6.080   6.568  17.778  0.00  0.00    +0.000 NA
ATOM      5  C   UNL     1       5.544   5.489  17.183  0.00  0.00    +0.000 A 
ATOM      6  C   UNL     1       6.021   4.840  16.055  0.00  0.00    +0.000 A 
ATOM      7  N   UNL     1       5.227   3.758  15.739  0.00  0.00    +0.000 NA
ATOM      8  C   UNL     1       4.283   3.750  16.661  0.00  0.00    +0.000 A 
ATOM      9  N   UNL     1       4.436   4.779  17.555  0.00  0.00    +0.000 N 
ENDROOT
BRANCH   9  10
ATOM     10  C1* UNL     1       3.588   5.002  18.707  0.00  0.00    +0.000 C 
ATOM     11  O4* UNL     1       4.201   4.426  19.877  0.00  0.00    +0.000 OA
ATOM     12  C4* UNL     1       3.185   3.724  20.637  0.00  0.00    +0.000 C 
ATOM     13  C3* UNL     1       1.837   4.090  20.018  0.00  0.00    +0.000 C 
ATOM     14  C2* UNL     1       2.178   4.431  18.576  0.00  0.00    +0.000 C 
BRANCH  13  15
ATOM     15  O3* UNL     1       1.274   5.271  20.624  0.00  0.00    +0.000 OA
ATOM     16  H3* UNL     1       1.298   6.005  19.983  0.00  0.00    +0.000 HD
ENDBRANCH  13  15
BRANCH  14  17
ATOM     17  O2* UNL     1       1.267   5.390  18.032  0.00  0.00    +0.000 OA
ATOM     18  H2* UNL     1       0.712   4.904  17.386  0.00  0.00    +0.000 HD
ENDBRANCH  14  17
BRANCH  12  19
ATOM     19  C5* UNL     1       3.478   2.222  20.604  0.00  0.00    +0.000 C 
BRANCH  19  20
ATOM     20  O5* UNL     1       4.802   1.975  21.073  0.00  0.00    +0.000 OA
ATOM     21  H5* UNL     1       5.395   2.514  20.516  0.00  0.00    +0.000 HD
ENDBRANCH  19  20
ENDBRANCH  12  19
ENDBRANCH   9  10
BRANCH   1  22
ATOM     22  N   UNL     1       7.741   4.738  14.320  0.00  0.00    +0.000 N 
ATOM     23  H   UNL     1       8.744   4.602  14.459  0.00  0.00    +0.000 HD
BRANCH  22  25
ATOM     24  C   UNL     1       6.980   4.170  12.263  0.00  0.00    +0.000 C 
ATOM     25  O   UNL     1       7.426   5.261  13.063  0.00  0.00    +0.000 OA
ENDBRANCH  22  25
ENDBRANCH   1  22
BRANCH   3  26
ATOM     26  C   UNL     1       7.797   8.173  17.655  0.00  0.00    +0.000 C 
ATOM     27  C   UNL     1       8.311   9.165  18.110  0.00  0.00    +0.000 C 
BRANCH  27  28
ATOM     28  C   UNL     1       8.879  10.375  18.635  0.00  0.00    +0.000 A 
ATOM     29  C   UNL     1       8.833  11.547  17.886  0.00  0.00    +0.000 A 
ATOM     30  C   UNL     1       9.475  12.705  18.349  0.00  0.00    +0.000 A 
ATOM     31  C   UNL     1      10.145  12.709  19.575  0.00  0.00    +0.000 A 
ATOM     32  C   UNL     1      10.160  11.546  20.345  0.00  0.00    +0.000 A 
ATOM     33  C   UNL     1       9.531  10.382  19.871  0.00  0.00    +0.000 A 
BRANCH  31  34
ATOM     34  O   UNL     1      10.807  13.868  19.868  0.00  0.00    +0.000 OA
ATOM     35  C   UNL     1      12.153  13.971  19.426  0.00  0.00    +0.000 C 
ENDBRANCH  31  34
ENDBRANCH  27  28
ENDBRANCH   3  26
TORSDOF 10
ENDMDL
MODEL 5
REMARK VINA RESULT:      -7.6      3.998      6.858
REMARK  Name = 
REMARK  12 active torsions:
REMARK  status: ('A' for Active; 'I' for Inactive)
REMARK    1  A    between atoms: C_1  and  O_2
REMARK    2  A    between atoms: O_2  and  N_3
REMARK    3  A    between atoms: N_3  and  C_4
REMARK    4  A    between atoms: C_6  and  C_7
REMARK    5  A    between atoms: C_8  and  C_9
REMARK    6  A    between atoms: C_12  and  O_13
REMARK    7  A    between atoms: O_13  and  C_14
REMARK    8  A    between atoms: N_22  and  C1*_23
REMARK    9  A    between atoms: C4*_25  and  C5*_26
REMARK   10  A    between atoms: C5*_26  and  O5*_27
REMARK   11  A    between atoms: C3*_28  and  O3*_29
REMARK   12  A    between atoms: C2*_30  and  O2*_31
REMARK                            x       y       z     vdW  Elec       q    Type
REMARK                         _______ _______ _______ _____ _____    ______ ____
ROOT
ATOM      1  C   UNL     1       5.188   6.838  17.180  0.00  0.00    +0.000 A 
ATOM      2  N   UNL     1       4.143   7.703  17.330  0.00  0.00    +0.000 NA
ATOM      3  C   UNL     1       3.122   7.342  18.132  0.00  0.00    +0.000 A 
ATOM      4  N   UNL     1       2.976   6.202  18.840  0.00  0.00    +0.000 NA
ATOM      5  C   UNL     1       4.016   5.373  18.649  0.00  0.00    +0.000 A 
ATOM      6  C   UNL     1       5.128   5.608  17.857  0.00  0.00    +0.000 A 
ATOM      7  N   UNL     1       6.003   4.543  17.912  0.00  0.00    +0.000 NA
ATOM      8  C   UNL     1       5.431   3.678  18.726  0.00  0.00    +0.000 A 
ATOM      9  N   UNL     1       4.227   4.139  19.195  0.00  0.00    +0.000 N 
ENDROOT
BRANCH   9  10
ATOM     10  C1* UNL     1       3.389   3.436  20.145  0.00  0.00    +0.000 C 
ATOM     11  O4* UNL     1       2.878   2.232  19.541  0.00  0.00    +0.000 OA
ATOM     12  C4* UNL     1       1.472   2.107  19.871  0.00  0.00    +0.000 C 
ATOM     13  C3* UNL     1       1.169   3.168  20.928  0.00  0.00    +0.000 C 
ATOM     14  C2* UNL     1       2.207   4.248  20.668  0.00  0.00    +0.000 C 
BRANCH  13  15
ATOM     15  O3* UNL     1       1.383   2.668  22.264  0.00  0.00    +0.000 OA
ATOM     16  H3* UNL     1       0.521   2.525  22.696  0.00  0.00    +0.000 HD
ENDBRANCH  13  15
BRANCH  14  17
ATOM     17  O2* UNL     1       2.539   4.957  21.865  0.00  0.00    +0.000 OA
ATOM     18  H2* UNL     1       3.508   5.109  21.833  0.00  0.00    +0.000 HD
ENDBRANCH  14  17
BRANCH  12  19
ATOM     19  C5* UNL     1       0.638   2.265  18.598  0.00  0.00    +0.000 C 
BRANCH  19  20
ATOM     20  O5* UNL     1       1.329   3.092  17.664  0.00  0.00    +0.000 OA
ATOM     21  H5* UNL     1       0.812   3.061  16.837  0.00  0.00    +0.000 HD
ENDBRANCH  19  20
ENDBRANCH  12  19
ENDBRANCH   9  10
BRANCH   1  22
ATOM     22  N   UNL     1       6.297   7.153  16.364  0.00  0.00    +0.000 N 
ATOM     23  H   UNL     1       6.238   6.625  15.492  0.00  0.00    +0.000 HD
BRANCH  22  25
ATOM     24  C   UNL     1       7.740   8.375  17.612  0.00  0.00    +0.000 C 
ATOM     25  O   UNL     1       7.572   7.133  16.935  0.00  0.00    +0.000 OA
ENDBRANCH  22  25
ENDBRANCH   1  22
BRANCH   3  26
ATOM     26  C   UNL     1       2.033   8.272  18.234  0.00  0.00    +0.000 C 
ATOM     27  C   UNL     1       1.120   9.056  18.326  0.00  0.00    +0.000 C 
BRANCH  27  28
ATOM     28  C   UNL     1       0.005   9.950  18.463  0.00  0.00    +0.000 A 
ATOM     29  C   UNL     1      -0.060  10.819  19.549  0.00  0.00    +0.000 A 
ATOM     30  C   UNL     1      -1.194  11.622  19.741  0.00  0.00    +0.000 A 
ATOM     31  C   UNL     1      -2.260  11.583  18.838  0.00  0.00    +0.000 A 
ATOM     32  C   UNL     1      -2.179  10.741  17.730  0.00  0.00    +0.000 A 
ATOM     33  C   UNL     1      -1.050   9.924  17.547  0.00  0.00    +0.000 A 
BRANCH  31  34
ATOM     34  O   UNL     1      -3.342  12.340  19.188  0.00  0.00    +0.000 OA
ATOM     35  C   UNL     1      -4.621  11.852  18.809  0.00  0.00    +0.000 C 
ENDBRANCH  31  34
ENDBRANCH  27  28
ENDBRANCH   3  26
TORSDOF 10
ENDMDL
MODEL 6
REMARK VINA RESULT:      -7.3      4.494      8.167
REMARK  Name = 
REMARK  12 active torsions:
REMARK  status: ('A' for Active; 'I' for Inactive)
REMARK    1  A    between atoms: C_1  and  O_2
REMARK    2  A    between atoms: O_2  and  N_3
REMARK    3  A    between atoms: N_3  and  C_4
REMARK    4  A    between atoms: C_6  and  C_7
REMARK    5  A    between atoms: C_8  and  C_9
REMARK    6  A    between atoms: C_12  and  O_13
REMARK    7  A    between atoms: O_13  and  C_14
REMARK    8  A    between atoms: N_22  and  C1*_23
REMARK    9  A    between atoms: C4*_25  and  C5*_26
REMARK   10  A    between atoms: C5*_26  and  O5*_27
REMARK   11  A    between atoms: C3*_28  and  O3*_29
REMARK   12  A    between atoms: C2*_30  and  O2*_31
REMARK                            x       y       z     vdW  Elec       q    Type
REMARK                         _______ _______ _______ _____ _____    ______ ____
ROOT
ATOM      1  C   UNL     1       1.603   3.920  20.432  0.00  0.00    +0.000 A 
ATOM      2  N   UNL     1       0.986   5.105  20.714  0.00  0.00    +0.000 NA
ATOM      3  C   UNL     1       1.685   6.246  20.551  0.00  0.00    +0.000 A 
ATOM      4  N   UNL     1       2.959   6.395  20.131  0.00  0.00    +0.000 NA
ATOM      5  C   UNL     1       3.533   5.206  19.884  0.00  0.00    +0.000 A 
ATOM      6  C   UNL     1       2.942   3.958  20.008  0.00  0.00    +0.000 A 
ATOM      7  N   UNL     1       3.825   2.960  19.652  0.00  0.00    +0.000 NA
ATOM      8  C   UNL     1       4.932   3.592  19.317  0.00  0.00    +0.000 A 
ATOM      9  N   UNL     1       4.801   4.952  19.441  0.00  0.00    +0.000 N 
ENDROOT
BRANCH   9  10
ATOM     10  C1* UNL     1       5.828   5.914  19.098  0.00  0.00    +0.000 C 
ATOM     11  O4* UNL     1       5.588   6.425  17.773  0.00  0.00    +0.000 OA
ATOM     12  C4* UNL     1       6.847   6.468  17.056  0.00  0.00    +0.000 C 
ATOM     13  C3* UNL     1       7.948   6.189  18.078  0.00  0.00    +0.000 C 
ATOM     14  C2* UNL     1       7.252   5.366  19.149  0.00  0.00    +0.000 C 
BRANCH  13  15
ATOM     15  O3* UNL     1       8.421   7.403  18.698  0.00  0.00    +0.000 OA
ATOM     16  H3* UNL     1       9.333   7.580  18.403  0.00  0.00    +0.000 HD
ENDBRANCH  13  15
BRANCH  14  17
ATOM     17  O2* UNL     1       7.849   5.561  20.434  0.00  0.00    +0.000 OA
ATOM     18  H2* UNL     1       8.818   5.573  20.287  0.00  0.00    +0.000 HD
ENDBRANCH  14  17
BRANCH  12  19
ATOM     19  C5* UNL     1       6.813   5.451  15.912  0.00  0.00    +0.000 C 
BRANCH  19  20
ATOM     20  O5* UNL     1       7.877   4.514  16.062  0.00  0.00    +0.000 OA
ATOM     21  H5* UNL     1       8.009   4.107  15.186  0.00  0.00    +0.000 HD
ENDBRANCH  19  20
ENDBRANCH  12  19
ENDBRANCH   9  10
BRANCH   1  22
ATOM     22  N   UNL     1       0.930   2.686  20.570  0.00  0.00    +0.000 N 
ATOM     23  H   UNL     1       1.605   1.956  20.806  0.00  0.00    +0.000 HD
BRANCH  22  25
ATOM     24  C   UNL     1       0.776   2.203  18.362  0.00  0.00    +0.000 C 
ATOM     25  O   UNL     1       0.030   2.302  19.572  0.00  0.00    +0.000 OA
ENDBRANCH  22  25
ENDBRANCH   1  22
BRANCH   3  26
ATOM     26  C   UNL     1       1.004   7.464  20.888  0.00  0.00    +0.000 C 
ATOM     27  C   UNL     1       0.435   8.491  21.167  0.00  0.00    +0.000 C 
BRANCH  27  28
ATOM     28  C   UNL     1      -0.202   9.723  21.536  0.00  0.00    +0.000 A 
ATOM     29  C   UNL     1      -0.600   9.934  22.853  0.00  0.00    +0.000 A 
ATOM     30  C   UNL     1      -1.313  11.093  23.196  0.00  0.00    +0.000 A 
ATOM     31  C   UNL     1      -1.611  12.061  22.234  0.00  0.00    +0.000 A 
ATOM     32  C   UNL     1      -1.180  11.869  20.922  0.00  0.00    +0.000 A 
ATOM     33  C   UNL     1      -0.481  10.700  20.575  0.00  0.00    +0.000 A 
BRANCH  31  34
ATOM     34  O   UNL     1      -2.389  13.094  22.675  0.00  0.00    +0.000 OA
ATOM     35  C   UNL     1      -3.788  12.990  22.448  0.00  0.00    +0.000 C 
ENDBRANCH  31  34
ENDBRANCH  27  28
ENDBRANCH   3  26
TORSDOF 10
ENDMDL
MODEL 7
REMARK VINA RESULT:      -7.3      4.397      7.993
REMARK  Name = 
REMARK  12 active torsions:
REMARK  status: ('A' for Active; 'I' for Inactive)
REMARK    1  A    between atoms: C_1  and  O_2
REMARK    2  A    between atoms: O_2  and  N_3
REMARK    3  A    between atoms: N_3  and  C_4
REMARK    4  A    between atoms: C_6  and  C_7
REMARK    5  A    between atoms: C_8  and  C_9
REMARK    6  A    between atoms: C_12  and  O_13
REMARK    7  A    between atoms: O_13  and  C_14
REMARK    8  A    between atoms: N_22  and  C1*_23
REMARK    9  A    between atoms: C4*_25  and  C5*_26
REMARK   10  A    between atoms: C5*_26  and  O5*_27
REMARK   11  A    between atoms: C3*_28  and  O3*_29
REMARK   12  A    between atoms: C2*_30  and  O2*_31
REMARK                            x       y       z     vdW  Elec       q    Type
REMARK                         _______ _______ _______ _____ _____    ______ ____
ROOT
ATOM      1  C   UNL     1       2.039   4.001  20.595  0.00  0.00    +0.000 A 
ATOM      2  N   UNL     1       1.370   5.153  20.892  0.00  0.00    +0.000 NA
ATOM      3  C   UNL     1       1.898   6.325  20.485  0.00  0.00    +0.000 A 
ATOM      4  N   UNL     1       3.039   6.533  19.794  0.00  0.00    +0.000 NA
ATOM      5  C   UNL     1       3.673   5.376  19.540  0.00  0.00    +0.000 A 
ATOM      6  C   UNL     1       3.253   4.105  19.896  0.00  0.00    +0.000 A 
ATOM      7  N   UNL     1       4.146   3.152  19.454  0.00  0.00    +0.000 NA
ATOM      8  C   UNL     1       5.092   3.834  18.838  0.00  0.00    +0.000 A 
ATOM      9  N   UNL     1       4.846   5.183  18.865  0.00  0.00    +0.000 N 
ENDROOT
BRANCH   9  10
ATOM     10  C1* UNL     1       5.676   6.185  18.229  0.00  0.00    +0.000 C 
ATOM     11  O4* UNL     1       5.184   6.450  16.902  0.00  0.00    +0.000 OA
ATOM     12  C4* UNL     1       6.310   6.515  15.992  0.00  0.00    +0.000 C 
ATOM     13  C3* UNL     1       7.574   6.525  16.851  0.00  0.00    +0.000 C 
ATOM     14  C2* UNL     1       7.153   5.811  18.126  0.00  0.00    +0.000 C 
BRANCH  13  15
ATOM     15  O3* UNL     1       7.965   7.866  17.210  0.00  0.00    +0.000 OA
ATOM     16  H3* UNL     1       8.275   7.873  18.134  0.00  0.00    +0.000 HD
ENDBRANCH  13  15
BRANCH  14  17
ATOM     17  O2* UNL     1       7.897   6.272  19.257  0.00  0.00    +0.000 OA
ATOM     18  H2* UNL     1       7.491   5.848  20.043  0.00  0.00    +0.000 HD
ENDBRANCH  14  17
BRANCH  12  19
ATOM     19  C5* UNL     1       6.246   5.333  15.022  0.00  0.00    +0.000 C 
BRANCH  19  20
ATOM     20  O5* UNL     1       7.520   5.136  14.411  0.00  0.00    +0.000 OA
ATOM     21  H5* UNL     1       7.370   5.173  13.448  0.00  0.00    +0.000 HD
ENDBRANCH  19  20
ENDBRANCH  12  19
ENDBRANCH   9  10
BRANCH   1  22
ATOM     22  N   UNL     1       1.540   2.737  20.981  0.00  0.00    +0.000 N 
ATOM     23  H   UNL     1       2.027   2.423  21.822  0.00  0.00    +0.000 HD
BRANCH  22  25
ATOM     24  C   UNL     1       0.625   2.282  18.959  0.00  0.00    +0.000 C 
ATOM     25  O   UNL     1       1.423   1.741  20.008  0.00  0.00    +0.000 OA
ENDBRANCH  22  25
ENDBRANCH   1  22
BRANCH   3  26
ATOM     26  C   UNL     1       1.175   7.510  20.848  0.00  0.00    +0.000 C 
ATOM     27  C   UNL     1       0.567   8.505  21.160  0.00  0.00    +0.000 C 
BRANCH  27  28
ATOM     28  C   UNL     1      -0.201   9.658  21.535  0.00  0.00    +0.000 A 
ATOM     29  C   UNL     1      -0.483  10.643  20.592  0.00  0.00    +0.000 A 
ATOM     30  C   UNL     1      -1.145  11.818  20.977  0.00  0.00    +0.000 A 
ATOM     31  C   UNL     1      -1.555  12.007  22.300  0.00  0.00    +0.000 A 
ATOM     32  C   UNL     1      -1.307  11.005  23.237  0.00  0.00    +0.000 A 
ATOM     33  C   UNL     1      -0.628   9.836  22.854  0.00  0.00    +0.000 A 
BRANCH  31  34
ATOM     34  O   UNL     1      -2.103  13.230  22.565  0.00  0.00    +0.000 OA
ATOM     35  C   UNL     1      -1.550  13.965  23.648  0.00  0.00    +0.000 C 
ENDBRANCH  31  34
ENDBRANCH  27  28
ENDBRANCH   3  26
TORSDOF 10
ENDMDL
MODEL 8
REMARK VINA RESULT:      -7.2      4.642      7.735
REMARK  Name = 
REMARK  12 active torsions:
REMARK  status: ('A' for Active; 'I' for Inactive)
REMARK    1  A    between atoms: C_1  and  O_2
REMARK    2  A    between atoms: O_2  and  N_3
REMARK    3  A    between atoms: N_3  and  C_4
REMARK    4  A    between atoms: C_6  and  C_7
REMARK    5  A    between atoms: C_8  and  C_9
REMARK    6  A    between atoms: C_12  and  O_13
REMARK    7  A    between atoms: O_13  and  C_14
REMARK    8  A    between atoms: N_22  and  C1*_23
REMARK    9  A    between atoms: C4*_25  and  C5*_26
REMARK   10  A    between atoms: C5*_26  and  O5*_27
REMARK   11  A    between atoms: C3*_28  and  O3*_29
REMARK   12  A    between atoms: C2*_30  and  O2*_31
REMARK                            x       y       z     vdW  Elec       q    Type
REMARK                         _______ _______ _______ _____ _____    ______ ____
ROOT
ATOM      1  C   UNL     1       1.445   4.070  20.265  0.00  0.00    +0.000 A 
ATOM      2  N   UNL     1       1.079   5.338  20.615  0.00  0.00    +0.000 NA
ATOM      3  C   UNL     1       1.818   6.368  20.157  0.00  0.00    +0.000 A 
ATOM      4  N   UNL     1       2.912   6.328  19.369  0.00  0.00    +0.000 NA
ATOM      5  C   UNL     1       3.248   5.063  19.065  0.00  0.00    +0.000 A 
ATOM      6  C   UNL     1       2.587   3.912  19.463  0.00  0.00    +0.000 A 
ATOM      7  N   UNL     1       3.204   2.790  18.948  0.00  0.00    +0.000 NA
ATOM      8  C   UNL     1       4.221   3.254  18.249  0.00  0.00    +0.000 A 
ATOM      9  N   UNL     1       4.285   4.624  18.291  0.00  0.00    +0.000 N 
ENDROOT
BRANCH   9  10
ATOM     10  C1* UNL     1       5.260   5.425  17.580  0.00  0.00    +0.000 C 
ATOM     11  O4* UNL     1       4.745   5.773  16.280  0.00  0.00    +0.000 OA
ATOM     12  C4* UNL     1       5.797   5.594  15.300  0.00  0.00    +0.000 C 
ATOM     13  C3* UNL     1       7.090   5.350  16.077  0.00  0.00    +0.000 C 
ATOM     14  C2* UNL     1       6.617   4.752  17.392  0.00  0.00    +0.000 C 
BRANCH  13  15
ATOM     15  O3* UNL     1       7.773   6.584  16.378  0.00  0.00    +0.000 OA
ATOM     16  H3* UNL     1       7.220   7.335  16.094  0.00  0.00    +0.000 HD
ENDBRANCH  13  15
BRANCH  14  17
ATOM     17  O2* UNL     1       7.514   5.060  18.463  0.00  0.00    +0.000 OA
ATOM     18  H2* UNL     1       7.346   4.393  19.162  0.00  0.00    +0.000 HD
ENDBRANCH  14  17
BRANCH  12  19
ATOM     19  C5* UNL     1       5.426   4.441  14.365  0.00  0.00    +0.000 C 
BRANCH  19  20
ATOM     20  O5* UNL     1       6.538   3.559  14.216  0.00  0.00    +0.000 OA
ATOM     21  H5* UNL     1       6.229   2.821  13.657  0.00  0.00    +0.000 HD
ENDBRANCH  19  20
ENDBRANCH  12  19
ENDBRANCH   9  10
BRANCH   1  22
ATOM     22  N   UNL     1       0.713   2.944  20.700  0.00  0.00    +0.000 N 
ATOM     23  H   UNL     1      -0.282   3.097  20.524  0.00  0.00    +0.000 HD
BRANCH  22  25
ATOM     24  C   UNL     1       2.388   2.447  22.142  0.00  0.00    +0.000 C 
ATOM     25  O   UNL     1       0.973   2.429  21.972  0.00  0.00    +0.000 OA
ENDBRANCH  22  25
ENDBRANCH   1  22
BRANCH   3  26
ATOM     26  C   UNL     1       1.411   7.679  20.576  0.00  0.00    +0.000 C 
ATOM     27  C   UNL     1       1.061   8.779  20.930  0.00  0.00    +0.000 C 
BRANCH  27  28
ATOM     28  C   UNL     1       0.632  10.098  21.299  0.00  0.00    +0.000 A 
ATOM     29  C   UNL     1      -0.297  10.267  22.321  0.00  0.00    +0.000 A 
ATOM     30  C   UNL     1      -0.796  11.544  22.617  0.00  0.00    +0.000 A 
ATOM     31  C   UNL     1      -0.352  12.666  21.912  0.00  0.00    +0.000 A 
ATOM     32  C   UNL     1       0.607  12.504  20.912  0.00  0.00    +0.000 A 
ATOM     33  C   UNL     1       1.093  11.221  20.605  0.00  0.00    +0.000 A 
BRANCH  31  34
ATOM     34  O   UNL     1      -0.982  13.836  22.231  0.00  0.00    +0.000 OA
ATOM     35  C   UNL     1      -1.226  14.083  23.608  0.00  0.00    +0.000 C 
ENDBRANCH  31  34
ENDBRANCH  27  28
ENDBRANCH   3  26
TORSDOF 10
ENDMDL
MODEL 9
REMARK VINA RESULT:      -7.1      1.458      2.577
REMARK  Name = 
REMARK  12 active torsions:
REMARK  status: ('A' for Active; 'I' for Inactive)
REMARK    1  A    between atoms: C_1  and  O_2
REMARK    2  A    between atoms: O_2  and  N_3
REMARK    3  A    between atoms: N_3  and  C_4
REMARK    4  A    between atoms: C_6  and  C_7
REMARK    5  A    between atoms: C_8  and  C_9
REMARK    6  A    between atoms: C_12  and  O_13
REMARK    7  A    between atoms: O_13  and  C_14
REMARK    8  A    between atoms: N_22  and  C1*_23
REMARK    9  A    between atoms: C4*_25  and  C5*_26
REMARK   10  A    between atoms: C5*_26  and  O5*_27
REMARK   11  A    between atoms: C3*_28  and  O3*_29
REMARK   12  A    between atoms: C2*_30  and  O2*_31
REMARK                            x       y       z     vdW  Elec       q    Type
REMARK                         _______ _______ _______ _____ _____    ______ ____
ROOT
ATOM      1  C   UNL     1       6.780   5.144  15.710  0.00  0.00    +0.000 A 
ATOM      2  N   UNL     1       7.405   6.257  16.194  0.00  0.00    +0.000 NA
ATOM      3  C   UNL     1       6.750   7.022  17.090  0.00  0.00    +0.000 A 
ATOM      4  N   UNL     1       5.514   6.840  17.601  0.00  0.00    +0.000 NA
ATOM      5  C   UNL     1       4.929   5.747  17.084  0.00  0.00    +0.000 A 
ATOM      6  C   UNL     1       5.477   4.872  16.160  0.00  0.00    +0.000 A 
ATOM      7  N   UNL     1       4.597   3.851  15.870  0.00  0.00    +0.000 NA
ATOM      8  C   UNL     1       3.533   4.101  16.607  0.00  0.00    +0.000 A 
ATOM      9  N   UNL     1       3.690   5.239  17.358  0.00  0.00    +0.000 N 
ENDROOT
BRANCH   9  10
ATOM     10  C1* UNL     1       2.716   5.743  18.304  0.00  0.00    +0.000 C 
ATOM     11  O4* UNL     1       1.956   6.805  17.695  0.00  0.00    +0.000 OA
ATOM     12  C4* UNL     1       1.822   7.888  18.650  0.00  0.00    +0.000 C 
ATOM     13  C3* UNL     1       2.326   7.360  19.992  0.00  0.00    +0.000 C 
ATOM     14  C2* UNL     1       3.312   6.268  19.607  0.00  0.00    +0.000 C 
BRANCH  13  15
ATOM     15  O3* UNL     1       1.268   6.743  20.754  0.00  0.00    +0.000 OA
ATOM     16  H3* UNL     1       0.461   6.700  20.209  0.00  0.00    +0.000 HD
ENDBRANCH  13  15
BRANCH  14  17
ATOM     17  O2* UNL     1       3.384   5.248  20.607  0.00  0.00    +0.000 OA
ATOM     18  H2* UNL     1       2.588   4.688  20.484  0.00  0.00    +0.000 HD
ENDBRANCH  14  17
BRANCH  12  19
ATOM     19  C5* UNL     1       2.602   9.105  18.147  0.00  0.00    +0.000 C 
BRANCH  19  20
ATOM     20  O5* UNL     1       1.741   9.957  17.394  0.00  0.00    +0.000 OA
ATOM     21  H5* UNL     1       0.881   9.952  17.855  0.00  0.00    +0.000 HD
ENDBRANCH  19  20
ENDBRANCH  12  19
ENDBRANCH   9  10
BRANCH   1  22
ATOM     22  N   UNL     1       7.409   4.291  14.778  0.00  0.00    +0.000 N 
ATOM     23  H   UNL     1       8.363   4.095  15.087  0.00  0.00    +0.000 HD
BRANCH  22  25
ATOM     24  C   UNL     1       6.399   3.695  12.840  0.00  0.00    +0.000 C 
ATOM     25  O   UNL     1       7.325   4.609  13.420  0.00  0.00    +0.000 OA
ENDBRANCH  22  25
ENDBRANCH   1  22
BRANCH   3  26
ATOM     26  C   UNL     1       7.436   8.197  17.547  0.00  0.00    +0.000 C 
ATOM     27  C   UNL     1       8.018   9.186  17.924  0.00  0.00    +0.000 C 
BRANCH  27  28
ATOM     28  C   UNL     1       8.748  10.328  18.393  0.00  0.00    +0.000 A 
ATOM     29  C   UNL     1       9.493  10.245  19.566  0.00  0.00    +0.000 A 
ATOM     30  C   UNL     1      10.126  11.385  20.081  0.00  0.00    +0.000 A 
ATOM     31  C   UNL     1      10.042  12.612  19.418  0.00  0.00    +0.000 A 
ATOM     32  C   UNL     1       9.328  12.689  18.223  0.00  0.00    +0.000 A 
ATOM     33  C   UNL     1       8.680  11.549  17.716  0.00  0.00    +0.000 A 
BRANCH  31  34
ATOM     34  O   UNL     1      10.621  13.663  20.071  0.00  0.00    +0.000 OA
ATOM     35  C   UNL     1      11.923  14.046  19.649  0.00  0.00    +0.000 C 
ENDBRANCH  31  34
ENDBRANCH  27  28
ENDBRANCH   3  26
TORSDOF 10
ENDMDL
