MODEL 1
REMARK VINA RESULT:      -7.3      0.000      0.000
REMARK  Name = 
REMARK  7 active torsions:
REMARK  status: ('A' for Active; 'I' for Inactive)
REMARK    1  A    between atoms: C_1  and  N_2
REMARK    2  A    between atoms: N_2  and  C_3
REMARK    3  A    between atoms: N_2  and  C_4
REMARK    4  A    between atoms: C_7  and  C_8
REMARK    5  A    between atoms: C_9  and  C_10
REMARK    6  A    between atoms: C_9  and  C_12
REMARK    7  A    between atoms: C_12  and  C_14
REMARK                            x       y       z     vdW  Elec       q    Type
REMARK                         _______ _______ _______ _____ _____    ______ ____
ROOT
ATOM      1  C   UNL     1       5.021   5.460  17.286  0.00  0.00    +0.000 C 
ATOM      2  C   UNL     1       6.279   5.825  16.947  0.00  0.00    +0.000 C 
ENDROOT
BRANCH   1   6
ATOM      3  C   UNL     1       2.050   8.005  19.201  0.00  0.00    +0.000 A 
ATOM      4  C   UNL     1       2.609   8.311  17.952  0.00  0.00    +0.000 A 
ATOM      5  C   UNL     1       3.567   7.483  17.337  0.00  0.00    +0.000 A 
ATOM      6  C   UNL     1       3.982   6.290  17.938  0.00  0.00    +0.000 A 
ATOM      7  C   UNL     1       3.348   5.926  19.126  0.00  0.00    +0.000 A 
ATOM      8  C   UNL     1       2.430   6.777  19.755  0.00  0.00    +0.000 A 
BRANCH   3  10
ATOM      9  C   UNL     1       0.823  10.144  19.267  0.00  0.00    +0.000 C 
ATOM     10  N   UNL     1       1.151   8.851  19.861  0.00  0.00    +0.000 N 
ATOM     11  C   UNL     1       1.158   8.790  21.323  0.00  0.00    +0.000 C 
ENDBRANCH   3  10
ENDBRANCH   1   6
BRANCH   2  12
ATOM     12  C   UNL     1       6.821   7.106  17.222  0.00  0.00    +0.000 C 
ATOM     13  N   UNL     1       7.273   8.164  17.413  0.00  0.00    +0.000 NA
ENDBRANCH   2  12
BRANCH   2  14
ATOM     14  C   UNL     1       7.144   4.816  16.241  0.00  0.00    +0.000 C 
ATOM     15  O   UNL     1       7.987   4.156  16.846  0.00  0.00    +0.000 OA
BRANCH  14  16
ATOM     16  C   UNL     1       6.985   4.619  14.765  0.00  0.00    +0.000 A 
ATOM     17  C   UNL     1       7.826   5.324  13.893  0.00  0.00    +0.000 A 
ATOM     18  C   UNL     1       7.722   5.135  12.509  0.00  0.00    +0.000 A 
ATOM     19  C   UNL     1       6.790   4.236  11.991  0.00  0.00    +0.000 A 
ATOM     20  C   UNL     1       5.954   3.531  12.850  0.00  0.00    +0.000 A 
ATOM     21  C   UNL     1       6.056   3.714  14.229  0.00  0.00    +0.000 A 
ENDBRANCH  14  16
ENDBRANCH   2  14
TORSDOF 5
ENDMDL
MODEL 2
REMARK VINA RESULT:      -7.3      2.690      3.921
REMARK  Name = 
REMARK  7 active torsions:
REMARK  status: ('A' for Active; 'I' for Inactive)
REMARK    1  A    between atoms: C_1  and  N_2
REMARK    2  A    between atoms: N_2  and  C_3
REMARK    3  A    between atoms: N_2  and  C_4
REMARK    4  A    between atoms: C_7  and  C_8
REMARK    5  A    between atoms: C_9  and  C_10
REMARK    6  A    between atoms: C_9  and  C_12
REMARK    7  A    between atoms: C_12  and  C_14
REMARK                            x       y       z     vdW  Elec       q    Type
REMARK                         _______ _______ _______ _____ _____    ______ ____
ROOT
ATOM      1  C   UNL     1       3.328   6.296  18.905  0.00  0.00    +0.000 C 
ATOM      2  C   UNL     1       3.095   5.006  19.241  0.00  0.00    +0.000 C 
ENDROOT
BRANCH   1   6
ATOM      3  C   UNL     1       0.737   9.774  19.307  0.00  0.00    +0.000 A 
ATOM      4  C   UNL     1       1.236   9.347  18.067  0.00  0.00    +0.000 A 
ATOM      5  C   UNL     1       2.071   8.221  17.944  0.00  0.00    +0.000 A 
ATOM      6  C   UNL     1       2.415   7.452  19.060  0.00  0.00    +0.000 A 
ATOM      7  C   UNL     1       1.832   7.806  20.277  0.00  0.00    +0.000 A 
ATOM      8  C   UNL     1       1.040   8.955  20.401  0.00  0.00    +0.000 A 
BRANCH   3  10
ATOM      9  C   UNL     1      -0.304  11.437  20.803  0.00  0.00    +0.000 C 
ATOM     10  N   UNL     1      -0.034  10.933  19.459  0.00  0.00    +0.000 N 
ATOM     11  C   UNL     1      -1.081  11.150  18.461  0.00  0.00    +0.000 C 
ENDBRANCH   3  10
ENDBRANCH   1   6
BRANCH   2  12
ATOM     12  C   UNL     1       1.863   4.550  19.776  0.00  0.00    +0.000 C 
ATOM     13  N   UNL     1       0.840   4.209  20.220  0.00  0.00    +0.000 NA
ENDBRANCH   2  12
BRANCH   2  14
ATOM     14  C   UNL     1       4.202   4.008  19.036  0.00  0.00    +0.000 C 
ATOM     15  O   UNL     1       4.348   3.046  19.788  0.00  0.00    +0.000 OA
BRANCH  14  16
ATOM     16  C   UNL     1       5.156   4.195  17.897  0.00  0.00    +0.000 A 
ATOM     17  C   UNL     1       4.697   3.993  16.588  0.00  0.00    +0.000 A 
ATOM     18  C   UNL     1       5.558   4.192  15.502  0.00  0.00    +0.000 A 
ATOM     19  C   UNL     1       6.874   4.604  15.715  0.00  0.00    +0.000 A 
ATOM     20  C   UNL     1       7.336   4.810  17.010  0.00  0.00    +0.000 A 
ATOM     21  C   UNL     1       6.481   4.615  18.095  0.00  0.00    +0.000 A 
ENDBRANCH  14  16
ENDBRANCH   2  14
TORSDOF 5
ENDMDL
MODEL 3
REMARK VINA RESULT:      -7.3      2.720      3.643
REMARK  Name = 
REMARK  7 active torsions:
REMARK  status: ('A' for Active; 'I' for Inactive)
REMARK    1  A    between atoms: C_1  and  N_2
REMARK    2  A    between atoms: N_2  and  C_3
REMARK    3  A    between atoms: N_2  and  C_4
REMARK    4  A    between atoms: C_7  and  C_8
REMARK    5  A    between atoms: C_9  and  C_10
REMARK    6  A    between atoms: C_9  and  C_12
REMARK    7  A    between atoms: C_12  and  C_14
REMARK                            x       y       z     vdW  Elec       q    Type
REMARK                         _______ _______ _______ _____ _____    ______ ____
ROOT
ATOM      1  C   UNL     1       5.063   4.420  15.674  0.00  0.00    +0.000 C 
ATOM      2  C   UNL     1       6.396   4.493  15.457  0.00  0.00    +0.000 C 
ENDROOT
BRANCH   1   6
ATOM      3  C   UNL     1       2.909   3.978  19.435  0.00  0.00    +0.000 A 
ATOM      4  C   UNL     1       3.406   2.879  18.718  0.00  0.00    +0.000 A 
ATOM      5  C   UNL     1       4.103   3.029  17.505  0.00  0.00    +0.000 A 
ATOM      6  C   UNL     1       4.362   4.296  16.973  0.00  0.00    +0.000 A 
ATOM      7  C   UNL     1       3.969   5.395  17.736  0.00  0.00    +0.000 A 
ATOM      8  C   UNL     1       3.234   5.239  18.919  0.00  0.00    +0.000 A 
BRANCH   3  10
ATOM      9  C   UNL     1       2.443   2.748  21.522  0.00  0.00    +0.000 C 
ATOM     10  N   UNL     1       2.151   3.846  20.604  0.00  0.00    +0.000 N 
ATOM     11  C   UNL     1       0.754   4.272  20.522  0.00  0.00    +0.000 C 
ENDBRANCH   3  10
ENDBRANCH   1   6
BRANCH   2  12
ATOM     12  C   UNL     1       7.361   4.413  16.493  0.00  0.00    +0.000 C 
ATOM     13  N   UNL     1       8.129   4.333  17.366  0.00  0.00    +0.000 NA
ENDBRANCH   2  12
BRANCH   2  14
ATOM     14  C   UNL     1       6.876   4.670  14.042  0.00  0.00    +0.000 C 
ATOM     15  O   UNL     1       7.746   5.491  13.755  0.00  0.00    +0.000 OA
BRANCH  14  16
ATOM     16  C   UNL     1       6.273   3.836  12.953  0.00  0.00    +0.000 A 
ATOM     17  C   UNL     1       7.075   2.887  12.304  0.00  0.00    +0.000 A 
ATOM     18  C   UNL     1       6.530   2.071  11.305  0.00  0.00    +0.000 A 
ATOM     19  C   UNL     1       5.184   2.188  10.959  0.00  0.00    +0.000 A 
ATOM     20  C   UNL     1       4.381   3.125  11.600  0.00  0.00    +0.000 A 
ATOM     21  C   UNL     1       4.919   3.939  12.597  0.00  0.00    +0.000 A 
ENDBRANCH  14  16
ENDBRANCH   2  14
TORSDOF 5
ENDMDL
MODEL 4
REMARK VINA RESULT:      -7.3      2.663      3.811
REMARK  Name = 
REMARK  7 active torsions:
REMARK  status: ('A' for Active; 'I' for Inactive)
REMARK    1  A    between atoms: C_1  and  N_2
REMARK    2  A    between atoms: N_2  and  C_3
REMARK    3  A    between atoms: N_2  and  C_4
REMARK    4  A    between atoms: C_7  and  C_8
REMARK    5  A    between atoms: C_9  and  C_10
REMARK    6  A    between atoms: C_9  and  C_12
REMARK    7  A    between atoms: C_12  and  C_14
REMARK                            x       y       z     vdW  Elec       q    Type
REMARK                         _______ _______ _______ _____ _____    ______ ____
ROOT
ATOM      1  C   UNL     1       3.278   6.269  18.801  0.00  0.00    +0.000 C 
ATOM      2  C   UNL     1       3.052   4.981  19.147  0.00  0.00    +0.000 C 
ENDROOT
BRANCH   1   6
ATOM      3  C   UNL     1       0.754   9.773  19.372  0.00  0.00    +0.000 A 
ATOM      4  C   UNL     1       1.211   9.373  18.107  0.00  0.00    +0.000 A 
ATOM      5  C   UNL     1       2.025   8.238  17.929  0.00  0.00    +0.000 A 
ATOM      6  C   UNL     1       2.388   7.434  19.014  0.00  0.00    +0.000 A 
ATOM      7  C   UNL     1       1.846   7.763  20.256  0.00  0.00    +0.000 A 
ATOM      8  C   UNL     1       1.076   8.920  20.434  0.00  0.00    +0.000 A 
BRANCH   3  10
ATOM      9  C   UNL     1      -0.488  11.240  20.918  0.00  0.00    +0.000 C 
ATOM     10  N   UNL     1       0.006  10.938  19.578  0.00  0.00    +0.000 N 
ATOM     11  C   UNL     1      -0.834  11.374  18.462  0.00  0.00    +0.000 C 
ENDBRANCH   3  10
ENDBRANCH   1   6
BRANCH   2  12
ATOM     12  C   UNL     1       1.851   4.535  19.753  0.00  0.00    +0.000 C 
ATOM     13  N   UNL     1       0.873   4.185  20.283  0.00  0.00    +0.000 NA
ENDBRANCH   2  12
BRANCH   2  14
ATOM     14  C   UNL     1       4.135   3.973  18.873  0.00  0.00    +0.000 C 
ATOM     15  O   UNL     1       4.255   2.957  19.556  0.00  0.00    +0.000 OA
BRANCH  14  16
ATOM     16  C   UNL     1       5.096   4.215  17.751  0.00  0.00    +0.000 A 
ATOM     17  C   UNL     1       6.411   4.597  18.055  0.00  0.00    +0.000 A 
ATOM     18  C   UNL     1       7.341   4.798  17.028  0.00  0.00    +0.000 A 
ATOM     19  C   UNL     1       6.969   4.609  15.697  0.00  0.00    +0.000 A 
ATOM     20  C   UNL     1       5.668   4.227  15.387  0.00  0.00    +0.000 A 
ATOM     21  C   UNL     1       4.739   4.023  16.408  0.00  0.00    +0.000 A 
ENDBRANCH  14  16
ENDBRANCH   2  14
TORSDOF 5
ENDMDL
MODEL 5
REMARK VINA RESULT:      -7.2      2.655      3.913
REMARK  Name = 
REMARK  7 active torsions:
REMARK  status: ('A' for Active; 'I' for Inactive)
REMARK    1  A    between atoms: C_1  and  N_2
REMARK    2  A    between atoms: N_2  and  C_3
REMARK    3  A    between atoms: N_2  and  C_4
REMARK    4  A    between atoms: C_7  and  C_8
REMARK    5  A    between atoms: C_9  and  C_10
REMARK    6  A    between atoms: C_9  and  C_12
REMARK    7  A    between atoms: C_12  and  C_14
REMARK                            x       y       z     vdW  Elec       q    Type
REMARK                         _______ _______ _______ _____ _____    ______ ____
ROOT
ATOM      1  C   UNL     1       3.258   6.299  18.673  0.00  0.00    +0.000 C 
ATOM      2  C   UNL     1       3.027   5.029  19.076  0.00  0.00    +0.000 C 
ENDROOT
BRANCH   1   6
ATOM      3  C   UNL     1       0.621   9.705  19.315  0.00  0.00    +0.000 A 
ATOM      4  C   UNL     1       1.087   8.905  20.369  0.00  0.00    +0.000 A 
ATOM      5  C   UNL     1       1.940   7.807  20.155  0.00  0.00    +0.000 A 
ATOM      6  C   UNL     1       2.393   7.484  18.872  0.00  0.00    +0.000 A 
ATOM      7  C   UNL     1       2.023   8.342  17.836  0.00  0.00    +0.000 A 
ATOM      8  C   UNL     1       1.135   9.405  18.048  0.00  0.00    +0.000 A 
BRANCH   3  10
ATOM      9  C   UNL     1      -0.650  11.153  20.856  0.00  0.00    +0.000 C 
ATOM     10  N   UNL     1      -0.286  10.756  19.499  0.00  0.00    +0.000 N 
ATOM     11  C   UNL     1      -1.324  10.902  18.478  0.00  0.00    +0.000 C 
ENDBRANCH   3  10
ENDBRANCH   1   6
BRANCH   2  12
ATOM     12  C   UNL     1       1.843   4.625  19.744  0.00  0.00    +0.000 C 
ATOM     13  N   UNL     1       0.849   4.308  20.266  0.00  0.00    +0.000 NA
ENDBRANCH   2  12
BRANCH   2  14
ATOM     14  C   UNL     1       4.085   3.994  18.804  0.00  0.00    +0.000 C 
ATOM     15  O   UNL     1       4.174   2.971  19.480  0.00  0.00    +0.000 OA
BRANCH  14  16
ATOM     16  C   UNL     1       5.060   4.218  17.690  0.00  0.00    +0.000 A 
ATOM     17  C   UNL     1       6.382   4.563  18.005  0.00  0.00    +0.000 A 
ATOM     18  C   UNL     1       7.324   4.747  16.986  0.00  0.00    +0.000 A 
ATOM     19  C   UNL     1       6.957   4.576  15.651  0.00  0.00    +0.000 A 
ATOM     20  C   UNL     1       5.648   4.230  15.330  0.00  0.00    +0.000 A 
ATOM     21  C   UNL     1       4.707   4.044  16.342  0.00  0.00    +0.000 A 
ENDBRANCH  14  16
ENDBRANCH   2  14
TORSDOF 5
ENDMDL
MODEL 6
REMARK VINA RESULT:      -7.2      2.394      3.226
REMARK  Name = 
REMARK  7 active torsions:
REMARK  status: ('A' for Active; 'I' for Inactive)
REMARK    1  A    between atoms: C_1  and  N_2
REMARK    2  A    between atoms: N_2  and  C_3
REMARK    3  A    between atoms: N_2  and  C_4
REMARK    4  A    between atoms: C_7  and  C_8
REMARK    5  A    between atoms: C_9  and  C_10
REMARK    6  A    between atoms: C_9  and  C_12
REMARK    7  A    between atoms: C_12  and  C_14
REMARK                            x       y       z     vdW  Elec       q    Type
REMARK                         _______ _______ _______ _____ _____    ______ ____
ROOT
ATOM      1  C   UNL     1       5.087   4.614  15.612  0.00  0.00    +0.000 C 
ATOM      2  C   UNL     1       6.427   4.578  15.429  0.00  0.00    +0.000 C 
ENDROOT
BRANCH   1   6
ATOM      3  C   UNL     1       2.996   4.616  19.433  0.00  0.00    +0.000 A 
ATOM      4  C   UNL     1       3.168   5.779  18.669  0.00  0.00    +0.000 A 
ATOM      5  C   UNL     1       3.843   5.772  17.434  0.00  0.00    +0.000 A 
ATOM      6  C   UNL     1       4.346   4.584  16.895  0.00  0.00    +0.000 A 
ATOM      7  C   UNL     1       4.081   3.408  17.596  0.00  0.00    +0.000 A 
ATOM      8  C   UNL     1       3.451   3.429  18.847  0.00  0.00    +0.000 A 
BRANCH   3  10
ATOM      9  C   UNL     1       2.068   3.341  21.331  0.00  0.00    +0.000 C 
ATOM     10  N   UNL     1       2.393   4.616  20.697  0.00  0.00    +0.000 N 
ATOM     11  C   UNL     1       1.494   5.733  20.985  0.00  0.00    +0.000 C 
ENDBRANCH   3  10
ENDBRANCH   1   6
BRANCH   2  12
ATOM     12  C   UNL     1       7.356   4.458  16.493  0.00  0.00    +0.000 C 
ATOM     13  N   UNL     1       8.098   4.336  17.384  0.00  0.00    +0.000 NA
ENDBRANCH   2  12
BRANCH   2  14
ATOM     14  C   UNL     1       6.954   4.674  14.023  0.00  0.00    +0.000 C 
ATOM     15  O   UNL     1       7.868   5.442  13.730  0.00  0.00    +0.000 OA
BRANCH  14  16
ATOM     16  C   UNL     1       6.345   3.822  12.952  0.00  0.00    +0.000 A 
ATOM     17  C   UNL     1       7.160   2.913  12.264  0.00  0.00    +0.000 A 
ATOM     18  C   UNL     1       6.613   2.081  11.281  0.00  0.00    +0.000 A 
ATOM     19  C   UNL     1       5.250   2.142  10.988  0.00  0.00    +0.000 A 
ATOM     20  C   UNL     1       4.433   3.040  11.668  0.00  0.00    +0.000 A 
ATOM     21  C   UNL     1       4.975   3.869  12.650  0.00  0.00    +0.000 A 
ENDBRANCH  14  16
ENDBRANCH   2  14
TORSDOF 5
ENDMDL
MODEL 7
REMARK VINA RESULT:      -7.2      2.659      3.963
REMARK  Name = 
REMARK  7 active torsions:
REMARK  status: ('A' for Active; 'I' for Inactive)
REMARK    1  A    between atoms: C_1  and  N_2
REMARK    2  A    between atoms: N_2  and  C_3
REMARK    3  A    between atoms: N_2  and  C_4
REMARK    4  A    between atoms: C_7  and  C_8
REMARK    5  A    between atoms: C_9  and  C_10
REMARK    6  A    between atoms: C_9  and  C_12
REMARK    7  A    between atoms: C_12  and  C_14
REMARK                            x       y       z     vdW  Elec       q    Type
REMARK                         _______ _______ _______ _____ _____    ______ ____
ROOT
ATOM      1  C   UNL     1       3.309   6.264  18.708  0.00  0.00    +0.000 C 
ATOM      2  C   UNL     1       3.057   4.992  19.093  0.00  0.00    +0.000 C 
ENDROOT
BRANCH   1   6
ATOM      3  C   UNL     1       0.672   9.681  19.292  0.00  0.00    +0.000 A 
ATOM      4  C   UNL     1       1.117   8.884  20.357  0.00  0.00    +0.000 A 
ATOM      5  C   UNL     1       1.971   7.782  20.162  0.00  0.00    +0.000 A 
ATOM      6  C   UNL     1       2.444   7.453  18.888  0.00  0.00    +0.000 A 
ATOM      7  C   UNL     1       2.094   8.307  17.842  0.00  0.00    +0.000 A 
ATOM      8  C   UNL     1       1.206   9.374  18.035  0.00  0.00    +0.000 A 
BRANCH   3  10
ATOM      9  C   UNL     1      -1.465  10.746  18.670  0.00  0.00    +0.000 C 
ATOM     10  N   UNL     1      -0.235  10.735  19.457  0.00  0.00    +0.000 N 
ATOM     11  C   UNL     1       0.341  12.040  19.781  0.00  0.00    +0.000 C 
ENDBRANCH   3  10
ENDBRANCH   1   6
BRANCH   2  12
ATOM     12  C   UNL     1       1.848   4.590  19.715  0.00  0.00    +0.000 C 
ATOM     13  N   UNL     1       0.836   4.282  20.206  0.00  0.00    +0.000 NA
ENDBRANCH   2  12
BRANCH   2  14
ATOM     14  C   UNL     1       4.118   3.953  18.847  0.00  0.00    +0.000 C 
ATOM     15  O   UNL     1       4.185   2.930  19.526  0.00  0.00    +0.000 OA
BRANCH  14  16
ATOM     16  C   UNL     1       5.123   4.174  17.759  0.00  0.00    +0.000 A 
ATOM     17  C   UNL     1       4.723   4.014  16.425  0.00  0.00    +0.000 A 
ATOM     18  C   UNL     1       5.632   4.245  15.385  0.00  0.00    +0.000 A 
ATOM     19  C   UNL     1       6.937   4.649  15.670  0.00  0.00    +0.000 A 
ATOM     20  C   UNL     1       7.340   4.813  16.991  0.00  0.00    +0.000 A 
ATOM     21  C   UNL     1       6.437   4.586  18.029  0.00  0.00    +0.000 A 
ENDBRANCH  14  16
ENDBRANCH   2  14
TORSDOF 5
ENDMDL
MODEL 8
REMARK VINA RESULT:      -7.2      2.245      3.115
REMARK  Name = 
REMARK  7 active torsions:
REMARK  status: ('A' for Active; 'I' for Inactive)
REMARK    1  A    between atoms: C_1  and  N_2
REMARK    2  A    between atoms: N_2  and  C_3
REMARK    3  A    between atoms: N_2  and  C_4
REMARK    4  A    between atoms: C_7  and  C_8
REMARK    5  A    between atoms: C_9  and  C_10
REMARK    6  A    between atoms: C_9  and  C_12
REMARK    7  A    between atoms: C_12  and  C_14
REMARK                            x       y       z     vdW  Elec       q    Type
REMARK                         _______ _______ _______ _____ _____    ______ ____
ROOT
ATOM      1  C   UNL     1       5.083   4.870  15.612  0.00  0.00    +0.000 C 
ATOM      2  C   UNL     1       6.416   4.716  15.440  0.00  0.00    +0.000 C 
ENDROOT
BRANCH   1   6
ATOM      3  C   UNL     1       2.975   5.016  19.422  0.00  0.00    +0.000 A 
ATOM      4  C   UNL     1       3.403   6.173  18.753  0.00  0.00    +0.000 A 
ATOM      5  C   UNL     1       4.082   6.120  17.522  0.00  0.00    +0.000 A 
ATOM      6  C   UNL     1       4.331   4.898  16.888  0.00  0.00    +0.000 A 
ATOM      7  C   UNL     1       3.811   3.754  17.492  0.00  0.00    +0.000 A 
ATOM      8  C   UNL     1       3.178   3.810  18.741  0.00  0.00    +0.000 A 
BRANCH   3  10
ATOM      9  C   UNL     1       2.033   3.785  21.341  0.00  0.00    +0.000 C 
ATOM     10  N   UNL     1       2.364   5.045  20.681  0.00  0.00    +0.000 N 
ATOM     11  C   UNL     1       1.466   6.170  20.939  0.00  0.00    +0.000 C 
ENDBRANCH   3  10
ENDBRANCH   1   6
BRANCH   2  12
ATOM     12  C   UNL     1       7.321   4.505  16.511  0.00  0.00    +0.000 C 
ATOM     13  N   UNL     1       8.068   4.296  17.382  0.00  0.00    +0.000 NA
ENDBRANCH   2  12
BRANCH   2  14
ATOM     14  C   UNL     1       6.962   4.774  14.040  0.00  0.00    +0.000 C 
ATOM     15  O   UNL     1       7.855   5.561  13.729  0.00  0.00    +0.000 OA
BRANCH  14  16
ATOM     16  C   UNL     1       6.399   3.861  12.995  0.00  0.00    +0.000 A 
ATOM     17  C   UNL     1       5.027   3.918  12.713  0.00  0.00    +0.000 A 
ATOM     18  C   UNL     1       4.478   3.099  11.719  0.00  0.00    +0.000 A 
ATOM     19  C   UNL     1       5.295   2.232  10.993  0.00  0.00    +0.000 A 
ATOM     20  C   UNL     1       6.658   2.172  11.264  0.00  0.00    +0.000 A 
ATOM     21  C   UNL     1       7.209   2.987  12.252  0.00  0.00    +0.000 A 
ENDBRANCH  14  16
ENDBRANCH   2  14
TORSDOF 5
ENDMDL
MODEL 9
REMARK VINA RESULT:      -7.2      0.089      1.057
REMARK  Name = 
REMARK  7 active torsions:
REMARK  status: ('A' for Active; 'I' for Inactive)
REMARK    1  A    between atoms: C_1  and  N_2
REMARK    2  A    between atoms: N_2  and  C_3
REMARK    3  A    between atoms: N_2  and  C_4
REMARK    4  A    between atoms: C_7  and  C_8
REMARK    5  A    between atoms: C_9  and  C_10
REMARK    6  A    between atoms: C_9  and  C_12
REMARK    7  A    between atoms: C_12  and  C_14
REMARK                            x       y       z     vdW  Elec       q    Type
REMARK                         _______ _______ _______ _____ _____    ______ ____
ROOT
ATOM      1  C   UNL     1       5.045   5.480  17.301  0.00  0.00    +0.000 C 
ATOM      2  C   UNL     1       6.300   5.844  16.954  0.00  0.00    +0.000 C 
ENDROOT
BRANCH   1   6
ATOM      3  C   UNL     1       2.052   8.054  19.142  0.00  0.00    +0.000 A 
ATOM      4  C   UNL     1       2.608   8.328  17.884  0.00  0.00    +0.000 A 
ATOM      5  C   UNL     1       3.574   7.491  17.293  0.00  0.00    +0.000 A 
ATOM      6  C   UNL     1       3.998   6.320  17.928  0.00  0.00    +0.000 A 
ATOM      7  C   UNL     1       3.368   5.985  19.127  0.00  0.00    +0.000 A 
ATOM      8  C   UNL     1       2.443   6.846  19.732  0.00  0.00    +0.000 A 
BRANCH   3  10
ATOM      9  C   UNL     1       0.950  10.259  19.250  0.00  0.00    +0.000 C 
ATOM     10  N   UNL     1       1.146   8.911  19.778  0.00  0.00    +0.000 N 
ATOM     11  C   UNL     1       1.013   8.755  21.226  0.00  0.00    +0.000 C 
ENDBRANCH   3  10
ENDBRANCH   1   6
BRANCH   2  12
ATOM     12  C   UNL     1       6.833   7.136  17.195  0.00  0.00    +0.000 C 
ATOM     13  N   UNL     1       7.248   8.202  17.422  0.00  0.00    +0.000 NA
ENDBRANCH   2  12
BRANCH   2  14
ATOM     14  C   UNL     1       7.174   4.824  16.277  0.00  0.00    +0.000 C 
ATOM     15  O   UNL     1       8.006   4.170  16.904  0.00  0.00    +0.000 OA
BRANCH  14  16
ATOM     16  C   UNL     1       7.037   4.605  14.802  0.00  0.00    +0.000 A 
ATOM     17  C   UNL     1       6.059   3.715  14.337  0.00  0.00    +0.000 A 
ATOM     18  C   UNL     1       5.886   3.514  12.962  0.00  0.00    +0.000 A 
ATOM     19  C   UNL     1       6.676   4.208  12.046  0.00  0.00    +0.000 A 
ATOM     20  C   UNL     1       7.647   5.095  12.499  0.00  0.00    +0.000 A 
ATOM     21  C   UNL     1       7.821   5.299  13.868  0.00  0.00    +0.000 A 
ENDBRANCH  14  16
ENDBRANCH   2  14
TORSDOF 5
ENDMDL
