MODEL 1
REMARK VINA RESULT:      -7.1      0.000      0.000
REMARK  Name = 
REMARK  5 active torsions:
REMARK  status: ('A' for Active; 'I' for Inactive)
REMARK    1  A    between atoms: C_1  and  C_2
REMARK    2  A    between atoms: C_2  and  C_3
REMARK    3  A    between atoms: C_3  and  N_4
REMARK    4  A    between atoms: N_9  and  C_10
REMARK    5  A    between atoms: C_10  and  C_11
REMARK                            x       y       z     vdW  Elec       q    Type
REMARK                         _______ _______ _______ _____ _____    ______ ____
ROOT
ATOM      1  N   UNL     1       6.802   5.003  15.945  0.00  0.00    +0.000 N 
ATOM      2  N   UNL     1       7.580   5.238  14.866  0.00  0.00    +0.000 NA
ATOM      3  N   UNL     1       6.921   4.738  13.837  0.00  0.00    +0.000 NA
ATOM      4  N   UNL     1       5.734   4.193  14.241  0.00  0.00    +0.000 NA
ATOM      5  C   UNL     1       5.653   4.350  15.548  0.00  0.00    +0.000 A 
ATOM      6  N   UNL     1       4.574   3.966  16.270  0.00  0.00    +0.000 N 
ATOM      7  H   UNL     1       3.844   3.517  15.720  0.00  0.00    +0.000 HD
ENDROOT
BRANCH   1   8
ATOM      8  C   UNL     1       7.226   5.561  17.204  0.00  0.00    +0.000 C 
BRANCH   8  10
ATOM      9  C   UNL     1       7.914   7.971  17.725  0.00  0.00    +0.000 C 
ATOM     10  C   UNL     1       6.773   7.003  17.445  0.00  0.00    +0.000 C 
ENDBRANCH   8  10
ENDBRANCH   1   8
BRANCH   6  11
ATOM     11  C   UNL     1       4.464   3.714  17.688  0.00  0.00    +0.000 C 
BRANCH  11  12
ATOM     12  C   UNL     1       3.642   4.730  18.459  0.00  0.00    +0.000 A 
ATOM     13  C   UNL     1       3.383   6.027  17.978  0.00  0.00    +0.000 A 
ATOM     14  C   UNL     1       2.647   6.944  18.739  0.00  0.00    +0.000 A 
ATOM     15  C   UNL     1       2.156   6.580  19.988  0.00  0.00    +0.000 A 
ATOM     16 CL   UNL     1       1.262   7.715  20.924  0.00  0.00    +0.000 Cl
ATOM     17  C   UNL     1       2.386   5.303  20.485  0.00  0.00    +0.000 A 
ATOM     18  C   UNL     1       3.120   4.389  19.725  0.00  0.00    +0.000 A 
ATOM     19 CL   UNL     1       3.367   2.817  20.408  0.00  0.00    +0.000 Cl
ENDBRANCH  11  12
ENDBRANCH   6  11
TORSDOF 4
ENDMDL
MODEL 2
REMARK VINA RESULT:      -7.0      1.630      2.643
REMARK  Name = 
REMARK  5 active torsions:
REMARK  status: ('A' for Active; 'I' for Inactive)
REMARK    1  A    between atoms: C_1  and  C_2
REMARK    2  A    between atoms: C_2  and  C_3
REMARK    3  A    between atoms: C_3  and  N_4
REMARK    4  A    between atoms: N_9  and  C_10
REMARK    5  A    between atoms: C_10  and  C_11
REMARK                            x       y       z     vdW  Elec       q    Type
REMARK                         _______ _______ _______ _____ _____    ______ ____
ROOT
ATOM      1  N   UNL     1       6.816   5.282  16.935  0.00  0.00    +0.000 N 
ATOM      2  N   UNL     1       7.759   4.617  16.232  0.00  0.00    +0.000 NA
ATOM      3  N   UNL     1       7.443   4.789  14.962  0.00  0.00    +0.000 NA
ATOM      4  N   UNL     1       6.319   5.557  14.842  0.00  0.00    +0.000 NA
ATOM      5  C   UNL     1       5.920   5.865  16.061  0.00  0.00    +0.000 A 
ATOM      6  N   UNL     1       4.855   6.665  16.307  0.00  0.00    +0.000 N 
ATOM      7  H   UNL     1       4.370   6.981  15.469  0.00  0.00    +0.000 HD
ENDROOT
BRANCH   1   8
ATOM      8  C   UNL     1       6.987   5.368  18.363  0.00  0.00    +0.000 C 
BRANCH   8  10
ATOM      9  C   UNL     1       7.936   7.724  18.049  0.00  0.00    +0.000 C 
ATOM     10  C   UNL     1       8.007   6.412  18.819  0.00  0.00    +0.000 C 
ENDBRANCH   8  10
ENDBRANCH   1   8
BRANCH   6  11
ATOM     11  C   UNL     1       4.070   6.797  17.512  0.00  0.00    +0.000 C 
BRANCH  11  12
ATOM     12  C   UNL     1       3.241   5.580  17.875  0.00  0.00    +0.000 A 
ATOM     13  C   UNL     1       3.291   4.376  17.148  0.00  0.00    +0.000 A 
ATOM     14  C   UNL     1       2.481   3.288  17.499  0.00  0.00    +0.000 A 
ATOM     15  C   UNL     1       1.613   3.383  18.581  0.00  0.00    +0.000 A 
ATOM     16 CL   UNL     1       0.613   2.048  19.000  0.00  0.00    +0.000 Cl
ATOM     17  C   UNL     1       1.549   4.555  19.325  0.00  0.00    +0.000 A 
ATOM     18  C   UNL     1       2.357   5.640  18.975  0.00  0.00    +0.000 A 
ATOM     19 CL   UNL     1       2.223   7.067  19.946  0.00  0.00    +0.000 Cl
ENDBRANCH  11  12
ENDBRANCH   6  11
TORSDOF 4
ENDMDL
MODEL 3
REMARK VINA RESULT:      -7.0      1.652      3.037
REMARK  Name = 
REMARK  5 active torsions:
REMARK  status: ('A' for Active; 'I' for Inactive)
REMARK    1  A    between atoms: C_1  and  C_2
REMARK    2  A    between atoms: C_2  and  C_3
REMARK    3  A    between atoms: C_3  and  N_4
REMARK    4  A    between atoms: N_9  and  C_10
REMARK    5  A    between atoms: C_10  and  C_11
REMARK                            x       y       z     vdW  Elec       q    Type
REMARK                         _______ _______ _______ _____ _____    ______ ____
ROOT
ATOM      1  N   UNL     1       6.181   4.413  14.230  0.00  0.00    +0.000 N 
ATOM      2  N   UNL     1       7.100   5.008  13.438  0.00  0.00    +0.000 NA
ATOM      3  N   UNL     1       7.990   5.533  14.259  0.00  0.00    +0.000 NA
ATOM      4  N   UNL     1       7.656   5.281  15.561  0.00  0.00    +0.000 NA
ATOM      5  C   UNL     1       6.534   4.589  15.553  0.00  0.00    +0.000 A 
ATOM      6  N   UNL     1       5.946   4.125  16.681  0.00  0.00    +0.000 N 
ATOM      7  H   UNL     1       6.430   4.385  17.539  0.00  0.00    +0.000 HD
ENDROOT
BRANCH   1   8
ATOM      8  C   UNL     1       5.147   3.643  13.586  0.00  0.00    +0.000 C 
BRANCH   8  10
ATOM      9  C   UNL     1       4.169   3.223  11.258  0.00  0.00    +0.000 C 
ATOM     10  C   UNL     1       5.423   3.310  12.118  0.00  0.00    +0.000 C 
ENDBRANCH   8  10
ENDBRANCH   1   8
BRANCH   6  11
ATOM     11  C   UNL     1       4.582   3.703  16.895  0.00  0.00    +0.000 C 
BRANCH  11  12
ATOM     12  C   UNL     1       3.780   4.577  17.841  0.00  0.00    +0.000 A 
ATOM     13  C   UNL     1       3.661   5.971  17.679  0.00  0.00    +0.000 A 
ATOM     14  C   UNL     1       2.938   6.744  18.597  0.00  0.00    +0.000 A 
ATOM     15  C   UNL     1       2.319   6.139  19.685  0.00  0.00    +0.000 A 
ATOM     16 CL   UNL     1       1.442   7.095  20.815  0.00  0.00    +0.000 Cl
ATOM     17  C   UNL     1       2.408   4.763  19.865  0.00  0.00    +0.000 A 
ATOM     18  C   UNL     1       3.130   3.993  18.950  0.00  0.00    +0.000 A 
ATOM     19 CL   UNL     1       3.198   2.287  19.238  0.00  0.00    +0.000 Cl
ENDBRANCH  11  12
ENDBRANCH   6  11
TORSDOF 4
ENDMDL
MODEL 4
REMARK VINA RESULT:      -6.8      3.430      5.547
REMARK  Name = 
REMARK  5 active torsions:
REMARK  status: ('A' for Active; 'I' for Inactive)
REMARK    1  A    between atoms: C_1  and  C_2
REMARK    2  A    between atoms: C_2  and  C_3
REMARK    3  A    between atoms: C_3  and  N_4
REMARK    4  A    between atoms: N_9  and  C_10
REMARK    5  A    between atoms: C_10  and  C_11
REMARK                            x       y       z     vdW  Elec       q    Type
REMARK                         _______ _______ _______ _____ _____    ______ ____
ROOT
ATOM      1  N   UNL     1       3.446   4.460  19.816  0.00  0.00    +0.000 N 
ATOM      2  N   UNL     1       2.603   4.089  20.804  0.00  0.00    +0.000 NA
ATOM      3  N   UNL     1       2.871   2.819  21.042  0.00  0.00    +0.000 NA
ATOM      4  N   UNL     1       3.873   2.374  20.226  0.00  0.00    +0.000 NA
ATOM      5  C   UNL     1       4.235   3.385  19.459  0.00  0.00    +0.000 A 
ATOM      6  N   UNL     1       5.247   3.304  18.563  0.00  0.00    +0.000 N 
ATOM      7  H   UNL     1       5.683   2.385  18.510  0.00  0.00    +0.000 HD
ENDROOT
BRANCH   1   8
ATOM      8  C   UNL     1       3.458   5.850  19.438  0.00  0.00    +0.000 C 
BRANCH   8  10
ATOM      9  C   UNL     1       2.465   7.689  17.961  0.00  0.00    +0.000 C 
ATOM     10  C   UNL     1       2.537   6.199  18.267  0.00  0.00    +0.000 C 
ENDBRANCH   8  10
ENDBRANCH   1   8
BRANCH   6  11
ATOM     11  C   UNL     1       5.524   4.140  17.419  0.00  0.00    +0.000 C 
BRANCH  11  12
ATOM     12  C   UNL     1       6.388   5.354  17.705  0.00  0.00    +0.000 A 
ATOM     13  C   UNL     1       7.349   5.383  18.734  0.00  0.00    +0.000 A 
ATOM     14  C   UNL     1       8.101   6.538  18.985  0.00  0.00    +0.000 A 
ATOM     15  C   UNL     1       7.909   7.678  18.212  0.00  0.00    +0.000 A 
ATOM     16 CL   UNL     1       8.828   9.097  18.532  0.00  0.00    +0.000 Cl
ATOM     17  C   UNL     1       6.976   7.676  17.181  0.00  0.00    +0.000 A 
ATOM     18  C   UNL     1       6.226   6.524  16.932  0.00  0.00    +0.000 A 
ATOM     19 CL   UNL     1       5.083   6.595  15.634  0.00  0.00    +0.000 Cl
ENDBRANCH  11  12
ENDBRANCH   6  11
TORSDOF 4
ENDMDL
MODEL 5
REMARK VINA RESULT:      -6.8      1.224      2.441
REMARK  Name = 
REMARK  5 active torsions:
REMARK  status: ('A' for Active; 'I' for Inactive)
REMARK    1  A    between atoms: C_1  and  C_2
REMARK    2  A    between atoms: C_2  and  C_3
REMARK    3  A    between atoms: C_3  and  N_4
REMARK    4  A    between atoms: N_9  and  C_10
REMARK    5  A    between atoms: C_10  and  C_11
REMARK                            x       y       z     vdW  Elec       q    Type
REMARK                         _______ _______ _______ _____ _____    ______ ____
ROOT
ATOM      1  N   UNL     1       6.805   5.615  16.637  0.00  0.00    +0.000 N 
ATOM      2  N   UNL     1       7.619   4.955  15.784  0.00  0.00    +0.000 NA
ATOM      3  N   UNL     1       6.822   4.405  14.887  0.00  0.00    +0.000 NA
ATOM      4  N   UNL     1       5.515   4.706  15.150  0.00  0.00    +0.000 NA
ATOM      5  C   UNL     1       5.494   5.454  16.236  0.00  0.00    +0.000 A 
ATOM      6  N   UNL     1       4.354   5.975  16.750  0.00  0.00    +0.000 N 
ATOM      7  H   UNL     1       3.511   5.712  16.242  0.00  0.00    +0.000 HD
ENDROOT
BRANCH   1   8
ATOM      8  C   UNL     1       7.424   6.421  17.658  0.00  0.00    +0.000 C 
BRANCH   8  10
ATOM      9  C   UNL     1       8.405   8.724  18.192  0.00  0.00    +0.000 C 
ATOM     10  C   UNL     1       7.384   7.927  17.391  0.00  0.00    +0.000 C 
ENDBRANCH   8  10
ENDBRANCH   1   8
BRANCH   6  11
ATOM     11  C   UNL     1       4.094   6.471  18.080  0.00  0.00    +0.000 C 
BRANCH  11  12
ATOM     12  C   UNL     1       3.456   5.471  19.026  0.00  0.00    +0.000 A 
ATOM     13  C   UNL     1       3.806   4.107  19.046  0.00  0.00    +0.000 A 
ATOM     14  C   UNL     1       3.167   3.212  19.913  0.00  0.00    +0.000 A 
ATOM     15  C   UNL     1       2.173   3.663  20.775  0.00  0.00    +0.000 A 
ATOM     16 CL   UNL     1       1.384   2.557  21.830  0.00  0.00    +0.000 Cl
ATOM     17  C   UNL     1       1.814   5.006  20.787  0.00  0.00    +0.000 A 
ATOM     18  C   UNL     1       2.452   5.898  19.922  0.00  0.00    +0.000 A 
ATOM     19 CL   UNL     1       1.953   7.555  19.991  0.00  0.00    +0.000 Cl
ENDBRANCH  11  12
ENDBRANCH   6  11
TORSDOF 4
ENDMDL
MODEL 6
REMARK VINA RESULT:      -6.8      2.000      3.753
REMARK  Name = 
REMARK  5 active torsions:
REMARK  status: ('A' for Active; 'I' for Inactive)
REMARK    1  A    between atoms: C_1  and  C_2
REMARK    2  A    between atoms: C_2  and  C_3
REMARK    3  A    between atoms: C_3  and  N_4
REMARK    4  A    between atoms: N_9  and  C_10
REMARK    5  A    between atoms: C_10  and  C_11
REMARK                            x       y       z     vdW  Elec       q    Type
REMARK                         _______ _______ _______ _____ _____    ______ ____
ROOT
ATOM      1  N   UNL     1       6.082   4.568  14.322  0.00  0.00    +0.000 N 
ATOM      2  N   UNL     1       7.194   4.950  13.657  0.00  0.00    +0.000 NA
ATOM      3  N   UNL     1       7.950   5.561  14.551  0.00  0.00    +0.000 NA
ATOM      4  N   UNL     1       7.341   5.571  15.774  0.00  0.00    +0.000 NA
ATOM      5  C   UNL     1       6.180   4.961  15.642  0.00  0.00    +0.000 A 
ATOM      6  N   UNL     1       5.337   4.748  16.680  0.00  0.00    +0.000 N 
ATOM      7  H   UNL     1       5.664   5.130  17.566  0.00  0.00    +0.000 HD
ENDROOT
BRANCH   1   8
ATOM      8  C   UNL     1       5.126   3.758  13.610  0.00  0.00    +0.000 C 
BRANCH   8  10
ATOM      9  C   UNL     1       4.348   3.146  11.250  0.00  0.00    +0.000 C 
ATOM     10  C   UNL     1       5.528   3.416  12.174  0.00  0.00    +0.000 C 
ENDBRANCH   8  10
ENDBRANCH   1   8
BRANCH   6  11
ATOM     11  C   UNL     1       3.923   4.457  16.665  0.00  0.00    +0.000 C 
BRANCH  11  12
ATOM     12  C   UNL     1       3.354   3.969  17.984  0.00  0.00    +0.000 A 
ATOM     13  C   UNL     1       3.324   2.609  18.347  0.00  0.00    +0.000 A 
ATOM     14  C   UNL     1       2.758   2.199  19.561  0.00  0.00    +0.000 A 
ATOM     15  C   UNL     1       2.218   3.139  20.432  0.00  0.00    +0.000 A 
ATOM     16 CL   UNL     1       1.513   2.629  21.917  0.00  0.00    +0.000 Cl
ATOM     17  C   UNL     1       2.243   4.490  20.107  0.00  0.00    +0.000 A 
ATOM     18  C   UNL     1       2.807   4.898  18.896  0.00  0.00    +0.000 A 
ATOM     19 CL   UNL     1       2.803   6.596  18.557  0.00  0.00    +0.000 Cl
ENDBRANCH  11  12
ENDBRANCH   6  11
TORSDOF 4
ENDMDL
MODEL 7
REMARK VINA RESULT:      -6.8      2.165      3.607
REMARK  Name = 
REMARK  5 active torsions:
REMARK  status: ('A' for Active; 'I' for Inactive)
REMARK    1  A    between atoms: C_1  and  C_2
REMARK    2  A    between atoms: C_2  and  C_3
REMARK    3  A    between atoms: C_3  and  N_4
REMARK    4  A    between atoms: N_9  and  C_10
REMARK    5  A    between atoms: C_10  and  C_11
REMARK                            x       y       z     vdW  Elec       q    Type
REMARK                         _______ _______ _______ _____ _____    ______ ____
ROOT
ATOM      1  N   UNL     1       6.546   4.189  13.271  0.00  0.00    +0.000 N 
ATOM      2  N   UNL     1       7.270   4.663  12.233  0.00  0.00    +0.000 NA
ATOM      3  N   UNL     1       8.158   5.483  12.765  0.00  0.00    +0.000 NA
ATOM      4  N   UNL     1       8.016   5.536  14.123  0.00  0.00    +0.000 NA
ATOM      5  C   UNL     1       7.017   4.739  14.446  0.00  0.00    +0.000 A 
ATOM      6  N   UNL     1       6.637   4.516  15.727  0.00  0.00    +0.000 N 
ATOM      7  H   UNL     1       7.171   5.042  16.416  0.00  0.00    +0.000 HD
ENDROOT
BRANCH   1   8
ATOM      8  C   UNL     1       5.574   3.164  12.990  0.00  0.00    +0.000 C 
BRANCH   8  10
ATOM      9  C   UNL     1       3.871   3.300  11.084  0.00  0.00    +0.000 C 
ATOM     10  C   UNL     1       5.292   2.945  11.502  0.00  0.00    +0.000 C 
ENDBRANCH   8  10
ENDBRANCH   1   8
BRANCH   6  11
ATOM     11  C   UNL     1       5.385   4.006  16.234  0.00  0.00    +0.000 C 
BRANCH  11  12
ATOM     12  C   UNL     1       4.493   5.039  16.897  0.00  0.00    +0.000 A 
ATOM     13  C   UNL     1       4.776   6.418  16.881  0.00  0.00    +0.000 A 
ATOM     14  C   UNL     1       3.942   7.332  17.536  0.00  0.00    +0.000 A 
ATOM     15  C   UNL     1       2.811   6.887  18.212  0.00  0.00    +0.000 A 
ATOM     16 CL   UNL     1       1.796   8.014  19.024  0.00  0.00    +0.000 Cl
ATOM     17  C   UNL     1       2.498   5.533  18.236  0.00  0.00    +0.000 A 
ATOM     18  C   UNL     1       3.331   4.621  17.583  0.00  0.00    +0.000 A 
ATOM     19 CL   UNL     1       2.880   2.951  17.656  0.00  0.00    +0.000 Cl
ENDBRANCH  11  12
ENDBRANCH   6  11
TORSDOF 4
ENDMDL
MODEL 8
REMARK VINA RESULT:      -6.7      3.980      6.206
REMARK  Name = 
REMARK  5 active torsions:
REMARK  status: ('A' for Active; 'I' for Inactive)
REMARK    1  A    between atoms: C_1  and  C_2
REMARK    2  A    between atoms: C_2  and  C_3
REMARK    3  A    between atoms: C_3  and  N_4
REMARK    4  A    between atoms: N_9  and  C_10
REMARK    5  A    between atoms: C_10  and  C_11
REMARK                            x       y       z     vdW  Elec       q    Type
REMARK                         _______ _______ _______ _____ _____    ______ ____
ROOT
ATOM      1  N   UNL     1       3.079   3.159  20.279  0.00  0.00    +0.000 N 
ATOM      2  N   UNL     1       2.016   2.570  20.870  0.00  0.00    +0.000 NA
ATOM      3  N   UNL     1       1.199   3.555  21.194  0.00  0.00    +0.000 NA
ATOM      4  N   UNL     1       1.721   4.761  20.818  0.00  0.00    +0.000 NA
ATOM      5  C   UNL     1       2.888   4.526  20.252  0.00  0.00    +0.000 A 
ATOM      6  N   UNL     1       3.656   5.503  19.714  0.00  0.00    +0.000 N 
ATOM      7  H   UNL     1       3.268   6.439  19.814  0.00  0.00    +0.000 HD
ENDROOT
BRANCH   1   8
ATOM      8  C   UNL     1       4.083   2.299  19.706  0.00  0.00    +0.000 C 
BRANCH   8  10
ATOM      9  C   UNL     1       2.573   2.127  17.646  0.00  0.00    +0.000 C 
ATOM     10  C   UNL     1       3.590   1.434  18.543  0.00  0.00    +0.000 C 
ENDBRANCH   8  10
ENDBRANCH   1   8
BRANCH   6  11
ATOM     11  C   UNL     1       5.068   5.495  19.411  0.00  0.00    +0.000 C 
BRANCH  11  12
ATOM     12  C   UNL     1       5.414   5.150  17.975  0.00  0.00    +0.000 A 
ATOM     13  C   UNL     1       4.438   4.925  16.986  0.00  0.00    +0.000 A 
ATOM     14  C   UNL     1       4.803   4.575  15.679  0.00  0.00    +0.000 A 
ATOM     15  C   UNL     1       6.145   4.448  15.339  0.00  0.00    +0.000 A 
ATOM     16 CL   UNL     1       6.587   4.007  13.736  0.00  0.00    +0.000 Cl
ATOM     17  C   UNL     1       7.133   4.675  16.291  0.00  0.00    +0.000 A 
ATOM     18  C   UNL     1       6.768   5.024  17.594  0.00  0.00    +0.000 A 
ATOM     19 CL   UNL     1       8.051   5.290  18.725  0.00  0.00    +0.000 Cl
ENDBRANCH  11  12
ENDBRANCH   6  11
TORSDOF 4
ENDMDL
MODEL 9
REMARK VINA RESULT:      -6.7      1.849      2.784
REMARK  Name = 
REMARK  5 active torsions:
REMARK  status: ('A' for Active; 'I' for Inactive)
REMARK    1  A    between atoms: C_1  and  C_2
REMARK    2  A    between atoms: C_2  and  C_3
REMARK    3  A    between atoms: C_3  and  N_4
REMARK    4  A    between atoms: N_9  and  C_10
REMARK    5  A    between atoms: C_10  and  C_11
REMARK                            x       y       z     vdW  Elec       q    Type
REMARK                         _______ _______ _______ _____ _____    ______ ____
ROOT
ATOM      1  N   UNL     1       6.276   4.357  16.678  0.00  0.00    +0.000 N 
ATOM      2  N   UNL     1       7.538   4.692  16.328  0.00  0.00    +0.000 NA
ATOM      3  N   UNL     1       8.220   4.735  17.458  0.00  0.00    +0.000 NA
ATOM      4  N   UNL     1       7.417   4.429  18.520  0.00  0.00    +0.000 NA
ATOM      5  C   UNL     1       6.209   4.195  18.047  0.00  0.00    +0.000 A 
ATOM      6  N   UNL     1       5.172   3.811  18.830  0.00  0.00    +0.000 N 
ATOM      7  H   UNL     1       5.400   3.749  19.821  0.00  0.00    +0.000 HD
ENDROOT
BRANCH   1   8
ATOM      8  C   UNL     1       5.334   4.113  15.616  0.00  0.00    +0.000 C 
BRANCH   8  10
ATOM      9  C   UNL     1       5.775   3.574  13.153  0.00  0.00    +0.000 C 
ATOM     10  C   UNL     1       5.772   4.634  14.245  0.00  0.00    +0.000 C 
ENDBRANCH   8  10
ENDBRANCH   1   8
BRANCH   6  11
ATOM     11  C   UNL     1       3.754   3.880  18.568  0.00  0.00    +0.000 C 
BRANCH  11  12
ATOM     12  C   UNL     1       3.121   5.237  18.811  0.00  0.00    +0.000 A 
ATOM     13  C   UNL     1       3.203   6.296  17.887  0.00  0.00    +0.000 A 
ATOM     14  C   UNL     1       2.632   7.544  18.168  0.00  0.00    +0.000 A 
ATOM     15  C   UNL     1       1.969   7.753  19.372  0.00  0.00    +0.000 A 
ATOM     16 CL   UNL     1       1.279   9.292  19.716  0.00  0.00    +0.000 Cl
ATOM     17  C   UNL     1       1.861   6.724  20.300  0.00  0.00    +0.000 A 
ATOM     18  C   UNL     1       2.431   5.479  20.019  0.00  0.00    +0.000 A 
ATOM     19 CL   UNL     1       2.258   4.246  21.221  0.00  0.00    +0.000 Cl
ENDBRANCH  11  12
ENDBRANCH   6  11
TORSDOF 4
ENDMDL
