MODEL 1
REMARK VINA RESULT:      -8.1      0.000      0.000
REMARK  Name = 
REMARK  9 active torsions:
REMARK  status: ('A' for Active; 'I' for Inactive)
REMARK    1  A    between atoms: C_1  and  C_2
REMARK    2  A    between atoms: C_4  and  C_5
REMARK    3  A    between atoms: C_5  and  N_6
REMARK    4  A    between atoms: N_6  and  C_7
REMARK    5  A    between atoms: C_7  and  C_8
REMARK    6  A    between atoms: C_7  and  C_9
REMARK    7  A    between atoms: C_12  and  C_13
REMARK    8  A    between atoms: C_17  and  C_18
REMARK    9  A    between atoms: C_24  and  C_25
REMARK                            x       y       z     vdW  Elec       q    Type
REMARK                         _______ _______ _______ _____ _____    ______ ____
ROOT
ATOM      1  C   UNL     1       3.180   6.417  18.220  0.00  0.00    +0.000 A 
ATOM      2  C   UNL     1       2.740   7.664  17.768  0.00  0.00    +0.000 A 
ATOM      3  C   UNL     1       1.994   8.507  18.604  0.00  0.00    +0.000 A 
ATOM      4  C   UNL     1       1.647   8.138  19.917  0.00  0.00    +0.000 A 
ATOM      5  C   UNL     1       2.081   6.874  20.353  0.00  0.00    +0.000 A 
ATOM      6  C   UNL     1       2.839   6.033  19.524  0.00  0.00    +0.000 A 
ENDROOT
BRANCH   4   7
ATOM      7  C   UNL     1       0.882   9.057  20.797  0.00  0.00    +0.000 A 
ATOM      8  C   UNL     1       0.753   8.807  22.179  0.00  0.00    +0.000 A 
ATOM      9  C   UNL     1      -0.015   9.629  23.010  0.00  0.00    +0.000 A 
ATOM     10  C   UNL     1      -0.660  10.742  22.483  0.00  0.00    +0.000 A 
ATOM     11  C   UNL     1      -0.531  11.032  21.126  0.00  0.00    +0.000 A 
ATOM     12  C   UNL     1       0.229  10.197  20.293  0.00  0.00    +0.000 A 
BRANCH  11  13
ATOM     13  C   UNL     1      -1.185  12.182  20.579  0.00  0.00    +0.000 C 
ATOM     14  N   UNL     1      -1.710  13.121  20.139  0.00  0.00    +0.000 NA
ENDBRANCH  11  13
ENDBRANCH   4   7
BRANCH   1  15
ATOM     15  C   UNL     1       4.011   5.512  17.312  0.00  0.00    +0.000 C 
ATOM     16  C   UNL     1       3.490   4.073  17.401  0.00  0.00    +0.000 C 
BRANCH  15  17
ATOM     17  N   UNL     1       5.435   5.641  17.663  0.00  0.00    +0.000 NA
ATOM     18  H   UNL     1       5.783   6.496  17.224  0.00  0.00    +0.000 HD
BRANCH  17  19
ATOM     19  C   UNL     1       6.287   4.534  17.186  0.00  0.00    +0.000 C 
BRANCH  19  23
ATOM     20  C   UNL     1       8.182   5.607  12.713  0.00  0.00    +0.000 C 
ATOM     21  C   UNL     1       7.369   4.986  13.778  0.00  0.00    +0.000 A 
ATOM     22  N   UNL     1       7.509   5.339  15.101  0.00  0.00    +0.000 NA
ATOM     23  C   UNL     1       6.625   4.584  15.728  0.00  0.00    +0.000 A 
ATOM     24  O   UNL     1       5.902   3.759  14.905  0.00  0.00    +0.000 OA
ATOM     25  C   UNL     1       6.388   4.027  13.657  0.00  0.00    +0.000 A 
ATOM     26  C   UNL     1       5.799   3.301  12.519  0.00  0.00    +0.000 C 
ENDBRANCH  19  23
ENDBRANCH  17  19
ENDBRANCH  15  17
ENDBRANCH   1  15
TORSDOF 6
ENDMDL
MODEL 2
REMARK VINA RESULT:      -8.1      3.167      9.374
REMARK  Name = 
REMARK  9 active torsions:
REMARK  status: ('A' for Active; 'I' for Inactive)
REMARK    1  A    between atoms: C_1  and  C_2
REMARK    2  A    between atoms: C_4  and  C_5
REMARK    3  A    between atoms: C_5  and  N_6
REMARK    4  A    between atoms: N_6  and  C_7
REMARK    5  A    between atoms: C_7  and  C_8
REMARK    6  A    between atoms: C_7  and  C_9
REMARK    7  A    between atoms: C_12  and  C_13
REMARK    8  A    between atoms: C_17  and  C_18
REMARK    9  A    between atoms: C_24  and  C_25
REMARK                            x       y       z     vdW  Elec       q    Type
REMARK                         _______ _______ _______ _____ _____    ______ ____
ROOT
ATOM      1  C   UNL     1       1.282   9.389  19.823  0.00  0.00    +0.000 A 
ATOM      2  C   UNL     1       1.576   8.205  20.506  0.00  0.00    +0.000 A 
ATOM      3  C   UNL     1       2.195   7.133  19.848  0.00  0.00    +0.000 A 
ATOM      4  C   UNL     1       2.535   7.192  18.483  0.00  0.00    +0.000 A 
ATOM      5  C   UNL     1       2.218   8.381  17.805  0.00  0.00    +0.000 A 
ATOM      6  C   UNL     1       1.611   9.462  18.463  0.00  0.00    +0.000 A 
ENDROOT
BRANCH   4   7
ATOM      7  C   UNL     1       3.217   6.057  17.811  0.00  0.00    +0.000 A 
ATOM      8  C   UNL     1       2.665   4.759  17.827  0.00  0.00    +0.000 A 
ATOM      9  C   UNL     1       3.325   3.668  17.252  0.00  0.00    +0.000 A 
ATOM     10  C   UNL     1       4.550   3.851  16.622  0.00  0.00    +0.000 A 
ATOM     11  C   UNL     1       5.111   5.126  16.565  0.00  0.00    +0.000 A 
ATOM     12  C   UNL     1       4.452   6.215  17.156  0.00  0.00    +0.000 A 
BRANCH  11  13
ATOM     13  C   UNL     1       6.368   5.322  15.909  0.00  0.00    +0.000 C 
ATOM     14  N   UNL     1       7.385   5.476  15.370  0.00  0.00    +0.000 NA
ENDBRANCH  11  13
ENDBRANCH   4   7
BRANCH   1  15
ATOM     15  C   UNL     1       0.628  10.561  20.552  0.00  0.00    +0.000 C 
ATOM     16  C   UNL     1      -0.437  10.036  21.523  0.00  0.00    +0.000 C 
BRANCH  15  17
ATOM     17  N   UNL     1       0.099  11.518  19.566  0.00  0.00    +0.000 NA
ATOM     18  H   UNL     1       0.740  12.313  19.535  0.00  0.00    +0.000 HD
BRANCH  17  19
ATOM     19  C   UNL     1      -1.238  12.054  19.887  0.00  0.00    +0.000 C 
BRANCH  19  23
ATOM     20  C   UNL     1      -5.486  11.474  17.363  0.00  0.00    +0.000 C 
ATOM     21  C   UNL     1      -4.047  11.523  17.692  0.00  0.00    +0.000 A 
ATOM     22  N   UNL     1      -3.597  11.888  18.941  0.00  0.00    +0.000 NA
ATOM     23  C   UNL     1      -2.282  11.805  18.843  0.00  0.00    +0.000 A 
ATOM     24  O   UNL     1      -1.832  11.401  17.613  0.00  0.00    +0.000 OA
ATOM     25  C   UNL     1      -2.973  11.222  16.884  0.00  0.00    +0.000 A 
ATOM     26  C   UNL     1      -2.836  10.766  15.491  0.00  0.00    +0.000 C 
ENDBRANCH  19  23
ENDBRANCH  17  19
ENDBRANCH  15  17
ENDBRANCH   1  15
TORSDOF 6
ENDMDL
MODEL 3
REMARK VINA RESULT:      -8.1      3.424     10.424
REMARK  Name = 
REMARK  9 active torsions:
REMARK  status: ('A' for Active; 'I' for Inactive)
REMARK    1  A    between atoms: C_1  and  C_2
REMARK    2  A    between atoms: C_4  and  C_5
REMARK    3  A    between atoms: C_5  and  N_6
REMARK    4  A    between atoms: N_6  and  C_7
REMARK    5  A    between atoms: C_7  and  C_8
REMARK    6  A    between atoms: C_7  and  C_9
REMARK    7  A    between atoms: C_12  and  C_13
REMARK    8  A    between atoms: C_17  and  C_18
REMARK    9  A    between atoms: C_24  and  C_25
REMARK                            x       y       z     vdW  Elec       q    Type
REMARK                         _______ _______ _______ _____ _____    ______ ____
ROOT
ATOM      1  C   UNL     1       1.093   9.327  19.857  0.00  0.00    +0.000 A 
ATOM      2  C   UNL     1       1.429   9.408  18.502  0.00  0.00    +0.000 A 
ATOM      3  C   UNL     1       2.112   8.360  17.870  0.00  0.00    +0.000 A 
ATOM      4  C   UNL     1       2.497   7.196  18.561  0.00  0.00    +0.000 A 
ATOM      5  C   UNL     1       2.169   7.135  19.926  0.00  0.00    +0.000 A 
ATOM      6  C   UNL     1       1.473   8.176  20.560  0.00  0.00    +0.000 A 
ENDROOT
BRANCH   4   7
ATOM      7  C   UNL     1       3.194   6.083  17.866  0.00  0.00    +0.000 A 
ATOM      8  C   UNL     1       2.654   4.781  17.849  0.00  0.00    +0.000 A 
ATOM      9  C   UNL     1       3.328   3.710  17.253  0.00  0.00    +0.000 A 
ATOM     10  C   UNL     1       4.555   3.918  16.634  0.00  0.00    +0.000 A 
ATOM     11  C   UNL     1       5.103   5.200  16.611  0.00  0.00    +0.000 A 
ATOM     12  C   UNL     1       4.431   6.268  17.222  0.00  0.00    +0.000 A 
BRANCH  11  13
ATOM     13  C   UNL     1       6.362   5.423  15.966  0.00  0.00    +0.000 C 
ATOM     14  N   UNL     1       7.380   5.602  15.436  0.00  0.00    +0.000 NA
ENDBRANCH  11  13
ENDBRANCH   4   7
BRANCH   1  15
ATOM     15  C   UNL     1       0.330  10.463  20.534  0.00  0.00    +0.000 C 
ATOM     16  C   UNL     1       0.710  11.800  19.886  0.00  0.00    +0.000 C 
BRANCH  15  17
ATOM     17  N   UNL     1       0.580  10.425  21.985  0.00  0.00    +0.000 NA
ATOM     18  H   UNL     1       1.153   9.601  22.176  0.00  0.00    +0.000 HD
BRANCH  17  19
ATOM     19  C   UNL     1      -0.635  10.308  22.814  0.00  0.00    +0.000 C 
BRANCH  19  23
ATOM     20  C   UNL     1      -3.973  13.887  23.707  0.00  0.00    +0.000 C 
ATOM     21  C   UNL     1      -2.691  13.196  23.464  0.00  0.00    +0.000 A 
ATOM     22  N   UNL     1      -2.620  11.833  23.284  0.00  0.00    +0.000 NA
ATOM     23  C   UNL     1      -1.334  11.603  23.093  0.00  0.00    +0.000 A 
ATOM     24  O   UNL     1      -0.548  12.726  23.126  0.00  0.00    +0.000 OA
ATOM     25  C   UNL     1      -1.430  13.741  23.364  0.00  0.00    +0.000 A 
ATOM     26  C   UNL     1      -0.896  15.111  23.446  0.00  0.00    +0.000 C 
ENDBRANCH  19  23
ENDBRANCH  17  19
ENDBRANCH  15  17
ENDBRANCH   1  15
TORSDOF 6
ENDMDL
MODEL 4
REMARK VINA RESULT:      -8.1      3.538     10.487
REMARK  Name = 
REMARK  9 active torsions:
REMARK  status: ('A' for Active; 'I' for Inactive)
REMARK    1  A    between atoms: C_1  and  C_2
REMARK    2  A    between atoms: C_4  and  C_5
REMARK    3  A    between atoms: C_5  and  N_6
REMARK    4  A    between atoms: N_6  and  C_7
REMARK    5  A    between atoms: C_7  and  C_8
REMARK    6  A    between atoms: C_7  and  C_9
REMARK    7  A    between atoms: C_12  and  C_13
REMARK    8  A    between atoms: C_17  and  C_18
REMARK    9  A    between atoms: C_24  and  C_25
REMARK                            x       y       z     vdW  Elec       q    Type
REMARK                         _______ _______ _______ _____ _____    ______ ____
ROOT
ATOM      1  C   UNL     1       1.103   9.518  19.846  0.00  0.00    +0.000 A 
ATOM      2  C   UNL     1       1.439   8.364  20.559  0.00  0.00    +0.000 A 
ATOM      3  C   UNL     1       2.086   7.294  19.926  0.00  0.00    +0.000 A 
ATOM      4  C   UNL     1       2.414   7.325  18.558  0.00  0.00    +0.000 A 
ATOM      5  C   UNL     1       2.055   8.484  17.849  0.00  0.00    +0.000 A 
ATOM      6  C   UNL     1       1.419   9.563  18.481  0.00  0.00    +0.000 A 
ENDROOT
BRANCH   4   7
ATOM      7  C   UNL     1       3.127   6.193  17.911  0.00  0.00    +0.000 A 
ATOM      8  C   UNL     1       2.585   4.891  17.913  0.00  0.00    +0.000 A 
ATOM      9  C   UNL     1       3.271   3.804  17.364  0.00  0.00    +0.000 A 
ATOM     10  C   UNL     1       4.516   3.994  16.774  0.00  0.00    +0.000 A 
ATOM     11  C   UNL     1       5.067   5.273  16.732  0.00  0.00    +0.000 A 
ATOM     12  C   UNL     1       4.381   6.359  17.297  0.00  0.00    +0.000 A 
BRANCH  11  13
ATOM     13  C   UNL     1       6.344   5.477  16.117  0.00  0.00    +0.000 C 
ATOM     14  N   UNL     1       7.377   5.639  15.609  0.00  0.00    +0.000 NA
ENDBRANCH  11  13
ENDBRANCH   4   7
BRANCH   1  15
ATOM     15  C   UNL     1       0.418  10.690  20.547  0.00  0.00    +0.000 C 
ATOM     16  C   UNL     1       0.941  12.012  19.972  0.00  0.00    +0.000 C 
BRANCH  15  17
ATOM     17  N   UNL     1       0.608  10.570  22.002  0.00  0.00    +0.000 NA
ATOM     18  H   UNL     1       1.213   9.763  22.167  0.00  0.00    +0.000 HD
BRANCH  17  19
ATOM     19  C   UNL     1      -0.634  10.341  22.766  0.00  0.00    +0.000 C 
BRANCH  19  23
ATOM     20  C   UNL     1      -2.054  15.004  23.764  0.00  0.00    +0.000 C 
ATOM     21  C   UNL     1      -2.089  13.541  23.564  0.00  0.00    +0.000 A 
ATOM     22  N   UNL     1      -0.975  12.833  23.173  0.00  0.00    +0.000 NA
ATOM     23  C   UNL     1      -1.398  11.583  23.109  0.00  0.00    +0.000 A 
ATOM     24  O   UNL     1      -2.718  11.416  23.440  0.00  0.00    +0.000 OA
ATOM     25  C   UNL     1      -3.150  12.678  23.730  0.00  0.00    +0.000 A 
ATOM     26  C   UNL     1      -4.552  12.848  24.145  0.00  0.00    +0.000 C 
ENDBRANCH  19  23
ENDBRANCH  17  19
ENDBRANCH  15  17
ENDBRANCH   1  15
TORSDOF 6
ENDMDL
MODEL 5
REMARK VINA RESULT:      -8.0      3.642      9.305
REMARK  Name = 
REMARK  9 active torsions:
REMARK  status: ('A' for Active; 'I' for Inactive)
REMARK    1  A    between atoms: C_1  and  C_2
REMARK    2  A    between atoms: C_4  and  C_5
REMARK    3  A    between atoms: C_5  and  N_6
REMARK    4  A    between atoms: N_6  and  C_7
REMARK    5  A    between atoms: C_7  and  C_8
REMARK    6  A    between atoms: C_7  and  C_9
REMARK    7  A    between atoms: C_12  and  C_13
REMARK    8  A    between atoms: C_17  and  C_18
REMARK    9  A    between atoms: C_24  and  C_25
REMARK                            x       y       z     vdW  Elec       q    Type
REMARK                         _______ _______ _______ _____ _____    ______ ____
ROOT
ATOM      1  C   UNL     1       1.340   9.568  19.672  0.00  0.00    +0.000 A 
ATOM      2  C   UNL     1       1.524   8.433  20.466  0.00  0.00    +0.000 A 
ATOM      3  C   UNL     1       2.066   7.259  19.924  0.00  0.00    +0.000 A 
ATOM      4  C   UNL     1       2.434   7.164  18.569  0.00  0.00    +0.000 A 
ATOM      5  C   UNL     1       2.227   8.307  17.778  0.00  0.00    +0.000 A 
ATOM      6  C   UNL     1       1.698   9.488  18.319  0.00  0.00    +0.000 A 
ENDROOT
BRANCH   4   7
ATOM      7  C   UNL     1       3.035   5.922  18.020  0.00  0.00    +0.000 A 
ATOM      8  C   UNL     1       2.259   4.761  17.823  0.00  0.00    +0.000 A 
ATOM      9  C   UNL     1       2.822   3.565  17.365  0.00  0.00    +0.000 A 
ATOM     10  C   UNL     1       4.178   3.504  17.068  0.00  0.00    +0.000 A 
ATOM     11  C   UNL     1       4.968   4.642  17.227  0.00  0.00    +0.000 A 
ATOM     12  C   UNL     1       4.402   5.836  17.700  0.00  0.00    +0.000 A 
BRANCH  11  13
ATOM     13  C   UNL     1       6.364   4.588  16.914  0.00  0.00    +0.000 C 
ATOM     14  N   UNL     1       7.497   4.535  16.661  0.00  0.00    +0.000 NA
ENDBRANCH  11  13
ENDBRANCH   4   7
BRANCH   1  15
ATOM     15  C   UNL     1       0.770  10.851  20.274  0.00  0.00    +0.000 C 
ATOM     16  C   UNL     1       0.146  10.545  21.642  0.00  0.00    +0.000 C 
BRANCH  15  17
ATOM     17  N   UNL     1      -0.175  11.461  19.324  0.00  0.00    +0.000 NA
ATOM     18  H   UNL     1      -0.109  12.475  19.436  0.00  0.00    +0.000 HD
BRANCH  17  19
ATOM     19  C   UNL     1      -1.587  11.093  19.541  0.00  0.00    +0.000 C 
BRANCH  19  23
ATOM     20  C   UNL     1      -3.369  10.474  14.937  0.00  0.00    +0.000 C 
ATOM     21  C   UNL     1      -3.264  10.860  16.359  0.00  0.00    +0.000 A 
ATOM     22  N   UNL     1      -2.148  10.570  17.112  0.00  0.00    +0.000 NA
ATOM     23  C   UNL     1      -2.428  11.071  18.302  0.00  0.00    +0.000 A 
ATOM     24  O   UNL     1      -3.653  11.680  18.384  0.00  0.00    +0.000 OA
ATOM     25  C   UNL     1      -4.179  11.539  17.132  0.00  0.00    +0.000 A 
ATOM     26  C   UNL     1      -5.512  12.110  16.877  0.00  0.00    +0.000 C 
ENDBRANCH  19  23
ENDBRANCH  17  19
ENDBRANCH  15  17
ENDBRANCH   1  15
TORSDOF 6
ENDMDL
MODEL 6
REMARK VINA RESULT:      -8.0      3.212      9.364
REMARK  Name = 
REMARK  9 active torsions:
REMARK  status: ('A' for Active; 'I' for Inactive)
REMARK    1  A    between atoms: C_1  and  C_2
REMARK    2  A    between atoms: C_4  and  C_5
REMARK    3  A    between atoms: C_5  and  N_6
REMARK    4  A    between atoms: N_6  and  C_7
REMARK    5  A    between atoms: C_7  and  C_8
REMARK    6  A    between atoms: C_7  and  C_9
REMARK    7  A    between atoms: C_12  and  C_13
REMARK    8  A    between atoms: C_17  and  C_18
REMARK    9  A    between atoms: C_24  and  C_25
REMARK                            x       y       z     vdW  Elec       q    Type
REMARK                         _______ _______ _______ _____ _____    ______ ____
ROOT
ATOM      1  C   UNL     1       1.276   9.377  19.803  0.00  0.00    +0.000 A 
ATOM      2  C   UNL     1       1.618   9.358  18.448  0.00  0.00    +0.000 A 
ATOM      3  C   UNL     1       2.204   8.221  17.873  0.00  0.00    +0.000 A 
ATOM      4  C   UNL     1       2.483   7.065  18.625  0.00  0.00    +0.000 A 
ATOM      5  C   UNL     1       2.150   7.104  19.990  0.00  0.00    +0.000 A 
ATOM      6  C   UNL     1       1.551   8.235  20.567  0.00  0.00    +0.000 A 
ENDROOT
BRANCH   4   7
ATOM      7  C   UNL     1       3.077   5.859  17.992  0.00  0.00    +0.000 A 
ATOM      8  C   UNL     1       2.337   4.667  17.854  0.00  0.00    +0.000 A 
ATOM      9  C   UNL     1       2.901   3.506  17.317  0.00  0.00    +0.000 A 
ATOM     10  C   UNL     1       4.221   3.512  16.879  0.00  0.00    +0.000 A 
ATOM     11  C   UNL     1       4.972   4.683  16.978  0.00  0.00    +0.000 A 
ATOM     12  C   UNL     1       4.406   5.842  17.531  0.00  0.00    +0.000 A 
BRANCH  11  13
ATOM     13  C   UNL     1       6.328   4.698  16.521  0.00  0.00    +0.000 C 
ATOM     14  N   UNL     1       7.432   4.708  16.158  0.00  0.00    +0.000 NA
ENDBRANCH  11  13
ENDBRANCH   4   7
BRANCH   1  15
ATOM     15  C   UNL     1       0.618  10.611  20.418  0.00  0.00    +0.000 C 
ATOM     16  C   UNL     1      -0.451  10.175  21.429  0.00  0.00    +0.000 C 
BRANCH  15  17
ATOM     17  N   UNL     1       0.091  11.471  19.346  0.00  0.00    +0.000 NA
ATOM     18  H   UNL     1       0.779  12.209  19.179  0.00  0.00    +0.000 HD
BRANCH  17  19
ATOM     19  C   UNL     1      -1.187  12.136  19.665  0.00  0.00    +0.000 C 
BRANCH  19  23
ATOM     20  C   UNL     1      -5.607  11.372  17.512  0.00  0.00    +0.000 C 
ATOM     21  C   UNL     1      -4.148  11.478  17.718  0.00  0.00    +0.000 A 
ATOM     22  N   UNL     1      -3.609  11.873  18.922  0.00  0.00    +0.000 NA
ATOM     23  C   UNL     1      -2.305  11.838  18.714  0.00  0.00    +0.000 A 
ATOM     24  O   UNL     1      -1.945  11.438  17.453  0.00  0.00    +0.000 OA
ATOM     25  C   UNL     1      -3.135  11.210  16.824  0.00  0.00    +0.000 A 
ATOM     26  C   UNL     1      -3.097  10.745  15.428  0.00  0.00    +0.000 C 
ENDBRANCH  19  23
ENDBRANCH  17  19
ENDBRANCH  15  17
ENDBRANCH   1  15
TORSDOF 6
ENDMDL
MODEL 7
REMARK VINA RESULT:      -8.0      3.570      9.376
REMARK  Name = 
REMARK  9 active torsions:
REMARK  status: ('A' for Active; 'I' for Inactive)
REMARK    1  A    between atoms: C_1  and  C_2
REMARK    2  A    between atoms: C_4  and  C_5
REMARK    3  A    between atoms: C_5  and  N_6
REMARK    4  A    between atoms: N_6  and  C_7
REMARK    5  A    between atoms: C_7  and  C_8
REMARK    6  A    between atoms: C_7  and  C_9
REMARK    7  A    between atoms: C_12  and  C_13
REMARK    8  A    between atoms: C_17  and  C_18
REMARK    9  A    between atoms: C_24  and  C_25
REMARK                            x       y       z     vdW  Elec       q    Type
REMARK                         _______ _______ _______ _____ _____    ______ ____
ROOT
ATOM      1  C   UNL     1       1.194   9.696  19.693  0.00  0.00    +0.000 A 
ATOM      2  C   UNL     1       1.567   9.705  18.346  0.00  0.00    +0.000 A 
ATOM      3  C   UNL     1       2.195   8.593  17.769  0.00  0.00    +0.000 A 
ATOM      4  C   UNL     1       2.486   7.433  18.510  0.00  0.00    +0.000 A 
ATOM      5  C   UNL     1       2.121   7.443  19.867  0.00  0.00    +0.000 A 
ATOM      6  C   UNL     1       1.480   8.549  20.446  0.00  0.00    +0.000 A 
ENDROOT
BRANCH   4   7
ATOM      7  C   UNL     1       3.124   6.252  17.873  0.00  0.00    +0.000 A 
ATOM      8  C   UNL     1       2.515   4.981  17.913  0.00  0.00    +0.000 A 
ATOM      9  C   UNL     1       3.132   3.849  17.373  0.00  0.00    +0.000 A 
ATOM     10  C   UNL     1       4.372   3.962  16.754  0.00  0.00    +0.000 A 
ATOM     11  C   UNL     1       4.989   5.209  16.674  0.00  0.00    +0.000 A 
ATOM     12  C   UNL     1       4.372   6.340  17.230  0.00  0.00    +0.000 A 
BRANCH  11  13
ATOM     13  C   UNL     1       6.261   5.333  16.030  0.00  0.00    +0.000 C 
ATOM     14  N   UNL     1       7.290   5.435  15.498  0.00  0.00    +0.000 NA
ENDBRANCH  11  13
ENDBRANCH   4   7
BRANCH   1  15
ATOM     15  C   UNL     1       0.490  10.903  20.311  0.00  0.00    +0.000 C 
ATOM     16  C   UNL     1      -0.594  10.425  21.285  0.00  0.00    +0.000 C 
BRANCH  15  17
ATOM     17  N   UNL     1      -0.028  11.770  19.240  0.00  0.00    +0.000 NA
ATOM     18  H   UNL     1       0.574  12.595  19.195  0.00  0.00    +0.000 HD
BRANCH  17  19
ATOM     19  C   UNL     1      -1.407  12.251  19.452  0.00  0.00    +0.000 C 
BRANCH  19  23
ATOM     20  C   UNL     1      -3.682  10.580  15.355  0.00  0.00    +0.000 C 
ATOM     21  C   UNL     1      -3.454  11.091  16.722  0.00  0.00    +0.000 A 
ATOM     22  N   UNL     1      -2.190  11.346  17.204  0.00  0.00    +0.000 NA
ATOM     23  C   UNL     1      -2.399  11.784  18.432  0.00  0.00    +0.000 A 
ATOM     24  O   UNL     1      -3.720  11.844  18.793  0.00  0.00    +0.000 OA
ATOM     25  C   UNL     1      -4.387  11.398  17.688  0.00  0.00    +0.000 A 
ATOM     26  C   UNL     1      -5.858  11.351  17.744  0.00  0.00    +0.000 C 
ENDBRANCH  19  23
ENDBRANCH  17  19
ENDBRANCH  15  17
ENDBRANCH   1  15
TORSDOF 6
ENDMDL
MODEL 8
REMARK VINA RESULT:      -8.0      1.186      1.999
REMARK  Name = 
REMARK  9 active torsions:
REMARK  status: ('A' for Active; 'I' for Inactive)
REMARK    1  A    between atoms: C_1  and  C_2
REMARK    2  A    between atoms: C_4  and  C_5
REMARK    3  A    between atoms: C_5  and  N_6
REMARK    4  A    between atoms: N_6  and  C_7
REMARK    5  A    between atoms: C_7  and  C_8
REMARK    6  A    between atoms: C_7  and  C_9
REMARK    7  A    between atoms: C_12  and  C_13
REMARK    8  A    between atoms: C_17  and  C_18
REMARK    9  A    between atoms: C_24  and  C_25
REMARK                            x       y       z     vdW  Elec       q    Type
REMARK                         _______ _______ _______ _____ _____    ______ ____
ROOT
ATOM      1  C   UNL     1       3.613   6.189  18.411  0.00  0.00    +0.000 A 
ATOM      2  C   UNL     1       2.906   6.223  19.616  0.00  0.00    +0.000 A 
ATOM      3  C   UNL     1       2.053   7.294  19.917  0.00  0.00    +0.000 A 
ATOM      4  C   UNL     1       1.879   8.378  19.037  0.00  0.00    +0.000 A 
ATOM      5  C   UNL     1       2.610   8.341  17.837  0.00  0.00    +0.000 A 
ATOM      6  C   UNL     1       3.454   7.264  17.526  0.00  0.00    +0.000 A 
ENDROOT
BRANCH   4   7
ATOM      7  C   UNL     1       0.948   9.490  19.360  0.00  0.00    +0.000 A 
ATOM      8  C   UNL     1       0.514  10.392  18.367  0.00  0.00    +0.000 A 
ATOM      9  C   UNL     1      -0.312  11.480  18.667  0.00  0.00    +0.000 A 
ATOM     10  C   UNL     1      -0.748  11.683  19.971  0.00  0.00    +0.000 A 
ATOM     11  C   UNL     1      -0.358  10.794  20.972  0.00  0.00    +0.000 A 
ATOM     12  C   UNL     1       0.483   9.712  20.669  0.00  0.00    +0.000 A 
BRANCH  11  13
ATOM     13  C   UNL     1      -0.811  10.992  22.315  0.00  0.00    +0.000 C 
ATOM     14  N   UNL     1      -1.185  11.147  23.405  0.00  0.00    +0.000 NA
ENDBRANCH  11  13
ENDBRANCH   4   7
BRANCH   1  15
ATOM     15  C   UNL     1       4.523   5.008  18.080  0.00  0.00    +0.000 C 
ATOM     16  C   UNL     1       4.552   4.031  19.262  0.00  0.00    +0.000 C 
BRANCH  15  17
ATOM     17  N   UNL     1       5.856   5.507  17.701  0.00  0.00    +0.000 NA
ATOM     18  H   UNL     1       5.722   6.229  16.990  0.00  0.00    +0.000 HD
BRANCH  17  19
ATOM     19  C   UNL     1       6.750   4.487  17.120  0.00  0.00    +0.000 C 
BRANCH  19  23
ATOM     20  C   UNL     1       8.024   5.594  12.440  0.00  0.00    +0.000 C 
ATOM     21  C   UNL     1       7.362   4.965  13.600  0.00  0.00    +0.000 A 
ATOM     22  N   UNL     1       7.680   5.307  14.895  0.00  0.00    +0.000 NA
ATOM     23  C   UNL     1       6.888   4.548  15.630  0.00  0.00    +0.000 A 
ATOM     24  O   UNL     1       6.059   3.731  14.906  0.00  0.00    +0.000 OA
ATOM     25  C   UNL     1       6.372   4.008  13.606  0.00  0.00    +0.000 A 
ATOM     26  C   UNL     1       5.633   3.291  12.552  0.00  0.00    +0.000 C 
ENDBRANCH  19  23
ENDBRANCH  17  19
ENDBRANCH  15  17
ENDBRANCH   1  15
TORSDOF 6
ENDMDL
MODEL 9
REMARK VINA RESULT:      -8.0      1.173      1.951
REMARK  Name = 
REMARK  9 active torsions:
REMARK  status: ('A' for Active; 'I' for Inactive)
REMARK    1  A    between atoms: C_1  and  C_2
REMARK    2  A    between atoms: C_4  and  C_5
REMARK    3  A    between atoms: C_5  and  N_6
REMARK    4  A    between atoms: N_6  and  C_7
REMARK    5  A    between atoms: C_7  and  C_8
REMARK    6  A    between atoms: C_7  and  C_9
REMARK    7  A    between atoms: C_12  and  C_13
REMARK    8  A    between atoms: C_17  and  C_18
REMARK    9  A    between atoms: C_24  and  C_25
REMARK                            x       y       z     vdW  Elec       q    Type
REMARK                         _______ _______ _______ _____ _____    ______ ____
ROOT
ATOM      1  C   UNL     1       3.501   4.965  18.306  0.00  0.00    +0.000 A 
ATOM      2  C   UNL     1       2.932   4.851  19.578  0.00  0.00    +0.000 A 
ATOM      3  C   UNL     1       2.296   5.945  20.180  0.00  0.00    +0.000 A 
ATOM      4  C   UNL     1       2.211   7.199  19.547  0.00  0.00    +0.000 A 
ATOM      5  C   UNL     1       2.801   7.306  18.277  0.00  0.00    +0.000 A 
ATOM      6  C   UNL     1       3.427   6.209  17.664  0.00  0.00    +0.000 A 
ENDROOT
BRANCH   4   7
ATOM      7  C   UNL     1       1.507   8.339  20.189  0.00  0.00    +0.000 A 
ATOM      8  C   UNL     1       1.260   8.357  21.577  0.00  0.00    +0.000 A 
ATOM      9  C   UNL     1       0.544   9.392  22.187  0.00  0.00    +0.000 A 
ATOM     10  C   UNL     1       0.074  10.455  21.424  0.00  0.00    +0.000 A 
ATOM     11  C   UNL     1       0.324  10.480  20.053  0.00  0.00    +0.000 A 
ATOM     12  C   UNL     1       1.030   9.432  19.443  0.00  0.00    +0.000 A 
BRANCH  11  13
ATOM     13  C   UNL     1      -0.150  11.576  19.264  0.00  0.00    +0.000 C 
ATOM     14  N   UNL     1      -0.542  12.462  18.621  0.00  0.00    +0.000 NA
ENDBRANCH  11  13
ENDBRANCH   4   7
BRANCH   1  15
ATOM     15  C   UNL     1       4.172   3.763  17.646  0.00  0.00    +0.000 C 
ATOM     16  C   UNL     1       3.451   2.476  18.064  0.00  0.00    +0.000 C 
BRANCH  15  17
ATOM     17  N   UNL     1       5.607   3.761  17.975  0.00  0.00    +0.000 NA
ATOM     18  H   UNL     1       5.693   3.942  18.978  0.00  0.00    +0.000 HD
BRANCH  17  19
ATOM     19  C   UNL     1       6.397   4.797  17.281  0.00  0.00    +0.000 C 
BRANCH  19  23
ATOM     20  C   UNL     1       5.879   3.329  12.555  0.00  0.00    +0.000 C 
ATOM     21  C   UNL     1       6.356   4.044  13.756  0.00  0.00    +0.000 A 
ATOM     22  N   UNL     1       5.825   3.808  15.004  0.00  0.00    +0.000 NA
ATOM     23  C   UNL     1       6.503   4.618  15.798  0.00  0.00    +0.000 A 
ATOM     24  O   UNL     1       7.454   5.369  15.158  0.00  0.00    +0.000 OA
ATOM     25  C   UNL     1       7.352   4.992  13.850  0.00  0.00    +0.000 A 
ATOM     26  C   UNL     1       8.266   5.616  12.879  0.00  0.00    +0.000 C 
ENDBRANCH  19  23
ENDBRANCH  17  19
ENDBRANCH  15  17
ENDBRANCH   1  15
TORSDOF 6
ENDMDL
