MODEL 1
REMARK VINA RESULT:      -7.0      0.000      0.000
REMARK  Name = 
REMARK  5 active torsions:
REMARK  status: ('A' for Active; 'I' for Inactive)
REMARK    1  A    between atoms: C_1  and  C_2
REMARK    2  A    between atoms: N_6  and  C_7
REMARK    3  A    between atoms: C_12  and  C_14
REMARK    4  A    between atoms: C_14  and  N_15
REMARK    5  A    between atoms: N_20  and  C_21
REMARK                            x       y       z     vdW  Elec       q    Type
REMARK                         _______ _______ _______ _____ _____    ______ ____
ROOT
ATOM      1  C   UNL     1       3.206   5.094  18.872  0.00  0.00    +0.000 C 
ATOM      2  C   UNL     1       2.503   6.397  18.472  0.00  0.00    +0.000 C 
ATOM      3  C   UNL     1       3.330   7.060  17.349  0.00  0.00    +0.000 C 
ATOM      4  C   UNL     1       4.832   7.190  17.682  0.00  0.00    +0.000 C 
ATOM      5  N   UNL     1       5.378   5.969  18.292  0.00  0.00    +0.000 N 
ATOM      6  C   UNL     1       6.376   5.142  17.793  0.00  0.00    +0.000 C 
ATOM      7  O   UNL     1       6.616   4.048  18.317  0.00  0.00    +0.000 OA
ATOM      8  C   UNL     1       4.591   5.458  19.411  0.00  0.00    +0.000 C 
ENDROOT
BRANCH   1  14
ATOM      9  C   UNL     1       2.754   2.166  18.231  0.00  0.00    +0.000 C 
ATOM     10  C   UNL     1       2.379   2.825  19.513  0.00  0.00    +0.000 A 
ATOM     11  N   UNL     1       1.918   2.211  20.585  0.00  0.00    +0.000 NA
ATOM     12  C   UNL     1       1.749   3.186  21.529  0.00  0.00    +0.000 A 
ATOM     13  C   UNL     1       2.085   4.422  21.028  0.00  0.00    +0.000 A 
ATOM     14  N   UNL     1       2.517   4.180  19.753  0.00  0.00    +0.000 N 
ENDBRANCH   1  14
BRANCH   6  15
ATOM     15  C   UNL     1       7.147   5.527  16.533  0.00  0.00    +0.000 C 
BRANCH  15  16
ATOM     16  N   UNL     1       6.575   4.933  15.316  0.00  0.00    +0.000 N 
ATOM     17  C   UNL     1       5.405   4.207  15.402  0.00  0.00    +0.000 A 
ATOM     18  C   UNL     1       4.863   3.611  14.340  0.00  0.00    +0.000 A 
ATOM     19  C   UNL     1       5.541   3.707  13.038  0.00  0.00    +0.000 A 
ATOM     20  O   UNL     1       5.027   3.162  12.062  0.00  0.00    +0.000 OA
ATOM     21  N   UNL     1       6.731   4.413  13.021  0.00  0.00    +0.000 N 
ATOM     22  C   UNL     1       7.473   4.498  11.780  0.00  0.00    +0.000 C 
ATOM     23  C   UNL     1       7.274   5.068  14.122  0.00  0.00    +0.000 A 
ATOM     24  O   UNL     1       8.316   5.721  14.042  0.00  0.00    +0.000 OA
ENDBRANCH  15  16
ENDBRANCH   6  15
TORSDOF 3
ENDMDL
MODEL 2
REMARK VINA RESULT:      -6.6      5.050      7.889
REMARK  Name = 
REMARK  5 active torsions:
REMARK  status: ('A' for Active; 'I' for Inactive)
REMARK    1  A    between atoms: C_1  and  C_2
REMARK    2  A    between atoms: N_6  and  C_7
REMARK    3  A    between atoms: C_12  and  C_14
REMARK    4  A    between atoms: C_14  and  N_15
REMARK    5  A    between atoms: N_20  and  C_21
REMARK                            x       y       z     vdW  Elec       q    Type
REMARK                         _______ _______ _______ _____ _____    ______ ____
ROOT
ATOM      1  C   UNL     1       0.847  10.870  20.278  0.00  0.00    +0.000 C 
ATOM      2  C   UNL     1       0.411  10.605  21.725  0.00  0.00    +0.000 C 
ATOM      3  C   UNL     1       1.100   9.308  22.201  0.00  0.00    +0.000 C 
ATOM      4  C   UNL     1       0.928   8.122  21.226  0.00  0.00    +0.000 C 
ATOM      5  N   UNL     1       1.126   8.518  19.825  0.00  0.00    +0.000 N 
ATOM      6  C   UNL     1       2.100   8.066  18.944  0.00  0.00    +0.000 C 
ATOM      7  O   UNL     1       2.267   8.613  17.847  0.00  0.00    +0.000 OA
ATOM      8  C   UNL     1       0.364   9.698  19.423  0.00  0.00    +0.000 C 
ENDROOT
BRANCH   1  14
ATOM      9  C   UNL     1       2.529  13.373  20.590  0.00  0.00    +0.000 C 
ATOM     10  C   UNL     1       1.312  13.266  19.740  0.00  0.00    +0.000 A 
ATOM     11  N   UNL     1       0.868  14.193  18.915  0.00  0.00    +0.000 NA
ATOM     12  C   UNL     1      -0.240  13.660  18.315  0.00  0.00    +0.000 A 
ATOM     13  C   UNL     1      -0.501  12.398  18.794  0.00  0.00    +0.000 A 
ATOM     14  N   UNL     1       0.510  12.140  19.677  0.00  0.00    +0.000 N 
ENDBRANCH   1  14
BRANCH   6  15
ATOM     15  C   UNL     1       3.045   6.935  19.342  0.00  0.00    +0.000 C 
BRANCH  15  16
ATOM     16  N   UNL     1       2.448   5.605  19.149  0.00  0.00    +0.000 N 
ATOM     17  C   UNL     1       2.080   5.206  17.880  0.00  0.00    +0.000 A 
ATOM     18  C   UNL     1       1.497   4.029  17.650  0.00  0.00    +0.000 A 
ATOM     19  C   UNL     1       1.216   3.134  18.784  0.00  0.00    +0.000 A 
ATOM     20  O   UNL     1       0.687   2.045  18.559  0.00  0.00    +0.000 OA
ATOM     21  N   UNL     1       1.571   3.604  20.035  0.00  0.00    +0.000 N 
ATOM     22  C   UNL     1       1.271   2.792  21.196  0.00  0.00    +0.000 C 
ATOM     23  C   UNL     1       2.215   4.815  20.268  0.00  0.00    +0.000 A 
ATOM     24  O   UNL     1       2.550   5.167  21.401  0.00  0.00    +0.000 OA
ENDBRANCH  15  16
ENDBRANCH   6  15
TORSDOF 3
ENDMDL
MODEL 3
REMARK VINA RESULT:      -6.6      4.434      7.939
REMARK  Name = 
REMARK  5 active torsions:
REMARK  status: ('A' for Active; 'I' for Inactive)
REMARK    1  A    between atoms: C_1  and  C_2
REMARK    2  A    between atoms: N_6  and  C_7
REMARK    3  A    between atoms: C_12  and  C_14
REMARK    4  A    between atoms: C_14  and  N_15
REMARK    5  A    between atoms: N_20  and  C_21
REMARK                            x       y       z     vdW  Elec       q    Type
REMARK                         _______ _______ _______ _____ _____    ______ ____
ROOT
ATOM      1  C   UNL     1       4.243   4.815  17.418  0.00  0.00    +0.000 C 
ATOM      2  C   UNL     1       3.304   3.615  17.598  0.00  0.00    +0.000 C 
ATOM      3  C   UNL     1       1.864   4.154  17.747  0.00  0.00    +0.000 C 
ATOM      4  C   UNL     1       1.728   5.269  18.806  0.00  0.00    +0.000 C 
ATOM      5  N   UNL     1       2.813   6.257  18.720  0.00  0.00    +0.000 N 
ATOM      6  C   UNL     1       2.709   7.612  18.437  0.00  0.00    +0.000 C 
ATOM      7  O   UNL     1       3.716   8.296  18.218  0.00  0.00    +0.000 OA
ATOM      8  C   UNL     1       4.151   5.672  18.682  0.00  0.00    +0.000 C 
ENDROOT
BRANCH   1  14
ATOM      9  C   UNL     1       5.182   4.596  14.545  0.00  0.00    +0.000 C 
ATOM     10  C   UNL     1       6.072   4.551  15.737  0.00  0.00    +0.000 A 
ATOM     11  N   UNL     1       7.391   4.536  15.711  0.00  0.00    +0.000 NA
ATOM     12  C   UNL     1       7.790   4.536  17.019  0.00  0.00    +0.000 A 
ATOM     13  C   UNL     1       6.706   4.525  17.866  0.00  0.00    +0.000 A 
ATOM     14  N   UNL     1       5.615   4.568  17.043  0.00  0.00    +0.000 N 
ENDBRANCH   1  14
BRANCH   6  15
ATOM     15  C   UNL     1       1.340   8.276  18.306  0.00  0.00    +0.000 C 
BRANCH  15  16
ATOM     16  N   UNL     1       0.946   9.005  19.521  0.00  0.00    +0.000 N 
ATOM     17  C   UNL     1       1.307   8.507  20.756  0.00  0.00    +0.000 A 
ATOM     18  C   UNL     1       0.943   9.102  21.892  0.00  0.00    +0.000 A 
ATOM     19  C   UNL     1       0.112  10.315  21.833  0.00  0.00    +0.000 A 
ATOM     20  O   UNL     1      -0.210  10.863  22.887  0.00  0.00    +0.000 OA
ATOM     21  N   UNL     1      -0.251  10.744  20.569  0.00  0.00    +0.000 N 
ATOM     22  C   UNL     1      -1.114  11.902  20.447  0.00  0.00    +0.000 C 
ATOM     23  C   UNL     1       0.163  10.145  19.384  0.00  0.00    +0.000 A 
ATOM     24  O   UNL     1      -0.154  10.594  18.282  0.00  0.00    +0.000 OA
ENDBRANCH  15  16
ENDBRANCH   6  15
TORSDOF 3
ENDMDL
MODEL 4
REMARK VINA RESULT:      -6.4      4.403      8.050
REMARK  Name = 
REMARK  5 active torsions:
REMARK  status: ('A' for Active; 'I' for Inactive)
REMARK    1  A    between atoms: C_1  and  C_2
REMARK    2  A    between atoms: N_6  and  C_7
REMARK    3  A    between atoms: C_12  and  C_14
REMARK    4  A    between atoms: C_14  and  N_15
REMARK    5  A    between atoms: N_20  and  C_21
REMARK                            x       y       z     vdW  Elec       q    Type
REMARK                         _______ _______ _______ _____ _____    ______ ____
ROOT
ATOM      1  C   UNL     1       4.310   5.213  16.874  0.00  0.00    +0.000 C 
ATOM      2  C   UNL     1       3.630   3.908  17.309  0.00  0.00    +0.000 C 
ATOM      3  C   UNL     1       2.196   4.249  17.772  0.00  0.00    +0.000 C 
ATOM      4  C   UNL     1       2.135   5.404  18.795  0.00  0.00    +0.000 C 
ATOM      5  N   UNL     1       3.009   6.526  18.424  0.00  0.00    +0.000 N 
ATOM      6  C   UNL     1       2.639   7.831  18.127  0.00  0.00    +0.000 C 
ATOM      7  O   UNL     1       3.455   8.632  17.655  0.00  0.00    +0.000 OA
ATOM      8  C   UNL     1       4.377   6.133  18.094  0.00  0.00    +0.000 C 
ENDROOT
BRANCH   1  14
ATOM      9  C   UNL     1       6.942   4.740  18.300  0.00  0.00    +0.000 C 
ATOM     10  C   UNL     1       6.779   4.835  16.824  0.00  0.00    +0.000 A 
ATOM     11  N   UNL     1       7.722   4.605  15.931  0.00  0.00    +0.000 NA
ATOM     12  C   UNL     1       7.127   4.766  14.710  0.00  0.00    +0.000 A 
ATOM     13  C   UNL     1       5.807   5.125  14.848  0.00  0.00    +0.000 A 
ATOM     14  N   UNL     1       5.583   5.135  16.196  0.00  0.00    +0.000 N 
ENDBRANCH   1  14
BRANCH   6  15
ATOM     15  C   UNL     1       1.191   8.286  18.297  0.00  0.00    +0.000 C 
BRANCH  15  16
ATOM     16  N   UNL     1       0.955   8.948  19.588  0.00  0.00    +0.000 N 
ATOM     17  C   UNL     1       1.203   8.260  20.758  0.00  0.00    +0.000 A 
ATOM     18  C   UNL     1       0.968   8.795  21.956  0.00  0.00    +0.000 A 
ATOM     19  C   UNL     1       0.405  10.152  22.039  0.00  0.00    +0.000 A 
ATOM     20  O   UNL     1       0.202  10.640  23.150  0.00  0.00    +0.000 OA
ATOM     21  N   UNL     1       0.139  10.776  20.834  0.00  0.00    +0.000 N 
ATOM     22  C   UNL     1      -0.465  12.093  20.849  0.00  0.00    +0.000 C 
ATOM     23  C   UNL     1       0.423  10.233  19.586  0.00  0.00    +0.000 A 
ATOM     24  O   UNL     1       0.206  10.851  18.541  0.00  0.00    +0.000 OA
ENDBRANCH  15  16
ENDBRANCH   6  15
TORSDOF 3
ENDMDL
MODEL 5
REMARK VINA RESULT:      -6.4      4.768      7.130
REMARK  Name = 
REMARK  5 active torsions:
REMARK  status: ('A' for Active; 'I' for Inactive)
REMARK    1  A    between atoms: C_1  and  C_2
REMARK    2  A    between atoms: N_6  and  C_7
REMARK    3  A    between atoms: C_12  and  C_14
REMARK    4  A    between atoms: C_14  and  N_15
REMARK    5  A    between atoms: N_20  and  C_21
REMARK                            x       y       z     vdW  Elec       q    Type
REMARK                         _______ _______ _______ _____ _____    ______ ____
ROOT
ATOM      1  C   UNL     1       0.816  10.563  20.213  0.00  0.00    +0.000 C 
ATOM      2  C   UNL     1       0.629  10.081  21.658  0.00  0.00    +0.000 C 
ATOM      3  C   UNL     1       1.599   8.904  21.897  0.00  0.00    +0.000 C 
ATOM      4  C   UNL     1       1.520   7.806  20.815  0.00  0.00    +0.000 C 
ATOM      5  N   UNL     1       1.458   8.364  19.456  0.00  0.00    +0.000 N 
ATOM      6  C   UNL     1       2.373   8.197  18.426  0.00  0.00    +0.000 C 
ATOM      7  O   UNL     1       2.293   8.868  17.389  0.00  0.00    +0.000 OA
ATOM      8  C   UNL     1       0.447   9.405  19.284  0.00  0.00    +0.000 C 
ENDROOT
BRANCH   1  14
ATOM      9  C   UNL     1       2.085  12.568  18.326  0.00  0.00    +0.000 C 
ATOM     10  C   UNL     1       0.708  12.674  18.881  0.00  0.00    +0.000 A 
ATOM     11  N   UNL     1      -0.191  13.577  18.539  0.00  0.00    +0.000 NA
ATOM     12  C   UNL     1      -1.314  13.278  19.259  0.00  0.00    +0.000 A 
ATOM     13  C   UNL     1      -1.101  12.193  20.077  0.00  0.00    +0.000 A 
ATOM     14  N   UNL     1       0.178  11.794  19.807  0.00  0.00    +0.000 N 
ENDBRANCH   1  14
BRANCH   6  15
ATOM     15  C   UNL     1       3.553   7.240  18.581  0.00  0.00    +0.000 C 
BRANCH  15  16
ATOM     16  N   UNL     1       3.148   5.828  18.510  0.00  0.00    +0.000 N 
ATOM     17  C   UNL     1       1.977   5.491  17.862  0.00  0.00    +0.000 A 
ATOM     18  C   UNL     1       1.540   4.233  17.802  0.00  0.00    +0.000 A 
ATOM     19  C   UNL     1       2.314   3.171  18.465  0.00  0.00    +0.000 A 
ATOM     20  O   UNL     1       1.907   2.012  18.394  0.00  0.00    +0.000 OA
ATOM     21  N   UNL     1       3.456   3.575  19.132  0.00  0.00    +0.000 N 
ATOM     22  C   UNL     1       4.232   2.584  19.849  0.00  0.00    +0.000 C 
ATOM     23  C   UNL     1       3.932   4.881  19.159  0.00  0.00    +0.000 A 
ATOM     24  O   UNL     1       4.981   5.181  19.732  0.00  0.00    +0.000 OA
ENDBRANCH  15  16
ENDBRANCH   6  15
TORSDOF 3
ENDMDL
MODEL 6
REMARK VINA RESULT:      -6.4      8.750     11.643
REMARK  Name = 
REMARK  5 active torsions:
REMARK  status: ('A' for Active; 'I' for Inactive)
REMARK    1  A    between atoms: C_1  and  C_2
REMARK    2  A    between atoms: N_6  and  C_7
REMARK    3  A    between atoms: C_12  and  C_14
REMARK    4  A    between atoms: C_14  and  N_15
REMARK    5  A    between atoms: N_20  and  C_21
REMARK                            x       y       z     vdW  Elec       q    Type
REMARK                         _______ _______ _______ _____ _____    ______ ____
ROOT
ATOM      1  C   UNL     1       0.098  10.527  19.525  0.00  0.00    +0.000 C 
ATOM      2  C   UNL     1       0.792  11.895  19.557  0.00  0.00    +0.000 C 
ATOM      3  C   UNL     1      -0.256  12.971  19.199  0.00  0.00    +0.000 C 
ATOM      4  C   UNL     1      -1.049  12.657  17.911  0.00  0.00    +0.000 C 
ATOM      5  N   UNL     1      -1.473  11.251  17.844  0.00  0.00    +0.000 N 
ATOM      6  C   UNL     1      -2.770  10.755  17.811  0.00  0.00    +0.000 C 
ATOM      7  O   UNL     1      -2.991   9.544  17.937  0.00  0.00    +0.000 OA
ATOM      8  C   UNL     1      -0.402  10.291  18.099  0.00  0.00    +0.000 C 
ENDROOT
BRANCH   1  14
ATOM      9  C   UNL     1      -0.381   9.339  22.273  0.00  0.00    +0.000 C 
ATOM     10  C   UNL     1       0.542   8.775  21.250  0.00  0.00    +0.000 A 
ATOM     11  N   UNL     1       1.181   7.625  21.343  0.00  0.00    +0.000 NA
ATOM     12  C   UNL     1       1.876   7.488  20.174  0.00  0.00    +0.000 A 
ATOM     13  C   UNL     1       1.687   8.578  19.357  0.00  0.00    +0.000 A 
ATOM     14  N   UNL     1       0.811   9.379  20.035  0.00  0.00    +0.000 N 
ENDBRANCH   1  14
BRANCH   6  15
ATOM     15  C   UNL     1      -3.962  11.702  17.701  0.00  0.00    +0.000 C 
BRANCH  15  16
ATOM     16  N   UNL     1      -4.639  11.911  18.990  0.00  0.00    +0.000 N 
ATOM     17  C   UNL     1      -3.985  12.596  19.995  0.00  0.00    +0.000 A 
ATOM     18  C   UNL     1      -4.532  12.779  21.196  0.00  0.00    +0.000 A 
ATOM     19  C   UNL     1      -5.864  12.218  21.473  0.00  0.00    +0.000 A 
ATOM     20  O   UNL     1      -6.364  12.402  22.581  0.00  0.00    +0.000 OA
ATOM     21  N   UNL     1      -6.453  11.509  20.441  0.00  0.00    +0.000 N 
ATOM     22  C   UNL     1      -7.741  10.886  20.669  0.00  0.00    +0.000 C 
ATOM     23  C   UNL     1      -5.898  11.352  19.176  0.00  0.00    +0.000 A 
ATOM     24  O   UNL     1      -6.485  10.747  18.277  0.00  0.00    +0.000 OA
ENDBRANCH  15  16
ENDBRANCH   6  15
TORSDOF 3
ENDMDL
MODEL 7
REMARK VINA RESULT:      -6.4      4.257      7.828
REMARK  Name = 
REMARK  5 active torsions:
REMARK  status: ('A' for Active; 'I' for Inactive)
REMARK    1  A    between atoms: C_1  and  C_2
REMARK    2  A    between atoms: N_6  and  C_7
REMARK    3  A    between atoms: C_12  and  C_14
REMARK    4  A    between atoms: C_14  and  N_15
REMARK    5  A    between atoms: N_20  and  C_21
REMARK                            x       y       z     vdW  Elec       q    Type
REMARK                         _______ _______ _______ _____ _____    ______ ____
ROOT
ATOM      1  C   UNL     1       4.259   4.810  17.341  0.00  0.00    +0.000 C 
ATOM      2  C   UNL     1       3.291   3.624  17.450  0.00  0.00    +0.000 C 
ATOM      3  C   UNL     1       1.853   4.185  17.505  0.00  0.00    +0.000 C 
ATOM      4  C   UNL     1       1.663   5.298  18.559  0.00  0.00    +0.000 C 
ATOM      5  N   UNL     1       2.767   6.268  18.553  0.00  0.00    +0.000 N 
ATOM      6  C   UNL     1       2.704   7.626  18.272  0.00  0.00    +0.000 C 
ATOM      7  O   UNL     1       3.735   8.294  18.125  0.00  0.00    +0.000 OA
ATOM      8  C   UNL     1       4.096   5.662  18.601  0.00  0.00    +0.000 C 
ENDROOT
BRANCH   1  14
ATOM      9  C   UNL     1       5.374   4.520  14.537  0.00  0.00    +0.000 C 
ATOM     10  C   UNL     1       6.187   4.493  15.784  0.00  0.00    +0.000 A 
ATOM     11  N   UNL     1       7.504   4.466  15.841  0.00  0.00    +0.000 NA
ATOM     12  C   UNL     1       7.821   4.491  17.171  0.00  0.00    +0.000 A 
ATOM     13  C   UNL     1       6.687   4.508  17.948  0.00  0.00    +0.000 A 
ATOM     14  N   UNL     1       5.650   4.543  17.058  0.00  0.00    +0.000 N 
ENDBRANCH   1  14
BRANCH   6  15
ATOM     15  C   UNL     1       1.358   8.313  18.053  0.00  0.00    +0.000 C 
BRANCH  15  16
ATOM     16  N   UNL     1       1.107   9.388  19.025  0.00  0.00    +0.000 N 
ATOM     17  C   UNL     1       1.203  10.704  18.619  0.00  0.00    +0.000 A 
ATOM     18  C   UNL     1       1.027  11.719  19.465  0.00  0.00    +0.000 A 
ATOM     19  C   UNL     1       0.744  11.433  20.881  0.00  0.00    +0.000 A 
ATOM     20  O   UNL     1       0.573  12.377  21.651  0.00  0.00    +0.000 OA
ATOM     21  N   UNL     1       0.699  10.097  21.236  0.00  0.00    +0.000 N 
ATOM     22  C   UNL     1       0.478   9.752  22.625  0.00  0.00    +0.000 C 
ATOM     23  C   UNL     1       0.844   9.039  20.344  0.00  0.00    +0.000 A 
ATOM     24  O   UNL     1       0.751   7.865  20.706  0.00  0.00    +0.000 OA
ENDBRANCH  15  16
ENDBRANCH   6  15
TORSDOF 3
ENDMDL
MODEL 8
REMARK VINA RESULT:      -6.3      5.060      7.577
REMARK  Name = 
REMARK  5 active torsions:
REMARK  status: ('A' for Active; 'I' for Inactive)
REMARK    1  A    between atoms: C_1  and  C_2
REMARK    2  A    between atoms: N_6  and  C_7
REMARK    3  A    between atoms: C_12  and  C_14
REMARK    4  A    between atoms: C_14  and  N_15
REMARK    5  A    between atoms: N_20  and  C_21
REMARK                            x       y       z     vdW  Elec       q    Type
REMARK                         _______ _______ _______ _____ _____    ______ ____
ROOT
ATOM      1  C   UNL     1       0.639  11.022  20.573  0.00  0.00    +0.000 C 
ATOM      2  C   UNL     1       0.137  10.809  22.007  0.00  0.00    +0.000 C 
ATOM      3  C   UNL     1       0.778   9.512  22.549  0.00  0.00    +0.000 C 
ATOM      4  C   UNL     1       0.621   8.302  21.603  0.00  0.00    +0.000 C 
ATOM      5  N   UNL     1       0.887   8.651  20.200  0.00  0.00    +0.000 N 
ATOM      6  C   UNL     1       1.887   8.154  19.375  0.00  0.00    +0.000 C 
ATOM      7  O   UNL     1       2.113   8.664  18.271  0.00  0.00    +0.000 OA
ATOM      8  C   UNL     1       0.168   9.834  19.732  0.00  0.00    +0.000 C 
ENDROOT
BRANCH   1  14
ATOM      9  C   UNL     1       2.334  12.174  18.339  0.00  0.00    +0.000 C 
ATOM     10  C   UNL     1       1.069  12.774  18.844  0.00  0.00    +0.000 A 
ATOM     11  N   UNL     1       0.446  13.810  18.317  0.00  0.00    +0.000 NA
ATOM     12  C   UNL     1      -0.682  13.990  19.069  0.00  0.00    +0.000 A 
ATOM     13  C   UNL     1      -0.746  13.071  20.090  0.00  0.00    +0.000 A 
ATOM     14  N   UNL     1       0.355  12.279  19.921  0.00  0.00    +0.000 N 
ENDBRANCH   1  14
BRANCH   6  15
ATOM     15  C   UNL     1       2.790   7.017  19.846  0.00  0.00    +0.000 C 
BRANCH  15  16
ATOM     16  N   UNL     1       2.247   5.690  19.520  0.00  0.00    +0.000 N 
ATOM     17  C   UNL     1       1.401   5.066  20.414  0.00  0.00    +0.000 A 
ATOM     18  C   UNL     1       0.911   3.846  20.191  0.00  0.00    +0.000 A 
ATOM     19  C   UNL     1       1.299   3.130  18.965  0.00  0.00    +0.000 A 
ATOM     20  O   UNL     1       0.833   2.010  18.763  0.00  0.00    +0.000 OA
ATOM     21  N   UNL     1       2.179   3.790  18.126  0.00  0.00    +0.000 N 
ATOM     22  C   UNL     1       2.640   3.115  16.929  0.00  0.00    +0.000 C 
ATOM     23  C   UNL     1       2.658   5.078  18.341  0.00  0.00    +0.000 A 
ATOM     24  O   UNL     1       3.407   5.637  17.539  0.00  0.00    +0.000 OA
ENDBRANCH  15  16
ENDBRANCH   6  15
TORSDOF 3
ENDMDL
MODEL 9
REMARK VINA RESULT:      -6.3      4.841      6.872
REMARK  Name = 
REMARK  5 active torsions:
REMARK  status: ('A' for Active; 'I' for Inactive)
REMARK    1  A    between atoms: C_1  and  C_2
REMARK    2  A    between atoms: N_6  and  C_7
REMARK    3  A    between atoms: C_12  and  C_14
REMARK    4  A    between atoms: C_14  and  N_15
REMARK    5  A    between atoms: N_20  and  C_21
REMARK                            x       y       z     vdW  Elec       q    Type
REMARK                         _______ _______ _______ _____ _____    ______ ____
ROOT
ATOM      1  C   UNL     1      -0.494  10.389  19.988  0.00  0.00    +0.000 C 
ATOM      2  C   UNL     1      -1.143  10.920  18.704  0.00  0.00    +0.000 C 
ATOM      3  C   UNL     1      -0.876   9.899  17.576  0.00  0.00    +0.000 C 
ATOM      4  C   UNL     1       0.608   9.490  17.451  0.00  0.00    +0.000 C 
ATOM      5  N   UNL     1       1.228   9.231  18.758  0.00  0.00    +0.000 N 
ATOM      6  C   UNL     1       1.765   8.037  19.223  0.00  0.00    +0.000 C 
ATOM      7  O   UNL     1       2.093   7.907  20.408  0.00  0.00    +0.000 OA
ATOM      8  C   UNL     1       1.013  10.289  19.742  0.00  0.00    +0.000 C 
ENDROOT
BRANCH   1  14
ATOM      9  C   UNL     1      -0.409   9.010  22.686  0.00  0.00    +0.000 C 
ATOM     10  C   UNL     1      -0.666  10.461  22.479  0.00  0.00    +0.000 A 
ATOM     11  N   UNL     1      -0.769  11.366  23.433  0.00  0.00    +0.000 NA
ATOM     12  C   UNL     1      -0.963  12.560  22.796  0.00  0.00    +0.000 A 
ATOM     13  C   UNL     1      -1.007  12.390  21.432  0.00  0.00    +0.000 A 
ATOM     14  N   UNL     1      -0.785  11.055  21.236  0.00  0.00    +0.000 N 
ENDBRANCH   1  14
BRANCH   6  15
ATOM     15  C   UNL     1       1.885   6.827  18.300  0.00  0.00    +0.000 C 
BRANCH  15  16
ATOM     16  N   UNL     1       3.192   6.162  18.407  0.00  0.00    +0.000 N 
ATOM     17  C   UNL     1       4.295   6.734  17.806  0.00  0.00    +0.000 A 
ATOM     18  C   UNL     1       5.495   6.155  17.836  0.00  0.00    +0.000 A 
ATOM     19  C   UNL     1       5.650   4.855  18.508  0.00  0.00    +0.000 A 
ATOM     20  O   UNL     1       6.764   4.335  18.538  0.00  0.00    +0.000 OA
ATOM     21  N   UNL     1       4.502   4.312  19.056  0.00  0.00    +0.000 N 
ATOM     22  C   UNL     1       4.579   3.009  19.685  0.00  0.00    +0.000 C 
ATOM     23  C   UNL     1       3.259   4.936  19.060  0.00  0.00    +0.000 A 
ATOM     24  O   UNL     1       2.276   4.428  19.603  0.00  0.00    +0.000 OA
ENDBRANCH  15  16
ENDBRANCH   6  15
TORSDOF 3
ENDMDL
