MODEL 1
REMARK VINA RESULT:      -8.2      0.000      0.000
REMARK  Name = 
REMARK  3 active torsions:
REMARK  status: ('A' for Active; 'I' for Inactive)
REMARK    1  A    between atoms: C_2  and  C_18
REMARK    2  A    between atoms: N_3  and  N_4
REMARK    3  A    between atoms: N_4  and  C_5
REMARK                            x       y       z     vdW  Elec       q    Type
REMARK                         _______ _______ _______ _____ _____    ______ ____
ROOT
ATOM      1  C   UNL     1       2.393   5.896  19.656  0.00  0.00    +0.000 A 
ATOM      2  N   UNL     1       1.608   5.381  20.639  0.00  0.00    +0.000 NA
ATOM      3  C   UNL     1       1.469   4.051  20.726  0.00  0.00    +0.000 A 
ATOM      4  N   UNL     1       2.025   3.123  19.949  0.00  0.00    +0.000 NA
ATOM      5  C   UNL     1       2.809   3.653  18.998  0.00  0.00    +0.000 A 
ATOM      6  S   UNL     1       3.627   2.633  17.905  0.00  0.00    +0.000 S 
ATOM      7  C   UNL     1       4.368   3.952  17.136  0.00  0.00    +0.000 A 
ATOM      8  C   UNL     1       3.974   5.170  17.663  0.00  0.00    +0.000 A 
ATOM      9  C   UNL     1       3.055   5.003  18.776  0.00  0.00    +0.000 A 
ATOM     10  C   UNL     1       4.538   6.459  17.130  0.00  0.00    +0.000 C 
ATOM     11  C   UNL     1       5.253   6.282  15.782  0.00  0.00    +0.000 C 
ATOM     12  C   UNL     1       6.145   5.038  15.770  0.00  0.00    +0.000 C 
ATOM     13  C   UNL     1       5.324   3.761  15.998  0.00  0.00    +0.000 C 
ENDROOT
BRANCH   1  14
ATOM     14  N   UNL     1       2.476   7.295  19.522  0.00  0.00    +0.000 N 
ATOM     15  H   UNL     1       3.437   7.622  19.431  0.00  0.00    +0.000 HD
BRANCH  14  18
ATOM     16  O   UNL     1       1.089   9.504  18.942  0.00  0.00    +0.000 OA
ATOM     17  C   UNL     1       1.093   9.120  20.111  0.00  0.00    +0.000 C 
ATOM     18  N   UNL     1       1.806   8.011  20.526  0.00  0.00    +0.000 N 
ATOM     19  H   UNL     1       1.812   7.643  21.476  0.00  0.00    +0.000 HD
BRANCH  17  20
ATOM     20  C   UNL     1       0.335   9.851  21.157  0.00  0.00    +0.000 A 
ATOM     21  C   UNL     1       0.477   9.462  22.484  0.00  0.00    +0.000 A 
ATOM     22  N   UNL     1      -0.214  10.050  23.494  0.00  0.00    +0.000 NA
ATOM     23  C   UNL     1      -1.055  11.037  23.116  0.00  0.00    +0.000 A 
ATOM     24  C   UNL     1      -1.193  11.432  21.791  0.00  0.00    +0.000 A 
ATOM     25  N   UNL     1      -0.500  10.858  20.776  0.00  0.00    +0.000 NA
ENDBRANCH  17  20
ENDBRANCH  14  18
ENDBRANCH   1  14
TORSDOF 3
ENDMDL
MODEL 2
REMARK VINA RESULT:      -8.1      0.573      1.020
REMARK  Name = 
REMARK  3 active torsions:
REMARK  status: ('A' for Active; 'I' for Inactive)
REMARK    1  A    between atoms: C_2  and  C_18
REMARK    2  A    between atoms: N_3  and  N_4
REMARK    3  A    between atoms: N_4  and  C_5
REMARK                            x       y       z     vdW  Elec       q    Type
REMARK                         _______ _______ _______ _____ _____    ______ ____
ROOT
ATOM      1  C   UNL     1       2.446   5.718  19.812  0.00  0.00    +0.000 A 
ATOM      2  N   UNL     1       1.661   5.167  20.776  0.00  0.00    +0.000 NA
ATOM      3  C   UNL     1       1.480   3.839  20.781  0.00  0.00    +0.000 A 
ATOM      4  N   UNL     1       1.991   2.944  19.937  0.00  0.00    +0.000 NA
ATOM      5  C   UNL     1       2.775   3.509  19.005  0.00  0.00    +0.000 A 
ATOM      6  S   UNL     1       3.539   2.535  17.834  0.00  0.00    +0.000 S 
ATOM      7  C   UNL     1       4.309   3.876  17.135  0.00  0.00    +0.000 A 
ATOM      8  C   UNL     1       3.966   5.070  17.745  0.00  0.00    +0.000 A 
ATOM      9  C   UNL     1       3.062   4.862  18.864  0.00  0.00    +0.000 A 
ATOM     10  C   UNL     1       4.564   6.371  17.284  0.00  0.00    +0.000 C 
ATOM     11  C   UNL     1       5.247   6.257  15.914  0.00  0.00    +0.000 C 
ATOM     12  C   UNL     1       6.097   4.988  15.805  0.00  0.00    +0.000 C 
ATOM     13  C   UNL     1       5.238   3.727  15.969  0.00  0.00    +0.000 C 
ENDROOT
BRANCH   1  14
ATOM     14  N   UNL     1       2.574   7.119  19.764  0.00  0.00    +0.000 N 
ATOM     15  H   UNL     1       3.544   7.424  19.817  0.00  0.00    +0.000 HD
BRANCH  14  18
ATOM     16  O   UNL     1       1.340   9.404  19.135  0.00  0.00    +0.000 OA
ATOM     17  C   UNL     1       1.173   8.955  20.269  0.00  0.00    +0.000 C 
ATOM     18  N   UNL     1       1.791   7.801  20.709  0.00  0.00    +0.000 N 
ATOM     19  H   UNL     1       1.656   7.380  21.628  0.00  0.00    +0.000 HD
BRANCH  17  20
ATOM     20  C   UNL     1       0.297   9.654  21.244  0.00  0.00    +0.000 A 
ATOM     21  C   UNL     1      -0.372  10.804  20.840  0.00  0.00    +0.000 A 
ATOM     22  N   UNL     1      -1.155  11.525  21.682  0.00  0.00    +0.000 NA
ATOM     23  C   UNL     1      -1.234  11.047  22.943  0.00  0.00    +0.000 A 
ATOM     24  C   UNL     1      -0.572   9.894  23.345  0.00  0.00    +0.000 A 
ATOM     25  N   UNL     1       0.205   9.161  22.510  0.00  0.00    +0.000 NA
ENDBRANCH  17  20
ENDBRANCH  14  18
ENDBRANCH   1  14
TORSDOF 3
ENDMDL
MODEL 3
REMARK VINA RESULT:      -7.8      4.191      7.698
REMARK  Name = 
REMARK  3 active torsions:
REMARK  status: ('A' for Active; 'I' for Inactive)
REMARK    1  A    between atoms: C_2  and  C_18
REMARK    2  A    between atoms: N_3  and  N_4
REMARK    3  A    between atoms: N_4  and  C_5
REMARK                            x       y       z     vdW  Elec       q    Type
REMARK                         _______ _______ _______ _____ _____    ______ ____
ROOT
ATOM      1  C   UNL     1       5.158   3.814  19.115  0.00  0.00    +0.000 A 
ATOM      2  N   UNL     1       5.172   2.599  19.723  0.00  0.00    +0.000 NA
ATOM      3  C   UNL     1       4.112   2.230  20.457  0.00  0.00    +0.000 A 
ATOM      4  N   UNL     1       2.995   2.921  20.677  0.00  0.00    +0.000 NA
ATOM      5  C   UNL     1       2.997   4.110  20.053  0.00  0.00    +0.000 A 
ATOM      6  S   UNL     1       1.651   5.145  20.195  0.00  0.00    +0.000 S 
ATOM      7  C   UNL     1       2.356   6.300  19.171  0.00  0.00    +0.000 A 
ATOM      8  C   UNL     1       3.625   5.940  18.750  0.00  0.00    +0.000 A 
ATOM      9  C   UNL     1       4.011   4.636  19.261  0.00  0.00    +0.000 A 
ATOM     10  C   UNL     1       4.407   6.823  17.817  0.00  0.00    +0.000 C 
ATOM     11  C   UNL     1       3.822   8.239  17.710  0.00  0.00    +0.000 C 
ATOM     12  C   UNL     1       2.296   8.217  17.582  0.00  0.00    +0.000 C 
ATOM     13  C   UNL     1       1.644   7.568  18.811  0.00  0.00    +0.000 C 
ENDROOT
BRANCH   1  14
ATOM     14  N   UNL     1       6.302   4.228  18.407  0.00  0.00    +0.000 N 
ATOM     15  H   UNL     1       6.566   5.189  18.620  0.00  0.00    +0.000 HD
BRANCH  14  18
ATOM     16  O   UNL     1       7.543   5.882  16.715  0.00  0.00    +0.000 OA
ATOM     17  C   UNL     1       6.927   4.931  16.238  0.00  0.00    +0.000 C 
ATOM     18  N   UNL     1       6.221   4.036  17.018  0.00  0.00    +0.000 N 
ATOM     19  H   UNL     1       5.723   3.219  16.667  0.00  0.00    +0.000 HD
BRANCH  17  20
ATOM     20  C   UNL     1       6.894   4.702  14.771  0.00  0.00    +0.000 A 
ATOM     21  C   UNL     1       5.983   3.787  14.255  0.00  0.00    +0.000 A 
ATOM     22  N   UNL     1       5.919   3.488  12.933  0.00  0.00    +0.000 NA
ATOM     23  C   UNL     1       6.810   4.140  12.153  0.00  0.00    +0.000 A 
ATOM     24  C   UNL     1       7.716   5.060  12.667  0.00  0.00    +0.000 A 
ATOM     25  N   UNL     1       7.781   5.373  13.984  0.00  0.00    +0.000 NA
ENDBRANCH  17  20
ENDBRANCH  14  18
ENDBRANCH   1  14
TORSDOF 3
ENDMDL
MODEL 4
REMARK VINA RESULT:      -7.7      1.314      1.661
REMARK  Name = 
REMARK  3 active torsions:
REMARK  status: ('A' for Active; 'I' for Inactive)
REMARK    1  A    between atoms: C_2  and  C_18
REMARK    2  A    between atoms: N_3  and  N_4
REMARK    3  A    between atoms: N_4  and  C_5
REMARK                            x       y       z     vdW  Elec       q    Type
REMARK                         _______ _______ _______ _____ _____    ______ ____
ROOT
ATOM      1  C   UNL     1       2.271   5.660  19.939  0.00  0.00    +0.000 A 
ATOM      2  N   UNL     1       1.339   5.053  20.719  0.00  0.00    +0.000 NA
ATOM      3  C   UNL     1       0.940   3.812  20.404  0.00  0.00    +0.000 A 
ATOM      4  N   UNL     1       1.356   3.058  19.388  0.00  0.00    +0.000 NA
ATOM      5  C   UNL     1       2.289   3.671  18.642  0.00  0.00    +0.000 A 
ATOM      6  S   UNL     1       2.964   2.870  17.298  0.00  0.00    +0.000 S 
ATOM      7  C   UNL     1       3.995   4.176  16.963  0.00  0.00    +0.000 A 
ATOM      8  C   UNL     1       3.810   5.241  17.828  0.00  0.00    +0.000 A 
ATOM      9  C   UNL     1       2.805   4.947  18.835  0.00  0.00    +0.000 A 
ATOM     10  C   UNL     1       4.646   6.485  17.707  0.00  0.00    +0.000 C 
ATOM     11  C   UNL     1       5.400   6.567  16.372  0.00  0.00    +0.000 C 
ATOM     12  C   UNL     1       6.034   5.226  15.993  0.00  0.00    +0.000 C 
ATOM     13  C   UNL     1       4.969   4.134  15.825  0.00  0.00    +0.000 C 
ENDROOT
BRANCH   1  14
ATOM     14  N   UNL     1       2.632   6.989  20.229  0.00  0.00    +0.000 N 
ATOM     15  H   UNL     1       2.809   7.138  21.221  0.00  0.00    +0.000 HD
BRANCH  14  18
ATOM     16  O   UNL     1       1.359   8.653  21.888  0.00  0.00    +0.000 OA
ATOM     17  C   UNL     1       1.156   8.780  20.681  0.00  0.00    +0.000 C 
ATOM     18  N   UNL     1       1.734   7.951  19.740  0.00  0.00    +0.000 N 
ATOM     19  H   UNL     1       1.616   8.040  18.731  0.00  0.00    +0.000 HD
BRANCH  17  20
ATOM     20  C   UNL     1       0.248   9.836  20.168  0.00  0.00    +0.000 A 
ATOM     21  C   UNL     1      -0.431  10.638  21.079  0.00  0.00    +0.000 A 
ATOM     22  N   UNL     1      -1.312  11.596  20.693  0.00  0.00    +0.000 NA
ATOM     23  C   UNL     1      -1.486  11.711  19.358  0.00  0.00    +0.000 A 
ATOM     24  C   UNL     1      -0.803  10.915  18.446  0.00  0.00    +0.000 A 
ATOM     25  N   UNL     1       0.086   9.963  18.821  0.00  0.00    +0.000 NA
ENDBRANCH  17  20
ENDBRANCH  14  18
ENDBRANCH   1  14
TORSDOF 3
ENDMDL
MODEL 5
REMARK VINA RESULT:      -7.6      1.216      1.800
REMARK  Name = 
REMARK  3 active torsions:
REMARK  status: ('A' for Active; 'I' for Inactive)
REMARK    1  A    between atoms: C_2  and  C_18
REMARK    2  A    between atoms: N_3  and  N_4
REMARK    3  A    between atoms: N_4  and  C_5
REMARK                            x       y       z     vdW  Elec       q    Type
REMARK                         _______ _______ _______ _____ _____    ______ ____
ROOT
ATOM      1  C   UNL     1       2.276   5.738  19.944  0.00  0.00    +0.000 A 
ATOM      2  N   UNL     1       1.350   5.145  20.742  0.00  0.00    +0.000 NA
ATOM      3  C   UNL     1       0.951   3.897  20.455  0.00  0.00    +0.000 A 
ATOM      4  N   UNL     1       1.362   3.123  19.451  0.00  0.00    +0.000 NA
ATOM      5  C   UNL     1       2.290   3.723  18.688  0.00  0.00    +0.000 A 
ATOM      6  S   UNL     1       2.958   2.896  17.356  0.00  0.00    +0.000 S 
ATOM      7  C   UNL     1       3.984   4.196  16.988  0.00  0.00    +0.000 A 
ATOM      8  C   UNL     1       3.803   5.278  17.832  0.00  0.00    +0.000 A 
ATOM      9  C   UNL     1       2.805   5.003  18.852  0.00  0.00    +0.000 A 
ATOM     10  C   UNL     1       4.636   6.521  17.681  0.00  0.00    +0.000 C 
ATOM     11  C   UNL     1       5.382   6.577  16.340  0.00  0.00    +0.000 C 
ATOM     12  C   UNL     1       6.016   5.230  15.984  0.00  0.00    +0.000 C 
ATOM     13  C   UNL     1       4.951   4.132  15.845  0.00  0.00    +0.000 C 
ENDROOT
BRANCH   1  14
ATOM     14  N   UNL     1       2.637   7.073  20.205  0.00  0.00    +0.000 N 
ATOM     15  H   UNL     1       2.858   7.233  21.187  0.00  0.00    +0.000 HD
BRANCH  14  18
ATOM     16  O   UNL     1       1.381   8.699  21.913  0.00  0.00    +0.000 OA
ATOM     17  C   UNL     1       1.140   8.831  20.714  0.00  0.00    +0.000 C 
ATOM     18  N   UNL     1       1.707   8.021  19.749  0.00  0.00    +0.000 N 
ATOM     19  H   UNL     1       1.558   8.116  18.745  0.00  0.00    +0.000 HD
BRANCH  17  20
ATOM     20  C   UNL     1       0.198   9.874  20.236  0.00  0.00    +0.000 A 
ATOM     21  C   UNL     1       0.023  10.043  18.866  0.00  0.00    +0.000 A 
ATOM     22  N   UNL     1      -0.785  11.002  18.348  0.00  0.00    +0.000 NA
ATOM     23  C   UNL     1      -1.404  11.786  19.258  0.00  0.00    +0.000 A 
ATOM     24  C   UNL     1      -1.235  11.613  20.626  0.00  0.00    +0.000 A 
ATOM     25  N   UNL     1      -0.438  10.652  21.155  0.00  0.00    +0.000 NA
ENDBRANCH  17  20
ENDBRANCH  14  18
ENDBRANCH   1  14
TORSDOF 3
ENDMDL
MODEL 6
REMARK VINA RESULT:      -7.6      1.378      1.760
REMARK  Name = 
REMARK  3 active torsions:
REMARK  status: ('A' for Active; 'I' for Inactive)
REMARK    1  A    between atoms: C_2  and  C_18
REMARK    2  A    between atoms: N_3  and  N_4
REMARK    3  A    between atoms: N_4  and  C_5
REMARK                            x       y       z     vdW  Elec       q    Type
REMARK                         _______ _______ _______ _____ _____    ______ ____
ROOT
ATOM      1  C   UNL     1       2.317   5.889  19.890  0.00  0.00    +0.000 A 
ATOM      2  N   UNL     1       1.394   5.340  20.724  0.00  0.00    +0.000 NA
ATOM      3  C   UNL     1       0.989   4.082  20.503  0.00  0.00    +0.000 A 
ATOM      4  N   UNL     1       1.390   3.257  19.537  0.00  0.00    +0.000 NA
ATOM      5  C   UNL     1       2.313   3.813  18.737  0.00  0.00    +0.000 A 
ATOM      6  S   UNL     1       2.968   2.918  17.444  0.00  0.00    +0.000 S 
ATOM      7  C   UNL     1       3.997   4.194  17.003  0.00  0.00    +0.000 A 
ATOM      8  C   UNL     1       3.826   5.317  17.793  0.00  0.00    +0.000 A 
ATOM      9  C   UNL     1       2.834   5.098  18.832  0.00  0.00    +0.000 A 
ATOM     10  C   UNL     1       4.663   6.548  17.574  0.00  0.00    +0.000 C 
ATOM     11  C   UNL     1       5.398   6.533  16.226  0.00  0.00    +0.000 C 
ATOM     12  C   UNL     1       6.025   5.167  15.934  0.00  0.00    +0.000 C 
ATOM     13  C   UNL     1       4.955   4.069  15.858  0.00  0.00    +0.000 C 
ENDROOT
BRANCH   1  14
ATOM     14  N   UNL     1       2.685   7.234  20.081  0.00  0.00    +0.000 N 
ATOM     15  H   UNL     1       3.284   7.364  20.895  0.00  0.00    +0.000 HD
BRANCH  14  18
ATOM     16  O   UNL     1       2.283   8.994  18.111  0.00  0.00    +0.000 OA
ATOM     17  C   UNL     1       1.470   8.972  19.035  0.00  0.00    +0.000 C 
ATOM     18  N   UNL     1       1.602   8.128  20.120  0.00  0.00    +0.000 N 
ATOM     19  H   UNL     1       0.938   8.057  20.890  0.00  0.00    +0.000 HD
BRANCH  17  20
ATOM     20  C   UNL     1       0.296   9.881  19.040  0.00  0.00    +0.000 A 
ATOM     21  C   UNL     1      -0.012  10.572  20.206  0.00  0.00    +0.000 A 
ATOM     22  N   UNL     1      -1.092  11.387  20.307  0.00  0.00    +0.000 NA
ATOM     23  C   UNL     1      -1.851  11.476  19.192  0.00  0.00    +0.000 A 
ATOM     24  C   UNL     1      -1.539  10.792  18.023  0.00  0.00    +0.000 A 
ATOM     25  N   UNL     1      -0.457   9.983  17.909  0.00  0.00    +0.000 NA
ENDBRANCH  17  20
ENDBRANCH  14  18
ENDBRANCH   1  14
TORSDOF 3
ENDMDL
MODEL 7
REMARK VINA RESULT:      -7.6      3.305      7.818
REMARK  Name = 
REMARK  3 active torsions:
REMARK  status: ('A' for Active; 'I' for Inactive)
REMARK    1  A    between atoms: C_2  and  C_18
REMARK    2  A    between atoms: N_3  and  N_4
REMARK    3  A    between atoms: N_4  and  C_5
REMARK                            x       y       z     vdW  Elec       q    Type
REMARK                         _______ _______ _______ _____ _____    ______ ____
ROOT
ATOM      1  C   UNL     1       1.948   7.909  19.757  0.00  0.00    +0.000 A 
ATOM      2  N   UNL     1       2.589   7.690  18.578  0.00  0.00    +0.000 NA
ATOM      3  C   UNL     1       2.424   8.569  17.579  0.00  0.00    +0.000 A 
ATOM      4  N   UNL     1       1.690   9.681  17.587  0.00  0.00    +0.000 NA
ATOM      5  C   UNL     1       1.081   9.885  18.766  0.00  0.00    +0.000 A 
ATOM      6  S   UNL     1       0.103  11.262  18.989  0.00  0.00    +0.000 S 
ATOM      7  C   UNL     1      -0.219  10.844  20.602  0.00  0.00    +0.000 A 
ATOM      8  C   UNL     1       0.367   9.646  20.973  0.00  0.00    +0.000 A 
ATOM      9  C   UNL     1       1.150   9.073  19.892  0.00  0.00    +0.000 A 
ATOM     10  C   UNL     1       0.216   9.116  22.373  0.00  0.00    +0.000 C 
ATOM     11  C   UNL     1      -0.899   9.821  23.158  0.00  0.00    +0.000 C 
ATOM     12  C   UNL     1      -0.867  11.339  22.956  0.00  0.00    +0.000 C 
ATOM     13  C   UNL     1      -1.073  11.709  21.480  0.00  0.00    +0.000 C 
ENDROOT
BRANCH   1  14
ATOM     14  N   UNL     1       2.064   6.946  20.777  0.00  0.00    +0.000 N 
ATOM     15  H   UNL     1       2.445   7.333  21.638  0.00  0.00    +0.000 HD
BRANCH  14  18
ATOM     16  O   UNL     1       0.805   4.611  20.452  0.00  0.00    +0.000 OA
ATOM     17  C   UNL     1       2.015   4.646  20.231  0.00  0.00    +0.000 C 
ATOM     18  N   UNL     1       2.769   5.791  20.402  0.00  0.00    +0.000 N 
ATOM     19  H   UNL     1       3.765   5.870  20.202  0.00  0.00    +0.000 HD
BRANCH  17  20
ATOM     20  C   UNL     1       2.743   3.433  19.780  0.00  0.00    +0.000 A 
ATOM     21  C   UNL     1       3.890   3.046  20.463  0.00  0.00    +0.000 A 
ATOM     22  N   UNL     1       4.637   1.977  20.088  0.00  0.00    +0.000 NA
ATOM     23  C   UNL     1       4.187   1.317  18.998  0.00  0.00    +0.000 A 
ATOM     24  C   UNL     1       3.037   1.698  18.318  0.00  0.00    +0.000 A 
ATOM     25  N   UNL     1       2.279   2.759  18.691  0.00  0.00    +0.000 NA
ENDBRANCH  17  20
ENDBRANCH  14  18
ENDBRANCH   1  14
TORSDOF 3
ENDMDL
MODEL 8
REMARK VINA RESULT:      -7.5      1.389      1.928
REMARK  Name = 
REMARK  3 active torsions:
REMARK  status: ('A' for Active; 'I' for Inactive)
REMARK    1  A    between atoms: C_2  and  C_18
REMARK    2  A    between atoms: N_3  and  N_4
REMARK    3  A    between atoms: N_4  and  C_5
REMARK                            x       y       z     vdW  Elec       q    Type
REMARK                         _______ _______ _______ _____ _____    ______ ____
ROOT
ATOM      1  C   UNL     1       2.307   6.004  19.810  0.00  0.00    +0.000 A 
ATOM      2  N   UNL     1       1.418   5.471  20.689  0.00  0.00    +0.000 NA
ATOM      3  C   UNL     1       1.051   4.190  20.541  0.00  0.00    +0.000 A 
ATOM      4  N   UNL     1       1.461   3.329  19.611  0.00  0.00    +0.000 NA
ATOM      5  C   UNL     1       2.351   3.872  18.766  0.00  0.00    +0.000 A 
ATOM      6  S   UNL     1       3.011   2.931  17.508  0.00  0.00    +0.000 S 
ATOM      7  C   UNL     1       3.988   4.214  16.981  0.00  0.00    +0.000 A 
ATOM      8  C   UNL     1       3.795   5.372  17.715  0.00  0.00    +0.000 A 
ATOM      9  C   UNL     1       2.831   5.176  18.784  0.00  0.00    +0.000 A 
ATOM     10  C   UNL     1       4.587   6.615  17.416  0.00  0.00    +0.000 C 
ATOM     11  C   UNL     1       5.298   6.553  16.056  0.00  0.00    +0.000 C 
ATOM     12  C   UNL     1       5.963   5.195  15.822  0.00  0.00    +0.000 C 
ATOM     13  C   UNL     1       4.929   4.060  15.825  0.00  0.00    +0.000 C 
ENDROOT
BRANCH   1  14
ATOM     14  N   UNL     1       2.634   7.369  19.923  0.00  0.00    +0.000 N 
ATOM     15  H   UNL     1       3.304   7.549  20.669  0.00  0.00    +0.000 HD
BRANCH  14  18
ATOM     16  O   UNL     1       2.162   9.279  18.116  0.00  0.00    +0.000 OA
ATOM     17  C   UNL     1       1.356   9.150  19.037  0.00  0.00    +0.000 C 
ATOM     18  N   UNL     1       1.523   8.219  20.044  0.00  0.00    +0.000 N 
ATOM     19  H   UNL     1       0.866   8.059  20.807  0.00  0.00    +0.000 HD
BRANCH  17  20
ATOM     20  C   UNL     1       0.154  10.016  19.125  0.00  0.00    +0.000 A 
ATOM     21  C   UNL     1      -0.683  10.117  18.019  0.00  0.00    +0.000 A 
ATOM     22  N   UNL     1      -1.777  10.920  18.003  0.00  0.00    +0.000 NA
ATOM     23  C   UNL     1      -1.991  11.620  19.138  0.00  0.00    +0.000 A 
ATOM     24  C   UNL     1      -1.161  11.514  20.247  0.00  0.00    +0.000 A 
ATOM     25  N   UNL     1      -0.071  10.707  20.277  0.00  0.00    +0.000 NA
ENDBRANCH  17  20
ENDBRANCH  14  18
ENDBRANCH   1  14
TORSDOF 3
ENDMDL
MODEL 9
REMARK VINA RESULT:      -7.5      3.308      7.895
REMARK  Name = 
REMARK  3 active torsions:
REMARK  status: ('A' for Active; 'I' for Inactive)
REMARK    1  A    between atoms: C_2  and  C_18
REMARK    2  A    between atoms: N_3  and  N_4
REMARK    3  A    between atoms: N_4  and  C_5
REMARK                            x       y       z     vdW  Elec       q    Type
REMARK                         _______ _______ _______ _____ _____    ______ ____
ROOT
ATOM      1  C   UNL     1       1.962   8.080  19.679  0.00  0.00    +0.000 A 
ATOM      2  N   UNL     1       2.592   7.922  18.484  0.00  0.00    +0.000 NA
ATOM      3  C   UNL     1       2.385   8.829  17.519  0.00  0.00    +0.000 A 
ATOM      4  N   UNL     1       1.618   9.916  17.575  0.00  0.00    +0.000 NA
ATOM      5  C   UNL     1       1.021  10.061  18.769  0.00  0.00    +0.000 A 
ATOM      6  S   UNL     1       0.004  11.398  19.054  0.00  0.00    +0.000 S 
ATOM      7  C   UNL     1      -0.281  10.916  20.656  0.00  0.00    +0.000 A 
ATOM      8  C   UNL     1       0.347   9.725  20.977  0.00  0.00    +0.000 A 
ATOM      9  C   UNL     1       1.131   9.214  19.865  0.00  0.00    +0.000 A 
ATOM     10  C   UNL     1       0.234   9.142  22.359  0.00  0.00    +0.000 C 
ATOM     11  C   UNL     1      -0.891   9.785  23.184  0.00  0.00    +0.000 C 
ATOM     12  C   UNL     1      -0.908  11.309  23.034  0.00  0.00    +0.000 C 
ATOM     13  C   UNL     1      -1.147  11.722  21.575  0.00  0.00    +0.000 C 
ENDROOT
BRANCH   1  14
ATOM     14  N   UNL     1       2.123   7.087  20.663  0.00  0.00    +0.000 N 
ATOM     15  H   UNL     1       2.561   7.444  21.510  0.00  0.00    +0.000 HD
BRANCH  14  18
ATOM     16  O   UNL     1       0.841   4.750  20.476  0.00  0.00    +0.000 OA
ATOM     17  C   UNL     1       2.020   4.786  20.126  0.00  0.00    +0.000 C 
ATOM     18  N   UNL     1       2.785   5.933  20.215  0.00  0.00    +0.000 N 
ATOM     19  H   UNL     1       3.754   6.014  19.909  0.00  0.00    +0.000 HD
BRANCH  17  20
ATOM     20  C   UNL     1       2.697   3.574  19.599  0.00  0.00    +0.000 A 
ATOM     21  C   UNL     1       2.273   3.043  18.386  0.00  0.00    +0.000 A 
ATOM     22  N   UNL     1       2.809   1.914  17.858  0.00  0.00    +0.000 NA
ATOM     23  C   UNL     1       3.781   1.339  18.599  0.00  0.00    +0.000 A 
ATOM     24  C   UNL     1       4.210   1.873  19.808  0.00  0.00    +0.000 A 
ATOM     25  N   UNL     1       3.689   3.006  20.339  0.00  0.00    +0.000 NA
ENDBRANCH  17  20
ENDBRANCH  14  18
ENDBRANCH   1  14
TORSDOF 3
ENDMDL
