MODEL 1
REMARK VINA RESULT:      -6.8      0.000      0.000
REMARK  Name = 
REMARK  0 active torsions:
REMARK  status: ('A' for Active; 'I' for Inactive)
REMARK                            x       y       z     vdW  Elec       q    Type
REMARK                         _______ _______ _______ _____ _____    ______ ____
ROOT
ATOM      1 CL   UNL     1      -5.498  15.175  19.813  0.00  0.00    +0.000 Cl
ATOM      2  C   UNL     1      -5.655  14.630  21.419  0.00  0.00    +0.000 A 
ATOM      3  C   UNL     1      -6.609  15.098  22.295  0.00  0.00    +0.000 A 
ATOM      4  N   UNL     1      -6.366  14.529  23.513  0.00  0.00    +0.000 N 
ATOM      5  C   UNL     1      -5.295  13.684  23.421  0.00  0.00    +0.000 A 
ATOM      6  N   UNL     1      -4.801  13.004  24.462  0.00  0.00    +0.000 NA
ATOM      7  C   UNL     1      -3.743  12.266  24.105  0.00  0.00    +0.000 A 
ATOM      8  N   UNL     1      -3.203  12.142  22.882  0.00  0.00    +0.000 NA
ATOM      9  C   UNL     1      -3.768  12.796  21.826  0.00  0.00    +0.000 A 
ATOM     10  N   UNL     1      -3.260  12.569  20.550  0.00  0.00    +0.000 N 
ATOM     11  C   UNL     1      -1.860  12.147  20.400  0.00  0.00    +0.000 C 
ATOM     12  C   UNL     1      -1.613  11.827  18.888  0.00  0.00    +0.000 C 
ATOM     13  C   UNL     1      -0.873  10.483  18.733  0.00  0.00    +0.000 C 
ATOM     14  C   UNL     1       0.579  10.594  19.198  0.00  0.00    +0.000 C 
ATOM     15  N   UNL     1       1.296  11.640  18.470  0.00  0.00    +0.000 NA
ATOM     16  C   UNL     1       0.655  12.946  18.624  0.00  0.00    +0.000 C 
ATOM     17  C   UNL     1      -0.809  12.930  18.176  0.00  0.00    +0.000 C 
ATOM     18  C   UNL     1      -3.035  11.752  18.380  0.00  0.00    +0.000 A 
ATOM     19  C   UNL     1      -3.497  11.403  17.115  0.00  0.00    +0.000 A 
ATOM     20  C   UNL     1      -4.875  11.383  16.888  0.00  0.00    +0.000 A 
ATOM     21  C   UNL     1      -5.769  11.654  17.930  0.00  0.00    +0.000 A 
ATOM     22  C   UNL     1      -5.291  11.986  19.197  0.00  0.00    +0.000 A 
ATOM     23  C   UNL     1      -3.925  12.104  19.399  0.00  0.00    +0.000 A 
ATOM     24  C   UNL     1      -4.848  13.669  22.107  0.00  0.00    +0.000 A 
ATOM     25  H   UNL     1      -6.869  14.706  24.370  0.00  0.00    +0.000 HD
ATOM     26  H   UNL     1       1.328  11.397  17.479  0.00  0.00    +0.000 HD
ENDROOT
TORSDOF 0
ENDMDL
MODEL 2
REMARK VINA RESULT:      -6.7     10.367     14.350
REMARK  Name = 
REMARK  0 active torsions:
REMARK  status: ('A' for Active; 'I' for Inactive)
REMARK                            x       y       z     vdW  Elec       q    Type
REMARK                         _______ _______ _______ _____ _____    ______ ____
ROOT
ATOM      1 CL   UNL     1       9.310  17.140  18.953  0.00  0.00    +0.000 Cl
ATOM      2  C   UNL     1      10.093  15.933  18.041  0.00  0.00    +0.000 A 
ATOM      3  C   UNL     1      10.717  16.169  16.836  0.00  0.00    +0.000 A 
ATOM      4  N   UNL     1      11.126  14.964  16.340  0.00  0.00    +0.000 N 
ATOM      5  C   UNL     1      10.803  13.970  17.222  0.00  0.00    +0.000 A 
ATOM      6  N   UNL     1      11.053  12.674  16.995  0.00  0.00    +0.000 NA
ATOM      7  C   UNL     1      10.621  11.910  18.006  0.00  0.00    +0.000 A 
ATOM      8  N   UNL     1      10.032  12.310  19.145  0.00  0.00    +0.000 NA
ATOM      9  C   UNL     1       9.850  13.643  19.378  0.00  0.00    +0.000 A 
ATOM     10  N   UNL     1       9.338  14.042  20.610  0.00  0.00    +0.000 N 
ATOM     11  C   UNL     1       8.493  13.111  21.370  0.00  0.00    +0.000 C 
ATOM     12  C   UNL     1       8.190  13.763  22.761  0.00  0.00    +0.000 C 
ATOM     13  C   UNL     1       8.412  12.744  23.897  0.00  0.00    +0.000 C 
ATOM     14  C   UNL     1       7.328  11.666  23.893  0.00  0.00    +0.000 C 
ATOM     15  N   UNL     1       5.991  12.250  24.006  0.00  0.00    +0.000 NA
ATOM     16  C   UNL     1       5.717  13.193  22.921  0.00  0.00    +0.000 C 
ATOM     17  C   UNL     1       6.756  14.316  22.852  0.00  0.00    +0.000 C 
ATOM     18  C   UNL     1       9.220  14.869  22.784  0.00  0.00    +0.000 A 
ATOM     19  C   UNL     1       9.528  15.760  23.807  0.00  0.00    +0.000 A 
ATOM     20  C   UNL     1      10.548  16.691  23.600  0.00  0.00    +0.000 A 
ATOM     21  C   UNL     1      11.280  16.686  22.407  0.00  0.00    +0.000 A 
ATOM     22  C   UNL     1      10.972  15.775  21.397  0.00  0.00    +0.000 A 
ATOM     23  C   UNL     1       9.896  14.918  21.561  0.00  0.00    +0.000 A 
ATOM     24  C   UNL     1      10.201  14.537  18.337  0.00  0.00    +0.000 A 
ATOM     25  H   UNL     1      11.579  14.801  15.453  0.00  0.00    +0.000 HD
ATOM     26  H   UNL     1       5.912  12.736  24.900  0.00  0.00    +0.000 HD
ENDROOT
TORSDOF 0
ENDMDL
MODEL 3
REMARK VINA RESULT:      -6.5      3.582      5.574
REMARK  Name = 
REMARK  0 active torsions:
REMARK  status: ('A' for Active; 'I' for Inactive)
REMARK                            x       y       z     vdW  Elec       q    Type
REMARK                         _______ _______ _______ _____ _____    ______ ____
ROOT
ATOM      1 CL   UNL     1      -3.412  12.291  20.212  0.00  0.00    +0.000 Cl
ATOM      2  C   UNL     1      -4.072  12.025  18.664  0.00  0.00    +0.000 A 
ATOM      3  C   UNL     1      -5.318  12.468  18.278  0.00  0.00    +0.000 A 
ATOM      4  N   UNL     1      -5.561  11.978  17.026  0.00  0.00    +0.000 N 
ATOM      5  C   UNL     1      -4.480  11.260  16.596  0.00  0.00    +0.000 A 
ATOM      6  N   UNL     1      -4.435  10.632  15.414  0.00  0.00    +0.000 NA
ATOM      7  C   UNL     1      -3.274   9.988  15.247  0.00  0.00    +0.000 A 
ATOM      8  N   UNL     1      -2.227   9.950  16.088  0.00  0.00    +0.000 NA
ATOM      9  C   UNL     1      -2.275  10.653  17.257  0.00  0.00    +0.000 A 
ATOM     10  N   UNL     1      -1.141  10.687  18.063  0.00  0.00    +0.000 N 
ATOM     11  C   UNL     1      -0.176   9.582  17.990  0.00  0.00    +0.000 C 
ATOM     12  C   UNL     1       1.054   9.958  18.883  0.00  0.00    +0.000 C 
ATOM     13  C   UNL     1       2.372   9.688  18.129  0.00  0.00    +0.000 C 
ATOM     14  C   UNL     1       2.629   8.188  17.982  0.00  0.00    +0.000 C 
ATOM     15  N   UNL     1       2.656   7.518  19.282  0.00  0.00    +0.000 NA
ATOM     16  C   UNL     1       1.406   7.710  20.018  0.00  0.00    +0.000 C 
ATOM     17  C   UNL     1       1.070   9.190  20.217  0.00  0.00    +0.000 C 
ATOM     18  C   UNL     1       0.813  11.436  19.088  0.00  0.00    +0.000 A 
ATOM     19  C   UNL     1       1.615  12.375  19.727  0.00  0.00    +0.000 A 
ATOM     20  C   UNL     1       1.185  13.703  19.771  0.00  0.00    +0.000 A 
ATOM     21  C   UNL     1      -0.001  14.086  19.135  0.00  0.00    +0.000 A 
ATOM     22  C   UNL     1      -0.787  13.135  18.483  0.00  0.00    +0.000 A 
ATOM     23  C   UNL     1      -0.413  11.802  18.524  0.00  0.00    +0.000 A 
ATOM     24  C   UNL     1      -3.492  11.308  17.570  0.00  0.00    +0.000 A 
ATOM     25  H   UNL     1      -6.407  12.095  16.489  0.00  0.00    +0.000 HD
ATOM     26  H   UNL     1       3.430   7.891  19.834  0.00  0.00    +0.000 HD
ENDROOT
TORSDOF 0
ENDMDL
MODEL 4
REMARK VINA RESULT:      -6.5      2.612      4.819
REMARK  Name = 
REMARK  0 active torsions:
REMARK  status: ('A' for Active; 'I' for Inactive)
REMARK                            x       y       z     vdW  Elec       q    Type
REMARK                         _______ _______ _______ _____ _____    ______ ____
ROOT
ATOM      1 CL   UNL     1      -3.066  12.847  21.591  0.00  0.00    +0.000 Cl
ATOM      2  C   UNL     1      -4.070  12.729  20.219  0.00  0.00    +0.000 A 
ATOM      3  C   UNL     1      -5.341  13.255  20.155  0.00  0.00    +0.000 A 
ATOM      4  N   UNL     1      -5.886  12.873  18.962  0.00  0.00    +0.000 N 
ATOM      5  C   UNL     1      -4.974  12.141  18.253  0.00  0.00    +0.000 A 
ATOM      6  N   UNL     1      -5.232  11.603  17.055  0.00  0.00    +0.000 NA
ATOM      7  C   UNL     1      -4.179  10.922  16.589  0.00  0.00    +0.000 A 
ATOM      8  N   UNL     1      -2.975  10.773  17.166  0.00  0.00    +0.000 NA
ATOM      9  C   UNL     1      -2.719  11.387  18.358  0.00  0.00    +0.000 A 
ATOM     10  N   UNL     1      -1.433  11.309  18.886  0.00  0.00    +0.000 N 
ATOM     11  C   UNL     1      -0.578  10.170  18.527  0.00  0.00    +0.000 C 
ATOM     12  C   UNL     1       0.841  10.422  19.139  0.00  0.00    +0.000 C 
ATOM     13  C   UNL     1       1.939  10.150  18.091  0.00  0.00    +0.000 C 
ATOM     14  C   UNL     1       2.064   8.656  17.794  0.00  0.00    +0.000 C 
ATOM     15  N   UNL     1       2.340   7.889  19.009  0.00  0.00    +0.000 NA
ATOM     16  C   UNL     1       1.299   8.080  20.020  0.00  0.00    +0.000 C 
ATOM     17  C   UNL     1       1.106   9.555  20.383  0.00  0.00    +0.000 C 
ATOM     18  C   UNL     1       0.742  11.889  19.487  0.00  0.00    +0.000 A 
ATOM     19  C   UNL     1       1.722  12.741  19.986  0.00  0.00    +0.000 A 
ATOM     20  C   UNL     1       1.395  14.080  20.210  0.00  0.00    +0.000 A 
ATOM     21  C   UNL     1       0.122  14.562  19.885  0.00  0.00    +0.000 A 
ATOM     22  C   UNL     1      -0.846  13.700  19.369  0.00  0.00    +0.000 A 
ATOM     23  C   UNL     1      -0.555  12.352  19.240  0.00  0.00    +0.000 A 
ATOM     24  C   UNL     1      -3.793  12.071  18.979  0.00  0.00    +0.000 A 
ATOM     25  H   UNL     1      -6.822  13.068  18.639  0.00  0.00    +0.000 HD
ATOM     26  H   UNL     1       3.238   8.184  19.394  0.00  0.00    +0.000 HD
ENDROOT
TORSDOF 0
ENDMDL
MODEL 5
REMARK VINA RESULT:      -6.4      3.437      6.950
REMARK  Name = 
REMARK  0 active torsions:
REMARK  status: ('A' for Active; 'I' for Inactive)
REMARK                            x       y       z     vdW  Elec       q    Type
REMARK                         _______ _______ _______ _____ _____    ______ ____
ROOT
ATOM      1 CL   UNL     1      -0.257  12.834  18.741  0.00  0.00    +0.000 Cl
ATOM      2  C   UNL     1       0.244  11.370  19.454  0.00  0.00    +0.000 A 
ATOM      3  C   UNL     1       0.807  10.329  18.749  0.00  0.00    +0.000 A 
ATOM      4  N   UNL     1       0.973   9.286  19.616  0.00  0.00    +0.000 N 
ATOM      5  C   UNL     1       0.557   9.655  20.865  0.00  0.00    +0.000 A 
ATOM      6  N   UNL     1       0.571   8.830  21.919  0.00  0.00    +0.000 NA
ATOM      7  C   UNL     1       0.095   9.433  23.016  0.00  0.00    +0.000 A 
ATOM      8  N   UNL     1      -0.332  10.701  23.137  0.00  0.00    +0.000 NA
ATOM      9  C   UNL     1      -0.273  11.538  22.061  0.00  0.00    +0.000 A 
ATOM     10  N   UNL     1      -0.618  12.875  22.236  0.00  0.00    +0.000 N 
ATOM     11  C   UNL     1      -1.546  13.241  23.314  0.00  0.00    +0.000 C 
ATOM     12  C   UNL     1      -1.632  14.804  23.365  0.00  0.00    +0.000 C 
ATOM     13  C   UNL     1      -1.498  15.306  24.817  0.00  0.00    +0.000 C 
ATOM     14  C   UNL     1      -2.742  14.968  25.637  0.00  0.00    +0.000 C 
ATOM     15  N   UNL     1      -3.952  15.524  25.031  0.00  0.00    +0.000 NA
ATOM     16  C   UNL     1      -4.146  15.040  23.664  0.00  0.00    +0.000 C 
ATOM     17  C   UNL     1      -2.944  15.340  22.765  0.00  0.00    +0.000 C 
ATOM     18  C   UNL     1      -0.434  15.180  22.523  0.00  0.00    +0.000 A 
ATOM     19  C   UNL     1       0.092  16.440  22.261  0.00  0.00    +0.000 A 
ATOM     20  C   UNL     1       1.234  16.535  21.462  0.00  0.00    +0.000 A 
ATOM     21  C   UNL     1       1.864  15.380  20.986  0.00  0.00    +0.000 A 
ATOM     22  C   UNL     1       1.334  14.121  21.272  0.00  0.00    +0.000 A 
ATOM     23  C   UNL     1       0.146  14.030  21.979  0.00  0.00    +0.000 A 
ATOM     24  C   UNL     1       0.142  10.979  20.827  0.00  0.00    +0.000 A 
ATOM     25  H   UNL     1       1.325   8.368  19.390  0.00  0.00    +0.000 HD
ATOM     26  H   UNL     1      -3.882  16.543  25.019  0.00  0.00    +0.000 HD
ENDROOT
TORSDOF 0
ENDMDL
MODEL 6
REMARK VINA RESULT:      -6.4      2.204      5.937
REMARK  Name = 
REMARK  0 active torsions:
REMARK  status: ('A' for Active; 'I' for Inactive)
REMARK                            x       y       z     vdW  Elec       q    Type
REMARK                         _______ _______ _______ _____ _____    ______ ____
ROOT
ATOM      1 CL   UNL     1      -1.332  15.159  22.019  0.00  0.00    +0.000 Cl
ATOM      2  C   UNL     1      -0.287  13.994  21.346  0.00  0.00    +0.000 A 
ATOM      3  C   UNL     1       1.081  14.012  21.502  0.00  0.00    +0.000 A 
ATOM      4  N   UNL     1       1.598  13.006  20.737  0.00  0.00    +0.000 N 
ATOM      5  C   UNL     1       0.582  12.327  20.122  0.00  0.00    +0.000 A 
ATOM      6  N   UNL     1       0.782  11.304  19.283  0.00  0.00    +0.000 NA
ATOM      7  C   UNL     1      -0.376  10.831  18.806  0.00  0.00    +0.000 A 
ATOM      8  N   UNL     1      -1.618  11.248  19.102  0.00  0.00    +0.000 NA
ATOM      9  C   UNL     1      -1.794  12.250  20.011  0.00  0.00    +0.000 A 
ATOM     10  N   UNL     1      -3.091  12.594  20.384  0.00  0.00    +0.000 N 
ATOM     11  C   UNL     1      -4.196  12.341  19.450  0.00  0.00    +0.000 C 
ATOM     12  C   UNL     1      -5.535  12.684  20.186  0.00  0.00    +0.000 C 
ATOM     13  C   UNL     1      -6.571  11.561  19.975  0.00  0.00    +0.000 C 
ATOM     14  C   UNL     1      -7.083  11.542  18.535  0.00  0.00    +0.000 C 
ATOM     15  N   UNL     1      -7.665  12.829  18.156  0.00  0.00    +0.000 NA
ATOM     16  C   UNL     1      -6.703  13.923  18.297  0.00  0.00    +0.000 C 
ATOM     17  C   UNL     1      -6.138  14.020  19.716  0.00  0.00    +0.000 C 
ATOM     18  C   UNL     1      -5.060  12.754  21.618  0.00  0.00    +0.000 A 
ATOM     19  C   UNL     1      -5.802  12.935  22.781  0.00  0.00    +0.000 A 
ATOM     20  C   UNL     1      -5.134  12.943  24.007  0.00  0.00    +0.000 A 
ATOM     21  C   UNL     1      -3.755  12.717  24.064  0.00  0.00    +0.000 A 
ATOM     22  C   UNL     1      -3.026  12.520  22.891  0.00  0.00    +0.000 A 
ATOM     23  C   UNL     1      -3.670  12.612  21.668  0.00  0.00    +0.000 A 
ATOM     24  C   UNL     1      -0.629  12.876  20.519  0.00  0.00    +0.000 A 
ATOM     25  H   UNL     1       2.575  12.789  20.609  0.00  0.00    +0.000 HD
ATOM     26  H   UNL     1      -8.475  13.018  18.748  0.00  0.00    +0.000 HD
ENDROOT
TORSDOF 0
ENDMDL
MODEL 7
REMARK VINA RESULT:      -6.3      2.021      6.054
REMARK  Name = 
REMARK  0 active torsions:
REMARK  status: ('A' for Active; 'I' for Inactive)
REMARK                            x       y       z     vdW  Elec       q    Type
REMARK                         _______ _______ _______ _____ _____    ______ ____
ROOT
ATOM      1 CL   UNL     1      -4.768   9.752  18.102  0.00  0.00    +0.000 Cl
ATOM      2  C   UNL     1      -3.184  10.369  17.991  0.00  0.00    +0.000 A 
ATOM      3  C   UNL     1      -2.217   9.847  17.160  0.00  0.00    +0.000 A 
ATOM      4  N   UNL     1      -1.050  10.509  17.417  0.00  0.00    +0.000 N 
ATOM      5  C   UNL     1      -1.264  11.463  18.373  0.00  0.00    +0.000 A 
ATOM      6  N   UNL     1      -0.297  12.254  18.854  0.00  0.00    +0.000 NA
ATOM      7  C   UNL     1      -0.767  13.085  19.791  0.00  0.00    +0.000 A 
ATOM      8  N   UNL     1      -2.032  13.199  20.229  0.00  0.00    +0.000 NA
ATOM      9  C   UNL     1      -3.010  12.425  19.674  0.00  0.00    +0.000 A 
ATOM     10  N   UNL     1      -4.330  12.634  20.065  0.00  0.00    +0.000 N 
ATOM     11  C   UNL     1      -4.603  13.201  21.392  0.00  0.00    +0.000 C 
ATOM     12  C   UNL     1      -6.144  13.460  21.496  0.00  0.00    +0.000 C 
ATOM     13  C   UNL     1      -6.419  14.867  22.062  0.00  0.00    +0.000 C 
ATOM     14  C   UNL     1      -6.059  14.949  23.545  0.00  0.00    +0.000 C 
ATOM     15  N   UNL     1      -6.785  13.950  24.329  0.00  0.00    +0.000 NA
ATOM     16  C   UNL     1      -6.519  12.591  23.857  0.00  0.00    +0.000 C 
ATOM     17  C   UNL     1      -6.857  12.415  22.374  0.00  0.00    +0.000 C 
ATOM     18  C   UNL     1      -6.548  13.344  20.045  0.00  0.00    +0.000 A 
ATOM     19  C   UNL     1      -7.791  13.565  19.460  0.00  0.00    +0.000 A 
ATOM     20  C   UNL     1      -7.916  13.415  18.077  0.00  0.00    +0.000 A 
ATOM     21  C   UNL     1      -6.799  13.105  17.294  0.00  0.00    +0.000 A 
ATOM     22  C   UNL     1      -5.555  12.904  17.892  0.00  0.00    +0.000 A 
ATOM     23  C   UNL     1      -5.450  12.953  19.273  0.00  0.00    +0.000 A 
ATOM     24  C   UNL     1      -2.607  11.453  18.726  0.00  0.00    +0.000 A 
ATOM     25  H   UNL     1      -0.151  10.327  16.998  0.00  0.00    +0.000 HD
ATOM     26  H   UNL     1      -7.786  14.137  24.265  0.00  0.00    +0.000 HD
ENDROOT
TORSDOF 0
ENDMDL
MODEL 8
REMARK VINA RESULT:      -6.2      2.776      6.489
REMARK  Name = 
REMARK  0 active torsions:
REMARK  status: ('A' for Active; 'I' for Inactive)
REMARK                            x       y       z     vdW  Elec       q    Type
REMARK                         _______ _______ _______ _____ _____    ______ ____
ROOT
ATOM      1 CL   UNL     1      -1.153  11.460  17.963  0.00  0.00    +0.000 Cl
ATOM      2  C   UNL     1      -0.070  10.457  18.813  0.00  0.00    +0.000 A 
ATOM      3  C   UNL     1       0.789   9.569  18.204  0.00  0.00    +0.000 A 
ATOM      4  N   UNL     1       1.416   8.859  19.188  0.00  0.00    +0.000 N 
ATOM      5  C   UNL     1       0.996   9.300  20.412  0.00  0.00    +0.000 A 
ATOM      6  N   UNL     1       1.414   8.772  21.569  0.00  0.00    +0.000 NA
ATOM      7  C   UNL     1       0.836   9.372  22.616  0.00  0.00    +0.000 A 
ATOM      8  N   UNL     1      -0.034  10.396  22.600  0.00  0.00    +0.000 NA
ATOM      9  C   UNL     1      -0.392  10.957  21.409  0.00  0.00    +0.000 A 
ATOM     10  N   UNL     1      -1.209  12.084  21.421  0.00  0.00    +0.000 N 
ATOM     11  C   UNL     1      -2.113  12.303  22.558  0.00  0.00    +0.000 C 
ATOM     12  C   UNL     1      -2.789  13.703  22.373  0.00  0.00    +0.000 C 
ATOM     13  C   UNL     1      -2.738  14.506  23.688  0.00  0.00    +0.000 C 
ATOM     14  C   UNL     1      -3.683  13.917  24.735  0.00  0.00    +0.000 C 
ATOM     15  N   UNL     1      -5.060  13.860  24.243  0.00  0.00    +0.000 NA
ATOM     16  C   UNL     1      -5.166  13.069  23.017  0.00  0.00    +0.000 C 
ATOM     17  C   UNL     1      -4.252  13.592  21.906  0.00  0.00    +0.000 C 
ATOM     18  C   UNL     1      -1.903  14.305  21.307  0.00  0.00    +0.000 A 
ATOM     19  C   UNL     1      -1.926  15.588  20.770  0.00  0.00    +0.000 A 
ATOM     20  C   UNL     1      -0.980  15.923  19.799  0.00  0.00    +0.000 A 
ATOM     21  C   UNL     1       0.004  15.003  19.420  0.00  0.00    +0.000 A 
ATOM     22  C   UNL     1       0.025  13.726  19.980  0.00  0.00    +0.000 A 
ATOM     23  C   UNL     1      -0.972  13.358  20.869  0.00  0.00    +0.000 A 
ATOM     24  C   UNL     1       0.101  10.346  20.230  0.00  0.00    +0.000 A 
ATOM     25  H   UNL     1       2.074   8.105  19.059  0.00  0.00    +0.000 HD
ATOM     26  H   UNL     1      -5.388  14.809  24.058  0.00  0.00    +0.000 HD
ENDROOT
TORSDOF 0
ENDMDL
MODEL 9
REMARK VINA RESULT:      -6.2      3.328      4.275
REMARK  Name = 
REMARK  0 active torsions:
REMARK  status: ('A' for Active; 'I' for Inactive)
REMARK                            x       y       z     vdW  Elec       q    Type
REMARK                         _______ _______ _______ _____ _____    ______ ____
ROOT
ATOM      1 CL   UNL     1      -3.600  12.611  21.245  0.00  0.00    +0.000 Cl
ATOM      2  C   UNL     1      -3.617  13.256  22.822  0.00  0.00    +0.000 A 
ATOM      3  C   UNL     1      -4.719  13.226  23.648  0.00  0.00    +0.000 A 
ATOM      4  N   UNL     1      -4.408  13.931  24.776  0.00  0.00    +0.000 N 
ATOM      5  C   UNL     1      -3.119  14.381  24.697  0.00  0.00    +0.000 A 
ATOM      6  N   UNL     1      -2.540  15.129  25.645  0.00  0.00    +0.000 NA
ATOM      7  C   UNL     1      -1.284  15.449  25.313  0.00  0.00    +0.000 A 
ATOM      8  N   UNL     1      -0.606  15.086  24.212  0.00  0.00    +0.000 NA
ATOM      9  C   UNL     1      -1.200  14.269  23.294  0.00  0.00    +0.000 A 
ATOM     10  N   UNL     1      -0.445  13.816  22.215  0.00  0.00    +0.000 N 
ATOM     11  C   UNL     1       0.697  14.617  21.754  0.00  0.00    +0.000 C 
ATOM     12  C   UNL     1       1.438  13.801  20.641  0.00  0.00    +0.000 C 
ATOM     13  C   UNL     1       2.959  13.804  20.890  0.00  0.00    +0.000 C 
ATOM     14  C   UNL     1       3.562  15.183  20.622  0.00  0.00    +0.000 C 
ATOM     15  N   UNL     1       3.284  15.635  19.259  0.00  0.00    +0.000 NA
ATOM     16  C   UNL     1       1.846  15.691  18.989  0.00  0.00    +0.000 C 
ATOM     17  C   UNL     1       1.157  14.346  19.228  0.00  0.00    +0.000 C 
ATOM     18  C   UNL     1       0.833  12.431  20.846  0.00  0.00    +0.000 A 
ATOM     19  C   UNL     1       1.150  11.231  20.219  0.00  0.00    +0.000 A 
ATOM     20  C   UNL     1       0.460  10.077  20.597  0.00  0.00    +0.000 A 
ATOM     21  C   UNL     1      -0.488  10.122  21.625  0.00  0.00    +0.000 A 
ATOM     22  C   UNL     1      -0.783  11.331  22.256  0.00  0.00    +0.000 A 
ATOM     23  C   UNL     1      -0.173  12.494  21.815  0.00  0.00    +0.000 A 
ATOM     24  C   UNL     1      -2.559  13.933  23.509  0.00  0.00    +0.000 A 
ATOM     25  H   UNL     1      -5.023  14.124  25.553  0.00  0.00    +0.000 HD
ATOM     26  H   UNL     1       3.723  14.993  18.598  0.00  0.00    +0.000 HD
ENDROOT
TORSDOF 0
ENDMDL
