MODEL 1
REMARK VINA RESULT:      -6.6      0.000      0.000
REMARK  Name = 
REMARK  8 active torsions:
REMARK  status: ('A' for Active; 'I' for Inactive)
REMARK    1  A    between atoms: C_1  and  N_2
REMARK    2  A    between atoms: N_2  and  C_3
REMARK    3  A    between atoms: C_3  and  C_4
REMARK    4  A    between atoms: C_7  and  C_8
REMARK    5  A    between atoms: N_10  and  C_11
REMARK    6  A    between atoms: C_12  and  O_13
REMARK    7  A    between atoms: O_13  and  C_14
REMARK    8  A    between atoms: C_19  and  C_20
REMARK                            x       y       z     vdW  Elec       q    Type
REMARK                         _______ _______ _______ _____ _____    ______ ____
ROOT
ATOM      1  C   UNL     1      -0.547  13.473  22.369  0.00  0.00    +0.000 A 
ATOM      2  C   UNL     1      -1.493  14.445  22.779  0.00  0.00    +0.000 A 
ATOM      3  C   UNL     1      -2.685  14.039  23.391  0.00  0.00    +0.000 A 
ATOM      4  C   UNL     1      -2.945  12.685  23.581  0.00  0.00    +0.000 A 
ATOM      5 CL   UNL     1      -4.416  12.195  24.328  0.00  0.00    +0.000 Cl
ATOM      6  C   UNL     1      -2.041  11.726  23.147  0.00  0.00    +0.000 A 
ATOM      7  C   UNL     1      -0.841  12.106  22.524  0.00  0.00    +0.000 A 
ENDROOT
BRANCH   7   8
ATOM      8  C   UNL     1      -0.024  10.981  21.993  0.00  0.00    +0.000 C 
ATOM      9  O   UNL     1       0.547  10.293  22.836  0.00  0.00    +0.000 OA
ATOM     10  N   UNL     1       0.070  10.845  20.624  0.00  0.00    +0.000 N 
ATOM     11  C   UNL     1       0.757   9.790  19.998  0.00  0.00    +0.000 A 
ATOM     12  C   UNL     1       0.955   9.846  18.620  0.00  0.00    +0.000 A 
ATOM     13  C   UNL     1       1.659   8.810  17.991  0.00  0.00    +0.000 A 
ATOM     14  C   UNL     1       2.132   7.747  18.748  0.00  0.00    +0.000 A 
ATOM     15 CL   UNL     1       3.003   6.462  18.024  0.00  0.00    +0.000 Cl
ATOM     16  C   UNL     1       1.877   7.758  20.106  0.00  0.00    +0.000 A 
ATOM     17  N   UNL     1       1.199   8.749  20.729  0.00  0.00    +0.000 NA
ATOM     18  H   UNL     1      -0.274  11.594  20.039  0.00  0.00    +0.000 HD
ENDBRANCH   7   8
BRANCH   1  21
ATOM     19  C   UNL     1       0.654  14.099  20.337  0.00  0.00    +0.000 C 
ATOM     20  O   UNL     1      -0.339  13.872  19.649  0.00  0.00    +0.000 OA
ATOM     21  N   UNL     1       0.617  13.916  21.711  0.00  0.00    +0.000 N 
ATOM     22  H   UNL     1       1.347  14.332  22.283  0.00  0.00    +0.000 HD
BRANCH  19  26
ATOM     23  C   UNL     1       3.932  15.165  18.739  0.00  0.00    +0.000 A 
ATOM     24  C   UNL     1       3.725  16.317  19.482  0.00  0.00    +0.000 A 
ATOM     25  S   UNL     1       2.287  16.277  20.388  0.00  0.00    +0.000 S 
ATOM     26  C   UNL     1       1.868  14.715  19.806  0.00  0.00    +0.000 A 
ATOM     27  C   UNL     1       2.811  14.262  18.900  0.00  0.00    +0.000 A 
ATOM     28 CL   UNL     1       2.728  12.780  18.026  0.00  0.00    +0.000 Cl
BRANCH  23  29
ATOM     29  C   UNL     1       5.145  14.937  17.875  0.00  0.00    +0.000 C 
BRANCH  29  31
ATOM     30  C   UNL     1       7.494  15.435  18.045  0.00  0.00    +0.000 C 
ATOM     31  N   UNL     1       6.328  14.902  18.737  0.00  0.00    +0.000 NA
ATOM     32  H   UNL     1       6.160  15.463  19.571  0.00  0.00    +0.000 HD
ENDBRANCH  29  31
ENDBRANCH  23  29
ENDBRANCH  19  26
ENDBRANCH   1  21
BRANCH   2  33
ATOM     33  O   UNL     1      -1.189  15.755  22.490  0.00  0.00    +0.000 OA
ATOM     34  C   UNL     1      -1.746  16.757  23.336  0.00  0.00    +0.000 C 
ENDBRANCH   2  33
TORSDOF 6
ENDMDL
MODEL 2
REMARK VINA RESULT:      -6.6      1.305      1.334
REMARK  Name = 
REMARK  8 active torsions:
REMARK  status: ('A' for Active; 'I' for Inactive)
REMARK    1  A    between atoms: C_1  and  N_2
REMARK    2  A    between atoms: N_2  and  C_3
REMARK    3  A    between atoms: C_3  and  C_4
REMARK    4  A    between atoms: C_7  and  C_8
REMARK    5  A    between atoms: N_10  and  C_11
REMARK    6  A    between atoms: C_12  and  O_13
REMARK    7  A    between atoms: O_13  and  C_14
REMARK    8  A    between atoms: C_19  and  C_20
REMARK                            x       y       z     vdW  Elec       q    Type
REMARK                         _______ _______ _______ _____ _____    ______ ____
ROOT
ATOM      1  C   UNL     1      -1.406  13.647  22.010  0.00  0.00    +0.000 A 
ATOM      2  C   UNL     1      -2.445  14.517  22.421  0.00  0.00    +0.000 A 
ATOM      3  C   UNL     1      -3.434  14.054  23.298  0.00  0.00    +0.000 A 
ATOM      4  C   UNL     1      -3.403  12.739  23.751  0.00  0.00    +0.000 A 
ATOM      5 CL   UNL     1      -4.627  12.176  24.823  0.00  0.00    +0.000 Cl
ATOM      6  C   UNL     1      -2.410  11.869  23.321  0.00  0.00    +0.000 A 
ATOM      7  C   UNL     1      -1.411  12.307  22.438  0.00  0.00    +0.000 A 
ENDROOT
BRANCH   7   8
ATOM      8  C   UNL     1      -0.486  11.243  21.957  0.00  0.00    +0.000 C 
ATOM      9  O   UNL     1       0.117  10.627  22.833  0.00  0.00    +0.000 OA
ATOM     10  N   UNL     1      -0.343  11.083  20.596  0.00  0.00    +0.000 N 
ATOM     11  C   UNL     1       0.448  10.076  20.016  0.00  0.00    +0.000 A 
ATOM     12  C   UNL     1       0.679  10.115  18.643  0.00  0.00    +0.000 A 
ATOM     13  C   UNL     1       1.486   9.128  18.060  0.00  0.00    +0.000 A 
ATOM     14  C   UNL     1       2.027   8.128  18.857  0.00  0.00    +0.000 A 
ATOM     15 CL   UNL     1       3.025   6.906  18.189  0.00  0.00    +0.000 Cl
ATOM     16  C   UNL     1       1.735   8.151  20.207  0.00  0.00    +0.000 A 
ATOM     17  N   UNL     1       0.957   9.095  20.785  0.00  0.00    +0.000 NA
ATOM     18  H   UNL     1      -0.733  11.784  19.982  0.00  0.00    +0.000 HD
ENDBRANCH   7   8
BRANCH   1  21
ATOM     19  C   UNL     1       0.764  14.643  21.497  0.00  0.00    +0.000 C 
ATOM     20  O   UNL     1       1.054  14.691  22.691  0.00  0.00    +0.000 OA
ATOM     21  N   UNL     1      -0.458  14.132  21.088  0.00  0.00    +0.000 N 
ATOM     22  H   UNL     1      -0.583  13.876  20.112  0.00  0.00    +0.000 HD
BRANCH  19  26
ATOM     23  C   UNL     1       3.650  15.392  19.142  0.00  0.00    +0.000 A 
ATOM     24  C   UNL     1       2.632  15.803  18.297  0.00  0.00    +0.000 A 
ATOM     25  S   UNL     1       1.085  15.620  18.976  0.00  0.00    +0.000 S 
ATOM     26  C   UNL     1       1.713  14.960  20.433  0.00  0.00    +0.000 A 
ATOM     27  C   UNL     1       3.092  14.853  20.366  0.00  0.00    +0.000 A 
ATOM     28 CL   UNL     1       4.104  14.171  21.582  0.00  0.00    +0.000 Cl
BRANCH  23  29
ATOM     29  C   UNL     1       5.112  15.479  18.791  0.00  0.00    +0.000 C 
BRANCH  29  31
ATOM     30  C   UNL     1       6.791  14.239  17.591  0.00  0.00    +0.000 C 
ATOM     31  N   UNL     1       5.374  14.573  17.671  0.00  0.00    +0.000 NA
ATOM     32  H   UNL     1       4.845  13.712  17.798  0.00  0.00    +0.000 HD
ENDBRANCH  29  31
ENDBRANCH  23  29
ENDBRANCH  19  26
ENDBRANCH   1  21
BRANCH   2  33
ATOM     33  O   UNL     1      -2.440  15.779  21.872  0.00  0.00    +0.000 OA
ATOM     34  C   UNL     1      -2.136  16.868  22.738  0.00  0.00    +0.000 C 
ENDBRANCH   2  33
TORSDOF 6
ENDMDL
MODEL 3
REMARK VINA RESULT:      -6.5      1.274      1.372
REMARK  Name = 
REMARK  8 active torsions:
REMARK  status: ('A' for Active; 'I' for Inactive)
REMARK    1  A    between atoms: C_1  and  N_2
REMARK    2  A    between atoms: N_2  and  C_3
REMARK    3  A    between atoms: C_3  and  C_4
REMARK    4  A    between atoms: C_7  and  C_8
REMARK    5  A    between atoms: N_10  and  C_11
REMARK    6  A    between atoms: C_12  and  O_13
REMARK    7  A    between atoms: O_13  and  C_14
REMARK    8  A    between atoms: C_19  and  C_20
REMARK                            x       y       z     vdW  Elec       q    Type
REMARK                         _______ _______ _______ _____ _____    ______ ____
ROOT
ATOM      1  C   UNL     1      -1.422  13.779  22.306  0.00  0.00    +0.000 A 
ATOM      2  C   UNL     1      -2.462  14.629  22.755  0.00  0.00    +0.000 A 
ATOM      3  C   UNL     1      -3.499  14.106  23.537  0.00  0.00    +0.000 A 
ATOM      4  C   UNL     1      -3.513  12.752  23.859  0.00  0.00    +0.000 A 
ATOM      5 CL   UNL     1      -4.796  12.117  24.816  0.00  0.00    +0.000 Cl
ATOM      6  C   UNL     1      -2.519  11.906  23.390  0.00  0.00    +0.000 A 
ATOM      7  C   UNL     1      -1.472  12.404  22.598  0.00  0.00    +0.000 A 
ENDROOT
BRANCH   7   8
ATOM      8  C   UNL     1      -0.547  11.371  22.056  0.00  0.00    +0.000 C 
ATOM      9  O   UNL     1       0.118  10.762  22.890  0.00  0.00    +0.000 OA
ATOM     10  N   UNL     1      -0.473  11.229  20.687  0.00  0.00    +0.000 N 
ATOM     11  C   UNL     1       0.312  10.250  20.053  0.00  0.00    +0.000 A 
ATOM     12  C   UNL     1       0.468  10.310  18.670  0.00  0.00    +0.000 A 
ATOM     13  C   UNL     1       1.268   9.352  18.033  0.00  0.00    +0.000 A 
ATOM     14  C   UNL     1       1.877   8.359  18.788  0.00  0.00    +0.000 A 
ATOM     15 CL   UNL     1       2.869   7.171  18.053  0.00  0.00    +0.000 Cl
ATOM     16  C   UNL     1       1.657   8.358  20.152  0.00  0.00    +0.000 A 
ATOM     17  N   UNL     1       0.887   9.275  20.782  0.00  0.00    +0.000 NA
ATOM     18  H   UNL     1      -0.913  11.927  20.104  0.00  0.00    +0.000 HD
ENDBRANCH   7   8
BRANCH   1  21
ATOM     19  C   UNL     1      -0.535  14.321  20.096  0.00  0.00    +0.000 C 
ATOM     20  O   UNL     1      -1.517  13.822  19.551  0.00  0.00    +0.000 OA
ATOM     21  N   UNL     1      -0.424  14.330  21.478  0.00  0.00    +0.000 N 
ATOM     22  H   UNL     1       0.254  14.948  21.914  0.00  0.00    +0.000 HD
BRANCH  19  26
ATOM     23  C   UNL     1       2.499  15.846  18.392  0.00  0.00    +0.000 A 
ATOM     24  C   UNL     1       1.640  16.915  18.195  0.00  0.00    +0.000 A 
ATOM     25  S   UNL     1       0.083  16.646  18.820  0.00  0.00    +0.000 S 
ATOM     26  C   UNL     1       0.488  15.067  19.368  0.00  0.00    +0.000 A 
ATOM     27  C   UNL     1       1.794  14.754  19.032  0.00  0.00    +0.000 A 
ATOM     28 CL   UNL     1       2.569  13.244  19.326  0.00  0.00    +0.000 Cl
BRANCH  23  29
ATOM     29  C   UNL     1       3.942  15.845  17.959  0.00  0.00    +0.000 C 
BRANCH  29  31
ATOM     30  C   UNL     1       4.906  16.790  19.951  0.00  0.00    +0.000 C 
ATOM     31  N   UNL     1       4.603  17.013  18.543  0.00  0.00    +0.000 NA
ATOM     32  H   UNL     1       5.474  17.196  18.049  0.00  0.00    +0.000 HD
ENDBRANCH  29  31
ENDBRANCH  23  29
ENDBRANCH  19  26
ENDBRANCH   1  21
BRANCH   2  33
ATOM     33  O   UNL     1      -2.407  15.938  22.334  0.00  0.00    +0.000 OA
ATOM     34  C   UNL     1      -2.257  16.941  23.334  0.00  0.00    +0.000 C 
ENDBRANCH   2  33
TORSDOF 6
ENDMDL
MODEL 4
REMARK VINA RESULT:      -6.5      2.897      3.345
REMARK  Name = 
REMARK  8 active torsions:
REMARK  status: ('A' for Active; 'I' for Inactive)
REMARK    1  A    between atoms: C_1  and  N_2
REMARK    2  A    between atoms: N_2  and  C_3
REMARK    3  A    between atoms: C_3  and  C_4
REMARK    4  A    between atoms: C_7  and  C_8
REMARK    5  A    between atoms: N_10  and  C_11
REMARK    6  A    between atoms: C_12  and  O_13
REMARK    7  A    between atoms: O_13  and  C_14
REMARK    8  A    between atoms: C_19  and  C_20
REMARK                            x       y       z     vdW  Elec       q    Type
REMARK                         _______ _______ _______ _____ _____    ______ ____
ROOT
ATOM      1  C   UNL     1      -1.700  14.243  22.247  0.00  0.00    +0.000 A 
ATOM      2  C   UNL     1      -2.079  14.828  23.481  0.00  0.00    +0.000 A 
ATOM      3  C   UNL     1      -3.025  14.189  24.291  0.00  0.00    +0.000 A 
ATOM      4  C   UNL     1      -3.601  12.991  23.878  0.00  0.00    +0.000 A 
ATOM      5 CL   UNL     1      -4.768  12.217  24.879  0.00  0.00    +0.000 Cl
ATOM      6  C   UNL     1      -3.263  12.433  22.654  0.00  0.00    +0.000 A 
ATOM      7  C   UNL     1      -2.323  13.057  21.819  0.00  0.00    +0.000 A 
ENDROOT
BRANCH   7   8
ATOM      8  C   UNL     1      -2.149  12.423  20.483  0.00  0.00    +0.000 C 
ATOM      9  O   UNL     1      -1.007  12.062  20.210  0.00  0.00    +0.000 OA
ATOM     10  N   UNL     1      -3.251  12.351  19.658  0.00  0.00    +0.000 N 
ATOM     11  C   UNL     1      -3.234  11.722  18.401  0.00  0.00    +0.000 A 
ATOM     12  C   UNL     1      -4.340  11.867  17.566  0.00  0.00    +0.000 A 
ATOM     13  C   UNL     1      -4.323  11.263  16.301  0.00  0.00    +0.000 A 
ATOM     14  C   UNL     1      -3.213  10.524  15.913  0.00  0.00    +0.000 A 
ATOM     15 CL   UNL     1      -3.145   9.773  14.374  0.00  0.00    +0.000 Cl
ATOM     16  C   UNL     1      -2.166  10.413  16.806  0.00  0.00    +0.000 A 
ATOM     17  N   UNL     1      -2.168  10.989  18.031  0.00  0.00    +0.000 NA
ATOM     18  H   UNL     1      -4.081  12.867  19.913  0.00  0.00    +0.000 HD
ENDBRANCH   7   8
BRANCH   1  21
ATOM     19  C   UNL     1       0.578  14.689  21.489  0.00  0.00    +0.000 C 
ATOM     20  O   UNL     1       1.028  13.844  22.260  0.00  0.00    +0.000 OA
ATOM     21  N   UNL     1      -0.784  14.940  21.435  0.00  0.00    +0.000 N 
ATOM     22  H   UNL     1      -1.160  15.450  20.640  0.00  0.00    +0.000 HD
BRANCH  19  26
ATOM     23  C   UNL     1       2.774  15.906  18.637  0.00  0.00    +0.000 A 
ATOM     24  C   UNL     1       2.776  17.084  19.366  0.00  0.00    +0.000 A 
ATOM     25  S   UNL     1       1.854  16.991  20.791  0.00  0.00    +0.000 S 
ATOM     26  C   UNL     1       1.393  15.363  20.482  0.00  0.00    +0.000 A 
ATOM     27  C   UNL     1       1.919  14.927  19.277  0.00  0.00    +0.000 A 
ATOM     28 CL   UNL     1       1.633  13.387  18.560  0.00  0.00    +0.000 Cl
BRANCH  23  29
ATOM     29  C   UNL     1       3.538  15.718  17.352  0.00  0.00    +0.000 C 
BRANCH  29  31
ATOM     30  C   UNL     1       5.778  15.158  18.031  0.00  0.00    +0.000 C 
ATOM     31  N   UNL     1       4.507  14.638  17.543  0.00  0.00    +0.000 NA
ATOM     32  H   UNL     1       4.147  13.971  18.223  0.00  0.00    +0.000 HD
ENDBRANCH  29  31
ENDBRANCH  23  29
ENDBRANCH  19  26
ENDBRANCH   1  21
BRANCH   2  33
ATOM     33  O   UNL     1      -1.513  16.046  23.780  0.00  0.00    +0.000 OA
ATOM     34  C   UNL     1      -2.391  17.161  23.905  0.00  0.00    +0.000 C 
ENDBRANCH   2  33
TORSDOF 6
ENDMDL
MODEL 5
REMARK VINA RESULT:      -6.4      3.078      7.158
REMARK  Name = 
REMARK  8 active torsions:
REMARK  status: ('A' for Active; 'I' for Inactive)
REMARK    1  A    between atoms: C_1  and  N_2
REMARK    2  A    between atoms: N_2  and  C_3
REMARK    3  A    between atoms: C_3  and  C_4
REMARK    4  A    between atoms: C_7  and  C_8
REMARK    5  A    between atoms: N_10  and  C_11
REMARK    6  A    between atoms: C_12  and  O_13
REMARK    7  A    between atoms: O_13  and  C_14
REMARK    8  A    between atoms: C_19  and  C_20
REMARK                            x       y       z     vdW  Elec       q    Type
REMARK                         _______ _______ _______ _____ _____    ______ ____
ROOT
ATOM      1  C   UNL     1       0.394  14.193  19.822  0.00  0.00    +0.000 A 
ATOM      2  C   UNL     1       1.303  14.796  18.919  0.00  0.00    +0.000 A 
ATOM      3  C   UNL     1       1.041  16.078  18.420  0.00  0.00    +0.000 A 
ATOM      4  C   UNL     1      -0.116  16.751  18.801  0.00  0.00    +0.000 A 
ATOM      5 CL   UNL     1      -0.433  18.324  18.178  0.00  0.00    +0.000 Cl
ATOM      6  C   UNL     1      -1.031  16.150  19.655  0.00  0.00    +0.000 A 
ATOM      7  C   UNL     1      -0.795  14.863  20.163  0.00  0.00    +0.000 A 
ENDROOT
BRANCH   7   8
ATOM      8  C   UNL     1      -1.913  14.288  20.961  0.00  0.00    +0.000 C 
ATOM      9  O   UNL     1      -1.653  14.034  22.134  0.00  0.00    +0.000 OA
ATOM     10  N   UNL     1      -3.103  14.038  20.312  0.00  0.00    +0.000 N 
ATOM     11  C   UNL     1      -4.252  13.556  20.965  0.00  0.00    +0.000 A 
ATOM     12  C   UNL     1      -5.341  13.157  20.194  0.00  0.00    +0.000 A 
ATOM     13  C   UNL     1      -6.481  12.654  20.834  0.00  0.00    +0.000 A 
ATOM     14  C   UNL     1      -6.507  12.575  22.221  0.00  0.00    +0.000 A 
ATOM     15 CL   UNL     1      -7.877  11.960  23.047  0.00  0.00    +0.000 Cl
ATOM     16  C   UNL     1      -5.393  13.009  22.913  0.00  0.00    +0.000 A 
ATOM     17  N   UNL     1      -4.285  13.498  22.310  0.00  0.00    +0.000 NA
ATOM     18  H   UNL     1      -3.127  14.096  19.304  0.00  0.00    +0.000 HD
ENDBRANCH   7   8
BRANCH   1  21
ATOM     19  C   UNL     1       0.146  11.773  19.612  0.00  0.00    +0.000 C 
ATOM     20  O   UNL     1      -0.577  11.906  18.626  0.00  0.00    +0.000 OA
ATOM     21  N   UNL     1       0.665  12.883  20.262  0.00  0.00    +0.000 N 
ATOM     22  H   UNL     1       1.439  12.758  20.907  0.00  0.00    +0.000 HD
BRANCH  19  26
ATOM     23  C   UNL     1       1.499   8.278  20.235  0.00  0.00    +0.000 A 
ATOM     24  C   UNL     1       1.054   8.519  21.525  0.00  0.00    +0.000 A 
ATOM     25  S   UNL     1       0.355  10.056  21.715  0.00  0.00    +0.000 S 
ATOM     26  C   UNL     1       0.636  10.476  20.072  0.00  0.00    +0.000 A 
ATOM     27  C   UNL     1       1.293   9.452  19.412  0.00  0.00    +0.000 A 
ATOM     28 CL   UNL     1       1.831   9.499  17.776  0.00  0.00    +0.000 Cl
BRANCH  23  29
ATOM     29  C   UNL     1       2.128   6.981  19.798  0.00  0.00    +0.000 C 
BRANCH  29  31
ATOM     30  C   UNL     1       1.521   4.784  20.570  0.00  0.00    +0.000 C 
ATOM     31  N   UNL     1       2.126   6.058  20.935  0.00  0.00    +0.000 NA
ATOM     32  H   UNL     1       3.083   5.888  21.239  0.00  0.00    +0.000 HD
ENDBRANCH  29  31
ENDBRANCH  23  29
ENDBRANCH  19  26
ENDBRANCH   1  21
BRANCH   2  33
ATOM     33  O   UNL     1       2.386  14.035  18.541  0.00  0.00    +0.000 OA
ATOM     34  C   UNL     1       3.590  14.725  18.222  0.00  0.00    +0.000 C 
ENDBRANCH   2  33
TORSDOF 6
ENDMDL
MODEL 6
REMARK VINA RESULT:      -6.4      1.442      1.581
REMARK  Name = 
REMARK  8 active torsions:
REMARK  status: ('A' for Active; 'I' for Inactive)
REMARK    1  A    between atoms: C_1  and  N_2
REMARK    2  A    between atoms: N_2  and  C_3
REMARK    3  A    between atoms: C_3  and  C_4
REMARK    4  A    between atoms: C_7  and  C_8
REMARK    5  A    between atoms: N_10  and  C_11
REMARK    6  A    between atoms: C_12  and  O_13
REMARK    7  A    between atoms: O_13  and  C_14
REMARK    8  A    between atoms: C_19  and  C_20
REMARK                            x       y       z     vdW  Elec       q    Type
REMARK                         _______ _______ _______ _____ _____    ______ ____
ROOT
ATOM      1  C   UNL     1      -1.779  13.989  22.191  0.00  0.00    +0.000 A 
ATOM      2  C   UNL     1      -2.862  14.784  22.640  0.00  0.00    +0.000 A 
ATOM      3  C   UNL     1      -3.855  14.215  23.448  0.00  0.00    +0.000 A 
ATOM      4  C   UNL     1      -3.783  12.869  23.795  0.00  0.00    +0.000 A 
ATOM      5 CL   UNL     1      -5.011  12.176  24.783  0.00  0.00    +0.000 Cl
ATOM      6  C   UNL     1      -2.746  12.075  23.326  0.00  0.00    +0.000 A 
ATOM      7  C   UNL     1      -1.742  12.620  22.510  0.00  0.00    +0.000 A 
ENDROOT
BRANCH   7   8
ATOM      8  C   UNL     1      -0.764  11.634  21.973  0.00  0.00    +0.000 C 
ATOM      9  O   UNL     1       0.012  11.153  22.794  0.00  0.00    +0.000 OA
ATOM     10  N   UNL     1      -0.773  11.394  20.615  0.00  0.00    +0.000 N 
ATOM     11  C   UNL     1       0.055  10.443  19.994  0.00  0.00    +0.000 A 
ATOM     12  C   UNL     1       0.107  10.409  18.602  0.00  0.00    +0.000 A 
ATOM     13  C   UNL     1       0.948   9.480  17.974  0.00  0.00    +0.000 A 
ATOM     14  C   UNL     1       1.699   8.605  18.749  0.00  0.00    +0.000 A 
ATOM     15 CL   UNL     1       2.745   7.457  18.026  0.00  0.00    +0.000 Cl
ATOM     16  C   UNL     1       1.576   8.691  20.122  0.00  0.00    +0.000 A 
ATOM     17  N   UNL     1       0.769   9.581  20.744  0.00  0.00    +0.000 NA
ATOM     18  H   UNL     1      -1.316  12.003  20.020  0.00  0.00    +0.000 HD
ENDBRANCH   7   8
BRANCH   1  21
ATOM     19  C   UNL     1       0.335  15.156  21.828  0.00  0.00    +0.000 C 
ATOM     20  O   UNL     1       0.567  15.165  23.036  0.00  0.00    +0.000 OA
ATOM     21  N   UNL     1      -0.828  14.583  21.338  0.00  0.00    +0.000 N 
ATOM     22  H   UNL     1      -0.891  14.367  20.348  0.00  0.00    +0.000 HD
BRANCH  19  26
ATOM     23  C   UNL     1       2.735  15.775  18.948  0.00  0.00    +0.000 A 
ATOM     24  C   UNL     1       3.176  16.808  19.760  0.00  0.00    +0.000 A 
ATOM     25  S   UNL     1       2.323  16.917  21.226  0.00  0.00    +0.000 S 
ATOM     26  C   UNL     1       1.306  15.589  20.827  0.00  0.00    +0.000 A 
ATOM     27  C   UNL     1       1.607  15.106  19.565  0.00  0.00    +0.000 A 
ATOM     28 CL   UNL     1       0.773  13.835  18.755  0.00  0.00    +0.000 Cl
BRANCH  23  29
ATOM     29  C   UNL     1       3.344  15.447  17.610  0.00  0.00    +0.000 C 
BRANCH  29  31
ATOM     30  C   UNL     1       5.604  14.658  17.856  0.00  0.00    +0.000 C 
ATOM     31  N   UNL     1       4.202  14.272  17.767  0.00  0.00    +0.000 NA
ATOM     32  H   UNL     1       3.949  13.775  18.619  0.00  0.00    +0.000 HD
ENDBRANCH  29  31
ENDBRANCH  23  29
ENDBRANCH  19  26
ENDBRANCH   1  21
BRANCH   2  33
ATOM     33  O   UNL     1      -2.893  16.086  22.194  0.00  0.00    +0.000 OA
ATOM     34  C   UNL     1      -4.039  16.496  21.455  0.00  0.00    +0.000 C 
ENDBRANCH   2  33
TORSDOF 6
ENDMDL
MODEL 7
REMARK VINA RESULT:      -6.4      1.515      1.595
REMARK  Name = 
REMARK  8 active torsions:
REMARK  status: ('A' for Active; 'I' for Inactive)
REMARK    1  A    between atoms: C_1  and  N_2
REMARK    2  A    between atoms: N_2  and  C_3
REMARK    3  A    between atoms: C_3  and  C_4
REMARK    4  A    between atoms: C_7  and  C_8
REMARK    5  A    between atoms: N_10  and  C_11
REMARK    6  A    between atoms: C_12  and  O_13
REMARK    7  A    between atoms: O_13  and  C_14
REMARK    8  A    between atoms: C_19  and  C_20
REMARK                            x       y       z     vdW  Elec       q    Type
REMARK                         _______ _______ _______ _____ _____    ______ ____
ROOT
ATOM      1  C   UNL     1      -0.476  13.338  21.603  0.00  0.00    +0.000 A 
ATOM      2  C   UNL     1      -1.422  14.325  21.972  0.00  0.00    +0.000 A 
ATOM      3  C   UNL     1      -2.489  13.987  22.814  0.00  0.00    +0.000 A 
ATOM      4  C   UNL     1      -2.625  12.680  23.274  0.00  0.00    +0.000 A 
ATOM      5 CL   UNL     1      -3.943  12.272  24.303  0.00  0.00    +0.000 Cl
ATOM      6  C   UNL     1      -1.724  11.699  22.885  0.00  0.00    +0.000 A 
ATOM      7  C   UNL     1      -0.650  12.011  22.037  0.00  0.00    +0.000 A 
ENDROOT
BRANCH   7   8
ATOM      8  C   UNL     1       0.163  10.844  21.596  0.00  0.00    +0.000 C 
ATOM      9  O   UNL     1       0.652  10.166  22.496  0.00  0.00    +0.000 OA
ATOM     10  N   UNL     1       0.343  10.661  20.242  0.00  0.00    +0.000 N 
ATOM     11  C   UNL     1       1.035   9.566  19.696  0.00  0.00    +0.000 A 
ATOM     12  C   UNL     1       1.326   9.571  18.334  0.00  0.00    +0.000 A 
ATOM     13  C   UNL     1       2.035   8.494  17.785  0.00  0.00    +0.000 A 
ATOM     14  C   UNL     1       2.421   7.441  18.605  0.00  0.00    +0.000 A 
ATOM     15 CL   UNL     1       3.296   6.107  17.980  0.00  0.00    +0.000 Cl
ATOM     16  C   UNL     1       2.077   7.504  19.941  0.00  0.00    +0.000 A 
ATOM     17  N   UNL     1       1.392   8.536  20.486  0.00  0.00    +0.000 NA
ATOM     18  H   UNL     1       0.064  11.401  19.612  0.00  0.00    +0.000 HD
ENDBRANCH   7   8
BRANCH   1  21
ATOM     19  C   UNL     1       1.741  14.262  21.162  0.00  0.00    +0.000 C 
ATOM     20  O   UNL     1       1.926  14.460  22.361  0.00  0.00    +0.000 OA
ATOM     21  N   UNL     1       0.554  13.703  20.714  0.00  0.00    +0.000 N 
ATOM     22  H   UNL     1       0.512  13.326  19.772  0.00  0.00    +0.000 HD
BRANCH  19  26
ATOM     23  C   UNL     1       4.708  15.086  18.937  0.00  0.00    +0.000 A 
ATOM     24  C   UNL     1       3.942  14.457  17.969  0.00  0.00    +0.000 A 
ATOM     25  S   UNL     1       2.455  13.885  18.561  0.00  0.00    +0.000 S 
ATOM     26  C   UNL     1       2.783  14.442  20.154  0.00  0.00    +0.000 A 
ATOM     27  C   UNL     1       4.039  15.022  20.220  0.00  0.00    +0.000 A 
ATOM     28 CL   UNL     1       4.785  15.635  21.646  0.00  0.00    +0.000 Cl
BRANCH  23  29
ATOM     29  C   UNL     1       6.053  15.707  18.662  0.00  0.00    +0.000 C 
BRANCH  29  31
ATOM     30  C   UNL     1       7.713  14.129  17.920  0.00  0.00    +0.000 C 
ATOM     31  N   UNL     1       7.092  14.763  19.077  0.00  0.00    +0.000 NA
ATOM     32  H   UNL     1       7.813  15.256  19.601  0.00  0.00    +0.000 HD
ENDBRANCH  29  31
ENDBRANCH  23  29
ENDBRANCH  19  26
ENDBRANCH   1  21
BRANCH   2  33
ATOM     33  O   UNL     1      -1.252  15.573  21.417  0.00  0.00    +0.000 OA
ATOM     34  C   UNL     1      -2.399  16.198  20.848  0.00  0.00    +0.000 C 
ENDBRANCH   2  33
TORSDOF 6
ENDMDL
MODEL 8
REMARK VINA RESULT:      -6.3      1.744      2.143
REMARK  Name = 
REMARK  8 active torsions:
REMARK  status: ('A' for Active; 'I' for Inactive)
REMARK    1  A    between atoms: C_1  and  N_2
REMARK    2  A    between atoms: N_2  and  C_3
REMARK    3  A    between atoms: C_3  and  C_4
REMARK    4  A    between atoms: C_7  and  C_8
REMARK    5  A    between atoms: N_10  and  C_11
REMARK    6  A    between atoms: C_12  and  O_13
REMARK    7  A    between atoms: O_13  and  C_14
REMARK    8  A    between atoms: C_19  and  C_20
REMARK                            x       y       z     vdW  Elec       q    Type
REMARK                         _______ _______ _______ _____ _____    ______ ____
ROOT
ATOM      1  C   UNL     1       0.213  13.539  21.307  0.00  0.00    +0.000 A 
ATOM      2  C   UNL     1      -0.490  14.456  22.126  0.00  0.00    +0.000 A 
ATOM      3  C   UNL     1      -1.523  13.999  22.954  0.00  0.00    +0.000 A 
ATOM      4  C   UNL     1      -1.865  12.650  22.960  0.00  0.00    +0.000 A 
ATOM      5 CL   UNL     1      -3.140  12.099  23.976  0.00  0.00    +0.000 Cl
ATOM      6  C   UNL     1      -1.207  11.753  22.131  0.00  0.00    +0.000 A 
ATOM      7  C   UNL     1      -0.173  12.186  21.287  0.00  0.00    +0.000 A 
ENDROOT
BRANCH   7   8
ATOM      8  C   UNL     1       0.359  11.150  20.360  0.00  0.00    +0.000 C 
ATOM      9  O   UNL     1       0.319  11.433  19.165  0.00  0.00    +0.000 OA
ATOM     10  N   UNL     1       0.787   9.959  20.906  0.00  0.00    +0.000 N 
ATOM     11  C   UNL     1       1.367   8.926  20.147  0.00  0.00    +0.000 A 
ATOM     12  C   UNL     1       1.591   7.694  20.757  0.00  0.00    +0.000 A 
ATOM     13  C   UNL     1       2.147   6.652  20.003  0.00  0.00    +0.000 A 
ATOM     14  C   UNL     1       2.475   6.872  18.672  0.00  0.00    +0.000 A 
ATOM     15 CL   UNL     1       3.151   5.626  17.709  0.00  0.00    +0.000 Cl
ATOM     16  C   UNL     1       2.238   8.128  18.147  0.00  0.00    +0.000 A 
ATOM     17  N   UNL     1       1.703   9.144  18.862  0.00  0.00    +0.000 NA
ATOM     18  H   UNL     1       0.577   9.767  21.875  0.00  0.00    +0.000 HD
ENDBRANCH   7   8
BRANCH   1  21
ATOM     19  C   UNL     1       2.513  14.240  20.881  0.00  0.00    +0.000 C 
ATOM     20  O   UNL     1       2.834  13.980  22.039  0.00  0.00    +0.000 OA
ATOM     21  N   UNL     1       1.211  14.043  20.449  0.00  0.00    +0.000 N 
ATOM     22  H   UNL     1       1.019  14.027  19.452  0.00  0.00    +0.000 HD
BRANCH  19  26
ATOM     23  C   UNL     1       5.389  15.329  18.650  0.00  0.00    +0.000 A 
ATOM     24  C   UNL     1       4.420  15.275  17.661  0.00  0.00    +0.000 A 
ATOM     25  S   UNL     1       2.898  14.791  18.242  0.00  0.00    +0.000 S 
ATOM     26  C   UNL     1       3.479  14.612  19.850  0.00  0.00    +0.000 A 
ATOM     27  C   UNL     1       4.835  14.887  19.913  0.00  0.00    +0.000 A 
ATOM     28 CL   UNL     1       5.819  14.750  21.320  0.00  0.00    +0.000 Cl
BRANCH  23  29
ATOM     29  C   UNL     1       6.812  15.757  18.401  0.00  0.00    +0.000 C 
BRANCH  29  31
ATOM     30  C   UNL     1       8.563  14.117  18.219  0.00  0.00    +0.000 C 
ATOM     31  N   UNL     1       7.451  14.764  17.536  0.00  0.00    +0.000 NA
ATOM     32  H   UNL     1       6.772  14.052  17.275  0.00  0.00    +0.000 HD
ENDBRANCH  29  31
ENDBRANCH  23  29
ENDBRANCH  19  26
ENDBRANCH   1  21
BRANCH   2  33
ATOM     33  O   UNL     1      -0.134  15.780  22.008  0.00  0.00    +0.000 OA
ATOM     34  C   UNL     1       0.061  16.515  23.212  0.00  0.00    +0.000 C 
ENDBRANCH   2  33
TORSDOF 6
ENDMDL
MODEL 9
REMARK VINA RESULT:      -6.2      1.319      1.379
REMARK  Name = 
REMARK  8 active torsions:
REMARK  status: ('A' for Active; 'I' for Inactive)
REMARK    1  A    between atoms: C_1  and  N_2
REMARK    2  A    between atoms: N_2  and  C_3
REMARK    3  A    between atoms: C_3  and  C_4
REMARK    4  A    between atoms: C_7  and  C_8
REMARK    5  A    between atoms: N_10  and  C_11
REMARK    6  A    between atoms: C_12  and  O_13
REMARK    7  A    between atoms: O_13  and  C_14
REMARK    8  A    between atoms: C_19  and  C_20
REMARK                            x       y       z     vdW  Elec       q    Type
REMARK                         _______ _______ _______ _____ _____    ______ ____
ROOT
ATOM      1  C   UNL     1      -0.076  13.656  21.731  0.00  0.00    +0.000 A 
ATOM      2  C   UNL     1      -0.962  14.748  21.904  0.00  0.00    +0.000 A 
ATOM      3  C   UNL     1      -2.333  14.513  22.067  0.00  0.00    +0.000 A 
ATOM      4  C   UNL     1      -2.824  13.211  22.043  0.00  0.00    +0.000 A 
ATOM      5 CL   UNL     1      -4.511  12.933  22.238  0.00  0.00    +0.000 Cl
ATOM      6  C   UNL     1      -1.968  12.139  21.835  0.00  0.00    +0.000 A 
ATOM      7  C   UNL     1      -0.591  12.348  21.662  0.00  0.00    +0.000 A 
ENDROOT
BRANCH   7   8
ATOM      8  C   UNL     1       0.192  11.129  21.320  0.00  0.00    +0.000 C 
ATOM      9  O   UNL     1       0.632  10.493  22.274  0.00  0.00    +0.000 OA
ATOM     10  N   UNL     1       0.405  10.855  19.985  0.00  0.00    +0.000 N 
ATOM     11  C   UNL     1       1.072   9.705  19.530  0.00  0.00    +0.000 A 
ATOM     12  C   UNL     1       1.402   9.614  18.179  0.00  0.00    +0.000 A 
ATOM     13  C   UNL     1       2.088   8.482  17.720  0.00  0.00    +0.000 A 
ATOM     14  C   UNL     1       2.412   7.470  18.615  0.00  0.00    +0.000 A 
ATOM     15 CL   UNL     1       3.256   6.070  18.101  0.00  0.00    +0.000 Cl
ATOM     16  C   UNL     1       2.033   7.629  19.933  0.00  0.00    +0.000 A 
ATOM     17  N   UNL     1       1.370   8.715  20.392  0.00  0.00    +0.000 NA
ATOM     18  H   UNL     1       0.171  11.563  19.303  0.00  0.00    +0.000 HD
ENDBRANCH   7   8
BRANCH   1  21
ATOM     19  C   UNL     1       1.823  14.032  20.243  0.00  0.00    +0.000 C 
ATOM     20  O   UNL     1       1.112  13.874  19.253  0.00  0.00    +0.000 OA
ATOM     21  N   UNL     1       1.288  13.934  21.518  0.00  0.00    +0.000 N 
ATOM     22  H   UNL     1       1.817  14.301  22.304  0.00  0.00    +0.000 HD
BRANCH  19  26
ATOM     23  C   UNL     1       5.353  15.196  19.454  0.00  0.00    +0.000 A 
ATOM     24  C   UNL     1       5.553  14.954  20.803  0.00  0.00    +0.000 A 
ATOM     25  S   UNL     1       4.156  14.403  21.598  0.00  0.00    +0.000 S 
ATOM     26  C   UNL     1       3.210  14.484  20.165  0.00  0.00    +0.000 A 
ATOM     27  C   UNL     1       3.964  14.967  19.109  0.00  0.00    +0.000 A 
ATOM     28 CL   UNL     1       3.378  15.275  17.519  0.00  0.00    +0.000 Cl
BRANCH  23  29
ATOM     29  C   UNL     1       6.439  15.662  18.519  0.00  0.00    +0.000 C 
BRANCH  29  31
ATOM     30  C   UNL     1       8.184  14.078  18.032  0.00  0.00    +0.000 C 
ATOM     31  N   UNL     1       6.845  14.534  17.681  0.00  0.00    +0.000 NA
ATOM     32  H   UNL     1       6.195  13.760  17.811  0.00  0.00    +0.000 HD
ENDBRANCH  29  31
ENDBRANCH  23  29
ENDBRANCH  19  26
ENDBRANCH   1  21
BRANCH   2  33
ATOM     33  O   UNL     1      -0.402  16.004  21.845  0.00  0.00    +0.000 OA
ATOM     34  C   UNL     1      -0.848  16.963  22.799  0.00  0.00    +0.000 C 
ENDBRANCH   2  33
TORSDOF 6
ENDMDL
