MODEL 1
REMARK VINA RESULT:      -9.1      0.000      0.000
REMARK  Name = 
REMARK  4 active torsions:
REMARK  status: ('A' for Active; 'I' for Inactive)
REMARK    1  A    between atoms: S_2  and  C_4
REMARK    2  A    between atoms: S_2  and  N_14
REMARK    3  A    between atoms: C_7  and  C_8
REMARK    4  A    between atoms: N_17  and  C_18
REMARK                            x       y       z     vdW  Elec       q    Type
REMARK                         _______ _______ _______ _____ _____    ______ ____
ROOT
ATOM      1  O   UNL     1       3.225   1.500  18.336  0.00  0.00    +0.000 OA
ATOM      2  S   UNL     1       3.284   2.688  19.157  0.00  0.00    +0.000 S 
ATOM      3  O   UNL     1       3.598   2.607  20.570  0.00  0.00    +0.000 OA
ENDROOT
BRANCH   2   4
ATOM      4  N   UNL     1       1.849   3.590  18.987  0.00  0.00    +0.000 NA
ATOM      5  C   UNL     1       1.367   4.291  20.221  0.00  0.00    +0.000 C 
ATOM      6  C   UNL     1       2.208   5.535  20.548  0.00  0.00    +0.000 C 
ATOM      7  N   UNL     1       2.302   6.422  19.379  0.00  0.00    +0.000 N 
ATOM      8  C   UNL     1       2.689   5.802  18.099  0.00  0.00    +0.000 C 
ATOM      9  C   UNL     1       1.836   4.547  17.830  0.00  0.00    +0.000 C 
BRANCH   7  10
ATOM     10  C   UNL     1       1.865   7.730  19.423  0.00  0.00    +0.000 A 
ATOM     11  C   UNL     1       1.943   8.561  18.298  0.00  0.00    +0.000 A 
ATOM     12  C   UNL     1       1.504   9.889  18.339  0.00  0.00    +0.000 A 
ATOM     13  C   UNL     1       0.977  10.406  19.513  0.00  0.00    +0.000 A 
ATOM     14  C   UNL     1       0.886   9.607  20.645  0.00  0.00    +0.000 A 
ATOM     15  C   UNL     1       1.328   8.285  20.596  0.00  0.00    +0.000 A 
ENDBRANCH   7  10
ENDBRANCH   2   4
BRANCH   2  16
ATOM     16  C   UNL     1       4.614   3.664  18.452  0.00  0.00    +0.000 A 
ATOM     17  C   UNL     1       5.511   4.534  19.052  0.00  0.00    +0.000 A 
ATOM     18  C   UNL     1       6.376   5.016  18.044  0.00  0.00    +0.000 A 
ATOM     19  C   UNL     1       5.964   4.453  16.854  0.00  0.00    +0.000 A 
ATOM     20  O   UNL     1       4.900   3.630  17.100  0.00  0.00    +0.000 OA
BRANCH  19  21
ATOM     21  C   UNL     1       6.515   4.644  15.547  0.00  0.00    +0.000 A 
ATOM     22  C   UNL     1       6.195   4.007  14.366  0.00  0.00    +0.000 A 
ATOM     23  C   UNL     1       7.057   4.570  13.411  0.00  0.00    +0.000 A 
ATOM     24  N   UNL     1       7.848   5.503  13.941  0.00  0.00    +0.000 NA
ATOM     25  O   UNL     1       7.507   5.551  15.281  0.00  0.00    +0.000 OA
ENDBRANCH  19  21
ENDBRANCH   2  16
TORSDOF 4
ENDMDL
MODEL 2
REMARK VINA RESULT:      -8.5      1.516      2.395
REMARK  Name = 
REMARK  4 active torsions:
REMARK  status: ('A' for Active; 'I' for Inactive)
REMARK    1  A    between atoms: S_2  and  C_4
REMARK    2  A    between atoms: S_2  and  N_14
REMARK    3  A    between atoms: C_7  and  C_8
REMARK    4  A    between atoms: N_17  and  C_18
REMARK                            x       y       z     vdW  Elec       q    Type
REMARK                         _______ _______ _______ _____ _____    ______ ____
ROOT
ATOM      1  O   UNL     1       3.364   1.429  18.025  0.00  0.00    +0.000 OA
ATOM      2  S   UNL     1       3.516   2.637  18.803  0.00  0.00    +0.000 S 
ATOM      3  O   UNL     1       4.137   2.611  20.112  0.00  0.00    +0.000 OA
ENDROOT
BRANCH   2   4
ATOM      4  N   UNL     1       2.017   3.434  18.946  0.00  0.00    +0.000 NA
ATOM      5  C   UNL     1       1.707   4.005  20.297  0.00  0.00    +0.000 C 
ATOM      6  C   UNL     1       2.508   5.285  20.584  0.00  0.00    +0.000 C 
ATOM      7  N   UNL     1       2.345   6.258  19.493  0.00  0.00    +0.000 N 
ATOM      8  C   UNL     1       2.549   5.762  18.120  0.00  0.00    +0.000 C 
ATOM      9  C   UNL     1       1.746   4.467  17.891  0.00  0.00    +0.000 C 
BRANCH   7  10
ATOM     10  C   UNL     1       1.837   7.521  19.718  0.00  0.00    +0.000 A 
ATOM     11  C   UNL     1       1.361   7.899  20.980  0.00  0.00    +0.000 A 
ATOM     12  C   UNL     1       0.842   9.178  21.212  0.00  0.00    +0.000 A 
ATOM     13  C   UNL     1       0.794  10.101  20.178  0.00  0.00    +0.000 A 
ATOM     14  C   UNL     1       1.260   9.756  18.916  0.00  0.00    +0.000 A 
ATOM     15  C   UNL     1       1.773   8.479  18.694  0.00  0.00    +0.000 A 
ENDBRANCH   7  10
ENDBRANCH   2   4
BRANCH   2  16
ATOM     16  C   UNL     1       4.585   3.685  17.814  0.00  0.00    +0.000 A 
ATOM     17  C   UNL     1       4.838   3.685  16.450  0.00  0.00    +0.000 A 
ATOM     18  C   UNL     1       5.736   4.743  16.184  0.00  0.00    +0.000 A 
ATOM     19  C   UNL     1       6.030   5.338  17.393  0.00  0.00    +0.000 A 
ATOM     20  O   UNL     1       5.330   4.701  18.380  0.00  0.00    +0.000 OA
BRANCH  19  21
ATOM     21  C   UNL     1       6.904   6.443  17.646  0.00  0.00    +0.000 A 
ATOM     22  C   UNL     1       7.854   6.592  18.634  0.00  0.00    +0.000 A 
ATOM     23  C   UNL     1       8.394   7.871  18.422  0.00  0.00    +0.000 A 
ATOM     24  N   UNL     1       7.841   8.478  17.372  0.00  0.00    +0.000 NA
ATOM     25  O   UNL     1       6.908   7.581  16.883  0.00  0.00    +0.000 OA
ENDBRANCH  19  21
ENDBRANCH   2  16
TORSDOF 4
ENDMDL
MODEL 3
REMARK VINA RESULT:      -8.5      0.719      1.255
REMARK  Name = 
REMARK  4 active torsions:
REMARK  status: ('A' for Active; 'I' for Inactive)
REMARK    1  A    between atoms: S_2  and  C_4
REMARK    2  A    between atoms: S_2  and  N_14
REMARK    3  A    between atoms: C_7  and  C_8
REMARK    4  A    between atoms: N_17  and  C_18
REMARK                            x       y       z     vdW  Elec       q    Type
REMARK                         _______ _______ _______ _____ _____    ______ ____
ROOT
ATOM      1  O   UNL     1       3.586   1.844  18.604  0.00  0.00    +0.000 OA
ATOM      2  S   UNL     1       3.658   3.198  19.103  0.00  0.00    +0.000 S 
ATOM      3  O   UNL     1       3.920   3.467  20.502  0.00  0.00    +0.000 OA
ENDROOT
BRANCH   2   4
ATOM      4  N   UNL     1       2.264   4.065  18.650  0.00  0.00    +0.000 NA
ATOM      5  C   UNL     1       1.268   4.318  19.741  0.00  0.00    +0.000 C 
ATOM      6  C   UNL     1       1.736   5.416  20.711  0.00  0.00    +0.000 C 
ATOM      7  N   UNL     1       2.112   6.633  19.977  0.00  0.00    +0.000 N 
ATOM      8  C   UNL     1       3.025   6.468  18.831  0.00  0.00    +0.000 C 
ATOM      9  C   UNL     1       2.526   5.342  17.905  0.00  0.00    +0.000 C 
BRANCH   7  10
ATOM     10  C   UNL     1       1.497   7.845  20.218  0.00  0.00    +0.000 A 
ATOM     11  C   UNL     1       0.828   8.093  21.424  0.00  0.00    +0.000 A 
ATOM     12  C   UNL     1       0.200   9.319  21.671  0.00  0.00    +0.000 A 
ATOM     13  C   UNL     1       0.233  10.318  20.710  0.00  0.00    +0.000 A 
ATOM     14  C   UNL     1       0.888  10.102  19.505  0.00  0.00    +0.000 A 
ATOM     15  C   UNL     1       1.510   8.877  19.266  0.00  0.00    +0.000 A 
ENDBRANCH   7  10
ENDBRANCH   2   4
BRANCH   2  16
ATOM     16  C   UNL     1       5.047   3.929  18.233  0.00  0.00    +0.000 A 
ATOM     17  C   UNL     1       6.164   4.596  18.714  0.00  0.00    +0.000 A 
ATOM     18  C   UNL     1       6.966   4.940  17.604  0.00  0.00    +0.000 A 
ATOM     19  C   UNL     1       6.303   4.504  16.474  0.00  0.00    +0.000 A 
ATOM     20  O   UNL     1       5.143   3.887  16.855  0.00  0.00    +0.000 OA
BRANCH  19  21
ATOM     21  C   UNL     1       6.706   4.632  15.108  0.00  0.00    +0.000 A 
ATOM     22  C   UNL     1       6.140   4.077  13.978  0.00  0.00    +0.000 A 
ATOM     23  C   UNL     1       6.951   4.516  12.919  0.00  0.00    +0.000 A 
ATOM     24  N   UNL     1       7.941   5.301  13.341  0.00  0.00    +0.000 NA
ATOM     25  O   UNL     1       7.786   5.376  14.715  0.00  0.00    +0.000 OA
ENDBRANCH  19  21
ENDBRANCH   2  16
TORSDOF 4
ENDMDL
MODEL 4
REMARK VINA RESULT:      -8.4      3.858      5.779
REMARK  Name = 
REMARK  4 active torsions:
REMARK  status: ('A' for Active; 'I' for Inactive)
REMARK    1  A    between atoms: S_2  and  C_4
REMARK    2  A    between atoms: S_2  and  N_14
REMARK    3  A    between atoms: C_7  and  C_8
REMARK    4  A    between atoms: N_17  and  C_18
REMARK                            x       y       z     vdW  Elec       q    Type
REMARK                         _______ _______ _______ _____ _____    ______ ____
ROOT
ATOM      1  O   UNL     1       7.456   5.798  15.087  0.00  0.00    +0.000 OA
ATOM      2  S   UNL     1       6.963   5.504  16.413  0.00  0.00    +0.000 S 
ATOM      3  O   UNL     1       7.319   4.272  17.088  0.00  0.00    +0.000 OA
ENDROOT
BRANCH   2   4
ATOM      4  N   UNL     1       5.267   5.656  16.454  0.00  0.00    +0.000 NA
ATOM      5  C   UNL     1       4.491   4.400  16.194  0.00  0.00    +0.000 C 
ATOM      6  C   UNL     1       4.516   3.443  17.396  0.00  0.00    +0.000 C 
ATOM      7  N   UNL     1       4.100   4.137  18.624  0.00  0.00    +0.000 N 
ATOM      8  C   UNL     1       4.751   5.426  18.917  0.00  0.00    +0.000 C 
ATOM      9  C   UNL     1       4.721   6.338  17.675  0.00  0.00    +0.000 C 
BRANCH   7  10
ATOM     10  C   UNL     1       3.018   3.710  19.367  0.00  0.00    +0.000 A 
ATOM     11  C   UNL     1       3.102   3.573  20.759  0.00  0.00    +0.000 A 
ATOM     12  C   UNL     1       2.009   3.137  21.516  0.00  0.00    +0.000 A 
ATOM     13  C   UNL     1       0.811   2.832  20.888  0.00  0.00    +0.000 A 
ATOM     14  C   UNL     1       0.697   2.958  19.510  0.00  0.00    +0.000 A 
ATOM     15  C   UNL     1       1.792   3.391  18.763  0.00  0.00    +0.000 A 
ENDBRANCH   7  10
ENDBRANCH   2   4
BRANCH   2  16
ATOM     16  C   UNL     1       7.640   6.802  17.449  0.00  0.00    +0.000 A 
ATOM     17  C   UNL     1       8.148   6.755  18.739  0.00  0.00    +0.000 A 
ATOM     18  C   UNL     1       8.581   8.057  19.074  0.00  0.00    +0.000 A 
ATOM     19  C   UNL     1       8.298   8.869  17.994  0.00  0.00    +0.000 A 
ATOM     20  O   UNL     1       7.732   8.109  17.008  0.00  0.00    +0.000 OA
BRANCH  19  21
ATOM     21  C   UNL     1       8.536  10.273  17.857  0.00  0.00    +0.000 A 
ATOM     22  C   UNL     1       9.655  11.003  18.200  0.00  0.00    +0.000 A 
ATOM     23  C   UNL     1       9.333  12.329  17.866  0.00  0.00    +0.000 A 
ATOM     24  N   UNL     1       8.113  12.429  17.338  0.00  0.00    +0.000 NA
ATOM     25  O   UNL     1       7.614  11.138  17.330  0.00  0.00    +0.000 OA
ENDBRANCH  19  21
ENDBRANCH   2  16
TORSDOF 4
ENDMDL
MODEL 5
REMARK VINA RESULT:      -8.2      4.010      5.901
REMARK  Name = 
REMARK  4 active torsions:
REMARK  status: ('A' for Active; 'I' for Inactive)
REMARK    1  A    between atoms: S_2  and  C_4
REMARK    2  A    between atoms: S_2  and  N_14
REMARK    3  A    between atoms: C_7  and  C_8
REMARK    4  A    between atoms: N_17  and  C_18
REMARK                            x       y       z     vdW  Elec       q    Type
REMARK                         _______ _______ _______ _____ _____    ______ ____
ROOT
ATOM      1  O   UNL     1       5.370   6.716  16.046  0.00  0.00    +0.000 OA
ATOM      2  S   UNL     1       6.640   6.073  16.296  0.00  0.00    +0.000 S 
ATOM      3  O   UNL     1       7.571   5.810  15.218  0.00  0.00    +0.000 OA
ENDROOT
BRANCH   2   4
ATOM      4  N   UNL     1       6.403   4.621  17.154  0.00  0.00    +0.000 NA
ATOM      5  C   UNL     1       6.391   4.738  18.648  0.00  0.00    +0.000 C 
ATOM      6  C   UNL     1       5.085   5.357  19.172  0.00  0.00    +0.000 C 
ATOM      7  N   UNL     1       3.918   4.639  18.639  0.00  0.00    +0.000 N 
ATOM      8  C   UNL     1       3.885   4.402  17.184  0.00  0.00    +0.000 C 
ATOM      9  C   UNL     1       5.223   3.806  16.707  0.00  0.00    +0.000 C 
BRANCH   7  10
ATOM     10  C   UNL     1       2.992   4.042  19.470  0.00  0.00    +0.000 A 
ATOM     11  C   UNL     1       1.621   4.299  19.334  0.00  0.00    +0.000 A 
ATOM     12  C   UNL     1       0.679   3.698  20.177  0.00  0.00    +0.000 A 
ATOM     13  C   UNL     1       1.098   2.827  21.171  0.00  0.00    +0.000 A 
ATOM     14  C   UNL     1       2.450   2.552  21.330  0.00  0.00    +0.000 A 
ATOM     15  C   UNL     1       3.382   3.156  20.488  0.00  0.00    +0.000 A 
ENDBRANCH   7  10
ENDBRANCH   2   4
BRANCH   2  16
ATOM     16  C   UNL     1       7.514   7.199  17.386  0.00  0.00    +0.000 A 
ATOM     17  C   UNL     1       8.131   6.976  18.608  0.00  0.00    +0.000 A 
ATOM     18  C   UNL     1       8.699   8.199  19.028  0.00  0.00    +0.000 A 
ATOM     19  C   UNL     1       8.387   9.141  18.068  0.00  0.00    +0.000 A 
ATOM     20  O   UNL     1       7.673   8.535  17.071  0.00  0.00    +0.000 OA
BRANCH  19  21
ATOM     21  C   UNL     1       8.727  10.531  18.050  0.00  0.00    +0.000 A 
ATOM     22  C   UNL     1       9.797  11.173  18.638  0.00  0.00    +0.000 A 
ATOM     23  C   UNL     1       9.622  12.529  18.316  0.00  0.00    +0.000 A 
ATOM     24  N   UNL     1       8.537  12.728  17.569  0.00  0.00    +0.000 NA
ATOM     25  O   UNL     1       7.976  11.474  17.399  0.00  0.00    +0.000 OA
ENDBRANCH  19  21
ENDBRANCH   2  16
TORSDOF 4
ENDMDL
MODEL 6
REMARK VINA RESULT:      -8.1      3.336      5.172
REMARK  Name = 
REMARK  4 active torsions:
REMARK  status: ('A' for Active; 'I' for Inactive)
REMARK    1  A    between atoms: S_2  and  C_4
REMARK    2  A    between atoms: S_2  and  N_14
REMARK    3  A    between atoms: C_7  and  C_8
REMARK    4  A    between atoms: N_17  and  C_18
REMARK                            x       y       z     vdW  Elec       q    Type
REMARK                         _______ _______ _______ _____ _____    ______ ____
ROOT
ATOM      1  O   UNL     1       7.367   4.363  17.090  0.00  0.00    +0.000 OA
ATOM      2  S   UNL     1       6.909   5.515  16.349  0.00  0.00    +0.000 S 
ATOM      3  O   UNL     1       7.573   6.798  16.473  0.00  0.00    +0.000 OA
ENDROOT
BRANCH   2   4
ATOM      4  N   UNL     1       5.243   5.756  16.610  0.00  0.00    +0.000 NA
ATOM      5  C   UNL     1       4.367   4.561  16.383  0.00  0.00    +0.000 C 
ATOM      6  C   UNL     1       4.480   3.532  17.520  0.00  0.00    +0.000 C 
ATOM      7  N   UNL     1       4.259   4.173  18.825  0.00  0.00    +0.000 N 
ATOM      8  C   UNL     1       5.019   5.405  19.103  0.00  0.00    +0.000 C 
ATOM      9  C   UNL     1       4.893   6.391  17.925  0.00  0.00    +0.000 C 
BRANCH   7  10
ATOM     10  C   UNL     1       3.253   3.760  19.674  0.00  0.00    +0.000 A 
ATOM     11  C   UNL     1       3.475   2.766  20.637  0.00  0.00    +0.000 A 
ATOM     12  C   UNL     1       2.457   2.343  21.497  0.00  0.00    +0.000 A 
ATOM     13  C   UNL     1       1.195   2.911  21.407  0.00  0.00    +0.000 A 
ATOM     14  C   UNL     1       0.944   3.898  20.463  0.00  0.00    +0.000 A 
ATOM     15  C   UNL     1       1.964   4.313  19.608  0.00  0.00    +0.000 A 
ENDBRANCH   7  10
ENDBRANCH   2   4
BRANCH   2  16
ATOM     16  C   UNL     1       7.119   5.061  14.626  0.00  0.00    +0.000 A 
ATOM     17  C   UNL     1       7.789   5.705  13.597  0.00  0.00    +0.000 A 
ATOM     18  C   UNL     1       7.672   4.901  12.442  0.00  0.00    +0.000 A 
ATOM     19  C   UNL     1       6.908   3.804  12.788  0.00  0.00    +0.000 A 
ATOM     20  O   UNL     1       6.577   3.898  14.112  0.00  0.00    +0.000 OA
BRANCH  19  21
ATOM     21  C   UNL     1       6.501   2.713  11.958  0.00  0.00    +0.000 A 
ATOM     22  C   UNL     1       5.226   2.303  11.623  0.00  0.00    +0.000 A 
ATOM     23  C   UNL     1       5.416   1.176  10.806  0.00  0.00    +0.000 A 
ATOM     24  N   UNL     1       6.708   0.904  10.624  0.00  0.00    +0.000 NA
ATOM     25  O   UNL     1       7.389   1.870  11.344  0.00  0.00    +0.000 OA
ENDBRANCH  19  21
ENDBRANCH   2  16
TORSDOF 4
ENDMDL
MODEL 7
REMARK VINA RESULT:      -8.1      1.736      2.239
REMARK  Name = 
REMARK  4 active torsions:
REMARK  status: ('A' for Active; 'I' for Inactive)
REMARK    1  A    between atoms: S_2  and  C_4
REMARK    2  A    between atoms: S_2  and  N_14
REMARK    3  A    between atoms: C_7  and  C_8
REMARK    4  A    between atoms: N_17  and  C_18
REMARK                            x       y       z     vdW  Elec       q    Type
REMARK                         _______ _______ _______ _____ _____    ______ ____
ROOT
ATOM      1  O   UNL     1       3.215   1.521  18.124  0.00  0.00    +0.000 OA
ATOM      2  S   UNL     1       3.354   2.751  18.870  0.00  0.00    +0.000 S 
ATOM      3  O   UNL     1       3.876   2.752  20.222  0.00  0.00    +0.000 OA
ENDROOT
BRANCH   2   4
ATOM      4  N   UNL     1       1.880   3.604  18.872  0.00  0.00    +0.000 NA
ATOM      5  C   UNL     1       1.441   4.146  20.199  0.00  0.00    +0.000 C 
ATOM      6  C   UNL     1       2.252   5.383  20.619  0.00  0.00    +0.000 C 
ATOM      7  N   UNL     1       2.250   6.394  19.550  0.00  0.00    +0.000 N 
ATOM      8  C   UNL     1       2.588   5.933  18.192  0.00  0.00    +0.000 C 
ATOM      9  C   UNL     1       1.768   4.679  17.830  0.00  0.00    +0.000 C 
BRANCH   7  10
ATOM     10  C   UNL     1       1.768   7.670  19.761  0.00  0.00    +0.000 A 
ATOM     11  C   UNL     1       1.694   8.600  18.716  0.00  0.00    +0.000 A 
ATOM     12  C   UNL     1       1.209   9.896  18.925  0.00  0.00    +0.000 A 
ATOM     13  C   UNL     1       0.789  10.280  20.189  0.00  0.00    +0.000 A 
ATOM     14  C   UNL     1       0.849   9.380  21.245  0.00  0.00    +0.000 A 
ATOM     15  C   UNL     1       1.336   8.092  21.028  0.00  0.00    +0.000 A 
ENDBRANCH   7  10
ENDBRANCH   2   4
BRANCH   2  16
ATOM     16  C   UNL     1       4.531   3.723  17.928  0.00  0.00    +0.000 A 
ATOM     17  C   UNL     1       4.901   3.649  16.593  0.00  0.00    +0.000 A 
ATOM     18  C   UNL     1       5.846   4.671  16.355  0.00  0.00    +0.000 A 
ATOM     19  C   UNL     1       6.051   5.321  17.556  0.00  0.00    +0.000 A 
ATOM     20  O   UNL     1       5.251   4.750  18.507  0.00  0.00    +0.000 OA
BRANCH  19  21
ATOM     21  C   UNL     1       6.928   6.418  17.830  0.00  0.00    +0.000 A 
ATOM     22  C   UNL     1       7.035   7.629  17.178  0.00  0.00    +0.000 A 
ATOM     23  C   UNL     1       8.065   8.307  17.851  0.00  0.00    +0.000 A 
ATOM     24  N   UNL     1       8.559   7.589  18.859  0.00  0.00    +0.000 NA
ATOM     25  O   UNL     1       7.844   6.404  18.848  0.00  0.00    +0.000 OA
ENDBRANCH  19  21
ENDBRANCH   2  16
TORSDOF 4
ENDMDL
MODEL 8
REMARK VINA RESULT:      -7.9      3.801      5.661
REMARK  Name = 
REMARK  4 active torsions:
REMARK  status: ('A' for Active; 'I' for Inactive)
REMARK    1  A    between atoms: S_2  and  C_4
REMARK    2  A    between atoms: S_2  and  N_14
REMARK    3  A    between atoms: C_7  and  C_8
REMARK    4  A    between atoms: N_17  and  C_18
REMARK                            x       y       z     vdW  Elec       q    Type
REMARK                         _______ _______ _______ _____ _____    ______ ____
ROOT
ATOM      1  O   UNL     1       7.230   5.873  15.014  0.00  0.00    +0.000 OA
ATOM      2  S   UNL     1       6.805   5.398  16.311  0.00  0.00    +0.000 S 
ATOM      3  O   UNL     1       7.185   4.084  16.789  0.00  0.00    +0.000 OA
ENDROOT
BRANCH   2   4
ATOM      4  N   UNL     1       5.115   5.547  16.464  0.00  0.00    +0.000 NA
ATOM      5  C   UNL     1       4.329   4.281  16.293  0.00  0.00    +0.000 C 
ATOM      6  C   UNL     1       4.442   3.358  17.517  0.00  0.00    +0.000 C 
ATOM      7  N   UNL     1       4.107   4.085  18.750  0.00  0.00    +0.000 N 
ATOM      8  C   UNL     1       4.770   5.384  18.962  0.00  0.00    +0.000 C 
ATOM      9  C   UNL     1       4.650   6.261  17.700  0.00  0.00    +0.000 C 
BRANCH   7  10
ATOM     10  C   UNL     1       3.081   3.676  19.578  0.00  0.00    +0.000 A 
ATOM     11  C   UNL     1       1.741   3.933  19.256  0.00  0.00    +0.000 A 
ATOM     12  C   UNL     1       0.698   3.522  20.094  0.00  0.00    +0.000 A 
ATOM     13  C   UNL     1       0.982   2.844  21.269  0.00  0.00    +0.000 A 
ATOM     14  C   UNL     1       2.300   2.575  21.615  0.00  0.00    +0.000 A 
ATOM     15  C   UNL     1       3.333   2.989  20.776  0.00  0.00    +0.000 A 
ENDBRANCH   7  10
ENDBRANCH   2   4
BRANCH   2  16
ATOM     16  C   UNL     1       7.548   6.539  17.479  0.00  0.00    +0.000 A 
ATOM     17  C   UNL     1       8.037   6.329  18.760  0.00  0.00    +0.000 A 
ATOM     18  C   UNL     1       8.545   7.560  19.230  0.00  0.00    +0.000 A 
ATOM     19  C   UNL     1       8.324   8.494  18.238  0.00  0.00    +0.000 A 
ATOM     20  O   UNL     1       7.724   7.876  17.176  0.00  0.00    +0.000 OA
BRANCH  19  21
ATOM     21  C   UNL     1       8.648   9.888  18.247  0.00  0.00    +0.000 A 
ATOM     22  C   UNL     1       8.135  10.905  17.470  0.00  0.00    +0.000 A 
ATOM     23  C   UNL     1       8.825  12.056  17.886  0.00  0.00    +0.000 A 
ATOM     24  N   UNL     1       9.693  11.791  18.862  0.00  0.00    +0.000 NA
ATOM     25  O   UNL     1       9.581  10.431  19.090  0.00  0.00    +0.000 OA
ENDBRANCH  19  21
ENDBRANCH   2  16
TORSDOF 4
ENDMDL
MODEL 9
REMARK VINA RESULT:      -7.7      1.467      1.761
REMARK  Name = 
REMARK  4 active torsions:
REMARK  status: ('A' for Active; 'I' for Inactive)
REMARK    1  A    between atoms: S_2  and  C_4
REMARK    2  A    between atoms: S_2  and  N_14
REMARK    3  A    between atoms: C_7  and  C_8
REMARK    4  A    between atoms: N_17  and  C_18
REMARK                            x       y       z     vdW  Elec       q    Type
REMARK                         _______ _______ _______ _____ _____    ______ ____
ROOT
ATOM      1  O   UNL     1       4.326   2.807  18.926  0.00  0.00    +0.000 OA
ATOM      2  S   UNL     1       4.284   4.251  18.896  0.00  0.00    +0.000 S 
ATOM      3  O   UNL     1       4.824   5.039  19.986  0.00  0.00    +0.000 OA
ENDROOT
BRANCH   2   4
ATOM      4  N   UNL     1       2.695   4.785  18.596  0.00  0.00    +0.000 NA
ATOM      5  C   UNL     1       1.790   4.849  19.789  0.00  0.00    +0.000 C 
ATOM      6  C   UNL     1       2.109   6.048  20.697  0.00  0.00    +0.000 C 
ATOM      7  N   UNL     1       2.133   7.296  19.921  0.00  0.00    +0.000 N 
ATOM      8  C   UNL     1       2.932   7.300  18.683  0.00  0.00    +0.000 C 
ATOM      9  C   UNL     1       2.593   6.068  17.821  0.00  0.00    +0.000 C 
BRANCH   7  10
ATOM     10  C   UNL     1       1.299   8.354  20.224  0.00  0.00    +0.000 A 
ATOM     11  C   UNL     1       1.126   9.421  19.333  0.00  0.00    +0.000 A 
ATOM     12  C   UNL     1       0.285  10.497  19.636  0.00  0.00    +0.000 A 
ATOM     13  C   UNL     1      -0.402  10.518  20.841  0.00  0.00    +0.000 A 
ATOM     14  C   UNL     1      -0.252   9.474  21.745  0.00  0.00    +0.000 A 
ATOM     15  C   UNL     1       0.591   8.407  21.435  0.00  0.00    +0.000 A 
ENDBRANCH   7  10
ENDBRANCH   2   4
BRANCH   2  16
ATOM     16  C   UNL     1       5.277   4.706  17.472  0.00  0.00    +0.000 A 
ATOM     17  C   UNL     1       6.283   5.651  17.338  0.00  0.00    +0.000 A 
ATOM     18  C   UNL     1       6.759   5.581  16.010  0.00  0.00    +0.000 A 
ATOM     19  C   UNL     1       6.012   4.618  15.362  0.00  0.00    +0.000 A 
ATOM     20  O   UNL     1       5.118   4.084  16.248  0.00  0.00    +0.000 OA
BRANCH  19  21
ATOM     21  C   UNL     1       6.107   4.193  13.999  0.00  0.00    +0.000 A 
ATOM     22  C   UNL     1       5.191   3.495  13.240  0.00  0.00    +0.000 A 
ATOM     23  C   UNL     1       5.812   3.333  11.990  0.00  0.00    +0.000 A 
ATOM     24  N   UNL     1       7.018   3.898  11.956  0.00  0.00    +0.000 NA
ATOM     25  O   UNL     1       7.203   4.440  13.215  0.00  0.00    +0.000 OA
ENDBRANCH  19  21
ENDBRANCH   2  16
TORSDOF 4
ENDMDL
