MODEL 1
REMARK VINA RESULT:      -7.0      0.000      0.000
REMARK  Name = 
REMARK  1 active torsions:
REMARK  status: ('A' for Active; 'I' for Inactive)
REMARK    1  A    between atoms: C_5  and  N_6
REMARK                            x       y       z     vdW  Elec       q    Type
REMARK                         _______ _______ _______ _____ _____    ______ ____
ROOT
ATOM      1  N   UNL     1       6.003   4.105  17.447  0.00  0.00    +0.000 N 
ATOM      2  C   UNL     1       4.712   3.828  17.988  0.00  0.00    +0.000 A 
ATOM      3  N   UNL     1       4.014   4.709  18.742  0.00  0.00    +0.000 NA
ATOM      4  C   UNL     1       2.869   4.166  19.211  0.00  0.00    +0.000 A 
ATOM      5  C   UNL     1       1.950   4.829  20.008  0.00  0.00    +0.000 A 
ATOM      6  C   UNL     1       0.811   4.123  20.431  0.00  0.00    +0.000 A 
ATOM      7  C   UNL     1       0.638   2.781  20.040  0.00  0.00    +0.000 A 
ATOM      8  N   UNL     1       1.566   2.161  19.250  0.00  0.00    +0.000 NA
ATOM      9  C   UNL     1       2.657   2.854  18.845  0.00  0.00    +0.000 A 
ATOM     10  S   UNL     1       3.938   2.315  17.891  0.00  0.00    +0.000 S 
ATOM     11  H   UNL     1       6.520   3.305  17.052  0.00  0.00    +0.000 HD
ENDROOT
BRANCH   1  16
ATOM     12 CL   UNL     1       8.762   9.343  18.456  0.00  0.00    +0.000 Cl
ATOM     13  C   UNL     1       7.993   7.802  18.120  0.00  0.00    +0.000 A 
ATOM     14  C   UNL     1       8.235   6.698  18.944  0.00  0.00    +0.000 A 
ATOM     15  C   UNL     1       7.600   5.479  18.689  0.00  0.00    +0.000 A 
ATOM     16  C   UNL     1       6.697   5.349  17.618  0.00  0.00    +0.000 A 
ATOM     17  C   UNL     1       6.493   6.467  16.775  0.00  0.00    +0.000 A 
ATOM     18  C   UNL     1       7.137   7.678  17.030  0.00  0.00    +0.000 A 
ENDBRANCH   1  16
TORSDOF 1
ENDMDL
MODEL 2
REMARK VINA RESULT:      -6.8      3.747      6.497
REMARK  Name = 
REMARK  1 active torsions:
REMARK  status: ('A' for Active; 'I' for Inactive)
REMARK    1  A    between atoms: C_5  and  N_6
REMARK                            x       y       z     vdW  Elec       q    Type
REMARK                         _______ _______ _______ _____ _____    ______ ____
ROOT
ATOM      1  N   UNL     1       5.463   5.473  18.844  0.00  0.00    +0.000 N 
ATOM      2  C   UNL     1       5.838   5.341  17.473  0.00  0.00    +0.000 A 
ATOM      3  N   UNL     1       5.249   4.471  16.619  0.00  0.00    +0.000 NA
ATOM      4  C   UNL     1       5.853   4.473  15.411  0.00  0.00    +0.000 A 
ATOM      5  C   UNL     1       5.469   3.688  14.335  0.00  0.00    +0.000 A 
ATOM      6  C   UNL     1       6.208   3.790  13.145  0.00  0.00    +0.000 A 
ATOM      7  C   UNL     1       7.303   4.674  13.079  0.00  0.00    +0.000 A 
ATOM      8  N   UNL     1       7.651   5.435  14.160  0.00  0.00    +0.000 NA
ATOM      9  C   UNL     1       6.926   5.330  15.301  0.00  0.00    +0.000 A 
ATOM     10  S   UNL     1       7.162   6.140  16.760  0.00  0.00    +0.000 S 
ATOM     11  H   UNL     1       6.096   6.024  19.444  0.00  0.00    +0.000 HD
ENDROOT
BRANCH   1  16
ATOM     12 CL   UNL     1       1.113   2.502  21.728  0.00  0.00    +0.000 Cl
ATOM     13  C   UNL     1       2.364   3.351  20.837  0.00  0.00    +0.000 A 
ATOM     14  C   UNL     1       2.258   4.726  20.608  0.00  0.00    +0.000 A 
ATOM     15  C   UNL     1       3.270   5.404  19.921  0.00  0.00    +0.000 A 
ATOM     16  C   UNL     1       4.413   4.722  19.467  0.00  0.00    +0.000 A 
ATOM     17  C   UNL     1       4.484   3.324  19.676  0.00  0.00    +0.000 A 
ATOM     18  C   UNL     1       3.468   2.653  20.355  0.00  0.00    +0.000 A 
ENDBRANCH   1  16
TORSDOF 1
ENDMDL
MODEL 3
REMARK VINA RESULT:      -6.8      0.210      1.187
REMARK  Name = 
REMARK  1 active torsions:
REMARK  status: ('A' for Active; 'I' for Inactive)
REMARK    1  A    between atoms: C_5  and  N_6
REMARK                            x       y       z     vdW  Elec       q    Type
REMARK                         _______ _______ _______ _____ _____    ______ ____
ROOT
ATOM      1  N   UNL     1       6.084   4.233  17.609  0.00  0.00    +0.000 N 
ATOM      2  C   UNL     1       4.786   3.884  18.090  0.00  0.00    +0.000 A 
ATOM      3  N   UNL     1       4.013   4.719  18.824  0.00  0.00    +0.000 NA
ATOM      4  C   UNL     1       2.877   4.114  19.234  0.00  0.00    +0.000 A 
ATOM      5  C   UNL     1       1.892   4.719  19.999  0.00  0.00    +0.000 A 
ATOM      6  C   UNL     1       0.773   3.952  20.362  0.00  0.00    +0.000 A 
ATOM      7  C   UNL     1       0.683   2.609  19.946  0.00  0.00    +0.000 A 
ATOM      8  N   UNL     1       1.674   2.047  19.190  0.00  0.00    +0.000 NA
ATOM      9  C   UNL     1       2.746   2.799  18.842  0.00  0.00    +0.000 A 
ATOM     10  S   UNL     1       4.092   2.337  17.939  0.00  0.00    +0.000 S 
ATOM     11  H   UNL     1       6.656   3.465  17.227  0.00  0.00    +0.000 HD
ENDROOT
BRANCH   1  16
ATOM     12 CL   UNL     1       8.819   9.545  18.217  0.00  0.00    +0.000 Cl
ATOM     13  C   UNL     1       7.988   8.005  18.084  0.00  0.00    +0.000 A 
ATOM     14  C   UNL     1       6.988   7.823  17.123  0.00  0.00    +0.000 A 
ATOM     15  C   UNL     1       6.347   6.587  17.002  0.00  0.00    +0.000 A 
ATOM     16  C   UNL     1       6.707   5.506  17.827  0.00  0.00    +0.000 A 
ATOM     17  C   UNL     1       7.695   5.721  18.817  0.00  0.00    +0.000 A 
ATOM     18  C   UNL     1       8.325   6.959  18.938  0.00  0.00    +0.000 A 
ENDBRANCH   1  16
TORSDOF 1
ENDMDL
MODEL 4
REMARK VINA RESULT:      -6.5      3.507      4.284
REMARK  Name = 
REMARK  1 active torsions:
REMARK  status: ('A' for Active; 'I' for Inactive)
REMARK    1  A    between atoms: C_5  and  N_6
REMARK                            x       y       z     vdW  Elec       q    Type
REMARK                         _______ _______ _______ _____ _____    ______ ____
ROOT
ATOM      1  N   UNL     1       4.759   4.525  17.937  0.00  0.00    +0.000 N 
ATOM      2  C   UNL     1       3.845   5.533  18.365  0.00  0.00    +0.000 A 
ATOM      3  N   UNL     1       3.564   6.643  17.641  0.00  0.00    +0.000 NA
ATOM      4  C   UNL     1       2.745   7.481  18.313  0.00  0.00    +0.000 A 
ATOM      5  C   UNL     1       2.285   8.694  17.824  0.00  0.00    +0.000 A 
ATOM      6  C   UNL     1       1.451   9.465  18.650  0.00  0.00    +0.000 A 
ATOM      7  C   UNL     1       1.111   8.993  19.932  0.00  0.00    +0.000 A 
ATOM      8  N   UNL     1       1.582   7.790  20.380  0.00  0.00    +0.000 NA
ATOM      9  C   UNL     1       2.382   7.053  19.571  0.00  0.00    +0.000 A 
ATOM     10  S   UNL     1       3.097   5.562  19.895  0.00  0.00    +0.000 S 
ATOM     11  H   UNL     1       5.038   3.826  18.642  0.00  0.00    +0.000 HD
ENDROOT
BRANCH   1  16
ATOM     12 CL   UNL     1       7.740   4.986  12.744  0.00  0.00    +0.000 Cl
ATOM     13  C   UNL     1       6.880   4.796  14.261  0.00  0.00    +0.000 A 
ATOM     14  C   UNL     1       7.484   5.169  15.466  0.00  0.00    +0.000 A 
ATOM     15  C   UNL     1       6.786   5.041  16.671  0.00  0.00    +0.000 A 
ATOM     16  C   UNL     1       5.466   4.557  16.690  0.00  0.00    +0.000 A 
ATOM     17  C   UNL     1       4.885   4.151  15.464  0.00  0.00    +0.000 A 
ATOM     18  C   UNL     1       5.590   4.273  14.267  0.00  0.00    +0.000 A 
ENDBRANCH   1  16
TORSDOF 1
ENDMDL
MODEL 5
REMARK VINA RESULT:      -6.4      3.748      6.403
REMARK  Name = 
REMARK  1 active torsions:
REMARK  status: ('A' for Active; 'I' for Inactive)
REMARK    1  A    between atoms: C_5  and  N_6
REMARK                            x       y       z     vdW  Elec       q    Type
REMARK                         _______ _______ _______ _____ _____    ______ ____
ROOT
ATOM      1  N   UNL     1       5.576   5.570  18.810  0.00  0.00    +0.000 N 
ATOM      2  C   UNL     1       5.918   5.402  17.434  0.00  0.00    +0.000 A 
ATOM      3  N   UNL     1       5.258   4.567  16.598  0.00  0.00    +0.000 NA
ATOM      4  C   UNL     1       5.841   4.520  15.380  0.00  0.00    +0.000 A 
ATOM      5  C   UNL     1       5.387   3.754  14.317  0.00  0.00    +0.000 A 
ATOM      6  C   UNL     1       6.112   3.797  13.115  0.00  0.00    +0.000 A 
ATOM      7  C   UNL     1       7.263   4.603  13.023  0.00  0.00    +0.000 A 
ATOM      8  N   UNL     1       7.679   5.347  14.092  0.00  0.00    +0.000 NA
ATOM      9  C   UNL     1       6.968   5.301  15.245  0.00  0.00    +0.000 A 
ATOM     10  S   UNL     1       7.281   6.104  16.693  0.00  0.00    +0.000 S 
ATOM     11  H   UNL     1       6.254   6.081  19.395  0.00  0.00    +0.000 HD
ENDROOT
BRANCH   1  16
ATOM     12 CL   UNL     1       0.977   2.571  21.243  0.00  0.00    +0.000 Cl
ATOM     13  C   UNL     1       2.335   3.465  20.583  0.00  0.00    +0.000 A 
ATOM     14  C   UNL     1       3.513   2.800  20.229  0.00  0.00    +0.000 A 
ATOM     15  C   UNL     1       4.583   3.512  19.678  0.00  0.00    +0.000 A 
ATOM     16  C   UNL     1       4.487   4.897  19.456  0.00  0.00    +0.000 A 
ATOM     17  C   UNL     1       3.301   5.558  19.855  0.00  0.00    +0.000 A 
ATOM     18  C   UNL     1       2.240   4.843  20.411  0.00  0.00    +0.000 A 
ENDBRANCH   1  16
TORSDOF 1
ENDMDL
MODEL 6
REMARK VINA RESULT:      -6.4      4.719      6.480
REMARK  Name = 
REMARK  1 active torsions:
REMARK  status: ('A' for Active; 'I' for Inactive)
REMARK    1  A    between atoms: C_5  and  N_6
REMARK                            x       y       z     vdW  Elec       q    Type
REMARK                         _______ _______ _______ _____ _____    ______ ____
ROOT
ATOM      1  N   UNL     1       1.963   8.270  19.535  0.00  0.00    +0.000 N 
ATOM      2  C   UNL     1       2.291   6.886  19.652  0.00  0.00    +0.000 A 
ATOM      3  N   UNL     1       1.816   6.087  20.636  0.00  0.00    +0.000 NA
ATOM      4  C   UNL     1       2.354   4.850  20.576  0.00  0.00    +0.000 A 
ATOM      5  C   UNL     1       2.057   3.817  21.451  0.00  0.00    +0.000 A 
ATOM      6  C   UNL     1       2.712   2.588  21.270  0.00  0.00    +0.000 A 
ATOM      7  C   UNL     1       3.641   2.442  20.222  0.00  0.00    +0.000 A 
ATOM      8  N   UNL     1       3.907   3.483  19.376  0.00  0.00    +0.000 NA
ATOM      9  C   UNL     1       3.264   4.662  19.559  0.00  0.00    +0.000 A 
ATOM     10  S   UNL     1       3.429   6.085  18.671  0.00  0.00    +0.000 S 
ATOM     11  H   UNL     1       2.523   8.822  18.867  0.00  0.00    +0.000 HD
ENDROOT
BRANCH   1  16
ATOM     12 CL   UNL     1      -1.592  11.468  23.169  0.00  0.00    +0.000 Cl
ATOM     13  C   UNL     1      -0.588  10.490  22.114  0.00  0.00    +0.000 A 
ATOM     14  C   UNL     1      -0.665  10.641  20.726  0.00  0.00    +0.000 A 
ATOM     15  C   UNL     1       0.156   9.879  19.889  0.00  0.00    +0.000 A 
ATOM     16  C   UNL     1       1.082   8.966  20.426  0.00  0.00    +0.000 A 
ATOM     17  C   UNL     1       1.119   8.802  21.832  0.00  0.00    +0.000 A 
ATOM     18  C   UNL     1       0.291   9.559  22.660  0.00  0.00    +0.000 A 
ENDBRANCH   1  16
TORSDOF 1
ENDMDL
MODEL 7
REMARK VINA RESULT:      -6.2      2.988      3.689
REMARK  Name = 
REMARK  1 active torsions:
REMARK  status: ('A' for Active; 'I' for Inactive)
REMARK    1  A    between atoms: C_5  and  N_6
REMARK                            x       y       z     vdW  Elec       q    Type
REMARK                         _______ _______ _______ _____ _____    ______ ____
ROOT
ATOM      1  N   UNL     1       4.874   3.442  17.250  0.00  0.00    +0.000 N 
ATOM      2  C   UNL     1       4.011   4.303  17.992  0.00  0.00    +0.000 A 
ATOM      3  N   UNL     1       3.835   5.614  17.702  0.00  0.00    +0.000 NA
ATOM      4  C   UNL     1       3.046   6.224  18.613  0.00  0.00    +0.000 A 
ATOM      5  C   UNL     1       2.688   7.562  18.577  0.00  0.00    +0.000 A 
ATOM      6  C   UNL     1       1.872   8.056  19.608  0.00  0.00    +0.000 A 
ATOM      7  C   UNL     1       1.447   7.192  20.635  0.00  0.00    +0.000 A 
ATOM      8  N   UNL     1       1.819   5.876  20.636  0.00  0.00    +0.000 NA
ATOM      9  C   UNL     1       2.602   5.410  19.633  0.00  0.00    +0.000 A 
ATOM     10  S   UNL     1       3.203   3.850  19.420  0.00  0.00    +0.000 S 
ATOM     11  H   UNL     1       5.077   2.521  17.667  0.00  0.00    +0.000 HD
ENDROOT
BRANCH   1  16
ATOM     12 CL   UNL     1       8.009   5.486  12.553  0.00  0.00    +0.000 Cl
ATOM     13  C   UNL     1       7.115   4.838  13.916  0.00  0.00    +0.000 A 
ATOM     14  C   UNL     1       7.560   5.062  15.223  0.00  0.00    +0.000 A 
ATOM     15  C   UNL     1       6.830   4.567  16.308  0.00  0.00    +0.000 A 
ATOM     16  C   UNL     1       5.634   3.856  16.106  0.00  0.00    +0.000 A 
ATOM     17  C   UNL     1       5.220   3.609  14.776  0.00  0.00    +0.000 A 
ATOM     18  C   UNL     1       5.956   4.098  13.697  0.00  0.00    +0.000 A 
ENDBRANCH   1  16
TORSDOF 1
ENDMDL
MODEL 8
REMARK VINA RESULT:      -6.2      4.868      6.205
REMARK  Name = 
REMARK  1 active torsions:
REMARK  status: ('A' for Active; 'I' for Inactive)
REMARK    1  A    between atoms: C_5  and  N_6
REMARK                            x       y       z     vdW  Elec       q    Type
REMARK                         _______ _______ _______ _____ _____    ______ ____
ROOT
ATOM      1  N   UNL     1       2.666   7.307  17.850  0.00  0.00    +0.000 N 
ATOM      2  C   UNL     1       2.033   8.214  18.753  0.00  0.00    +0.000 A 
ATOM      3  N   UNL     1       1.772   7.918  20.048  0.00  0.00    +0.000 NA
ATOM      4  C   UNL     1       1.081   8.907  20.655  0.00  0.00    +0.000 A 
ATOM      5  C   UNL     1       0.675   8.887  21.980  0.00  0.00    +0.000 A 
ATOM      6  C   UNL     1      -0.052   9.987  22.465  0.00  0.00    +0.000 A 
ATOM      7  C   UNL     1      -0.345  11.063  21.605  0.00  0.00    +0.000 A 
ATOM      8  N   UNL     1       0.076  11.049  20.304  0.00  0.00    +0.000 NA
ATOM      9  C   UNL     1       0.780   9.984  19.850  0.00  0.00    +0.000 A 
ATOM     10  S   UNL     1       1.389   9.724  18.300  0.00  0.00    +0.000 S 
ATOM     11  H   UNL     1       2.645   7.561  16.851  0.00  0.00    +0.000 HD
ENDROOT
BRANCH   1  16
ATOM     12 CL   UNL     1       4.317   1.805  19.601  0.00  0.00    +0.000 Cl
ATOM     13  C   UNL     1       3.863   3.405  19.042  0.00  0.00    +0.000 A 
ATOM     14  C   UNL     1       2.585   3.635  18.523  0.00  0.00    +0.000 A 
ATOM     15  C   UNL     1       2.217   4.917  18.103  0.00  0.00    +0.000 A 
ATOM     16  C   UNL     1       3.115   5.995  18.212  0.00  0.00    +0.000 A 
ATOM     17  C   UNL     1       4.415   5.734  18.706  0.00  0.00    +0.000 A 
ATOM     18  C   UNL     1       4.778   4.451  19.115  0.00  0.00    +0.000 A 
ENDBRANCH   1  16
TORSDOF 1
ENDMDL
MODEL 9
REMARK VINA RESULT:      -6.2      4.248      5.660
REMARK  Name = 
REMARK  1 active torsions:
REMARK  status: ('A' for Active; 'I' for Inactive)
REMARK    1  A    between atoms: C_5  and  N_6
REMARK                            x       y       z     vdW  Elec       q    Type
REMARK                         _______ _______ _______ _____ _____    ______ ____
ROOT
ATOM      1  N   UNL     1       2.942   7.857  18.204  0.00  0.00    +0.000 N 
ATOM      2  C   UNL     1       2.949   6.432  18.117  0.00  0.00    +0.000 A 
ATOM      3  N   UNL     1       1.946   5.652  18.584  0.00  0.00    +0.000 NA
ATOM      4  C   UNL     1       2.242   4.339  18.468  0.00  0.00    +0.000 A 
ATOM      5  C   UNL     1       1.407   3.304  18.860  0.00  0.00    +0.000 A 
ATOM      6  C   UNL     1       1.863   1.987  18.690  0.00  0.00    +0.000 A 
ATOM      7  C   UNL     1       3.137   1.756  18.136  0.00  0.00    +0.000 A 
ATOM      8  N   UNL     1       3.932   2.803  17.758  0.00  0.00    +0.000 NA
ATOM      9  C   UNL     1       3.479   4.069  17.923  0.00  0.00    +0.000 A 
ATOM     10  S   UNL     1       4.267   5.513  17.556  0.00  0.00    +0.000 S 
ATOM     11  H   UNL     1       3.830   8.336  17.990  0.00  0.00    +0.000 HD
ENDROOT
BRANCH   1  16
ATOM     12 CL   UNL     1      -1.383  11.341  20.489  0.00  0.00    +0.000 Cl
ATOM     13  C   UNL     1      -0.154  10.279  19.824  0.00  0.00    +0.000 A 
ATOM     14  C   UNL     1       0.117  10.287  18.452  0.00  0.00    +0.000 A 
ATOM     15  C   UNL     1       1.116   9.459  17.929  0.00  0.00    +0.000 A 
ATOM     16  C   UNL     1       1.872   8.624  18.771  0.00  0.00    +0.000 A 
ATOM     17  C   UNL     1       1.557   8.604  20.151  0.00  0.00    +0.000 A 
ATOM     18  C   UNL     1       0.554   9.426  20.665  0.00  0.00    +0.000 A 
ENDBRANCH   1  16
TORSDOF 1
ENDMDL
