MODEL 1
REMARK VINA RESULT:      -7.8      0.000      0.000
REMARK  Name = 
REMARK  13 active torsions:
REMARK  status: ('A' for Active; 'I' for Inactive)
REMARK    1  A    between atoms: C_1  and  C_2
REMARK    2  A    between atoms: C_4  and  N_5
REMARK    3  A    between atoms: N_5  and  C_6
REMARK    4  A    between atoms: C_6  and  C_7
REMARK    5  A    between atoms: C_7  and  C_8
REMARK    6  A    between atoms: C_8  and  C_9
REMARK    7  A    between atoms: C_9  and  C_10
REMARK    8  A    between atoms: C_10  and  C_11
REMARK    9  A    between atoms: C_11  and  N_12
REMARK   10  A    between atoms: N_12  and  C_13
REMARK   11  A    between atoms: C_15  and  C_16
REMARK   12  A    between atoms: C_20  and  N_21
REMARK   13  A    between atoms: C_28  and  N_29
REMARK                            x       y       z     vdW  Elec       q    Type
REMARK                         _______ _______ _______ _____ _____    ______ ____
ROOT
ATOM      1  C   UNL     1       1.105   3.394  17.954  0.00  0.00    +0.000 C 
ENDROOT
BRANCH   1   2
ATOM      2  C   UNL     1       2.437   3.775  17.329  0.00  0.00    +0.000 C 
BRANCH   2   3
ATOM      3  C   UNL     1       3.599   3.168  18.122  0.00  0.00    +0.000 C 
BRANCH   3   4
ATOM      4  N   UNL     1       4.709   2.872  17.261  0.00  0.00    +0.000 N 
ATOM      5  H   UNL     1       4.747   1.926  16.868  0.00  0.00    +0.000 HD
BRANCH   4   9
ATOM      6  C   UNL     1       7.826   6.486  18.701  0.00  0.00    +0.000 C 
ATOM      7  C   UNL     1       7.222   5.626  17.628  0.00  0.00    +0.000 A 
ATOM      8  C   UNL     1       6.270   4.655  17.945  0.00  0.00    +0.000 A 
ATOM      9  C   UNL     1       5.692   3.858  16.931  0.00  0.00    +0.000 A 
ATOM     10  C   UNL     1       6.093   4.069  15.588  0.00  0.00    +0.000 A 
ATOM     11  C   UNL     1       5.558   3.341  14.503  0.00  0.00    +0.000 A 
ATOM     12  C   UNL     1       5.983   3.592  13.203  0.00  0.00    +0.000 A 
ATOM     13  C   UNL     1       6.949   4.566  12.948  0.00  0.00    +0.000 A 
ATOM     14  C   UNL     1       7.491   5.300  14.009  0.00  0.00    +0.000 A 
ATOM     15  C   UNL     1       7.069   5.063  15.322  0.00  0.00    +0.000 A 
ATOM     16  N   UNL     1       7.597   5.800  16.336  0.00  0.00    +0.000 NA
BRANCH  13  17
ATOM     17  N   UNL     1       7.371   4.802  11.619  0.00  0.00    +0.000 N 
ATOM     18  H   UNL     1       7.214   4.091  10.888  0.00  0.00    +0.000 HD
ATOM     19  H   UNL     1       7.839   5.682  11.365  0.00  0.00    +0.000 HD
ENDBRANCH  13  17
ENDBRANCH   4   9
ENDBRANCH   3   4
ENDBRANCH   2   3
ENDBRANCH   1   2
BRANCH   1  20
ATOM     20  C   UNL     1       1.234   3.038  19.452  0.00  0.00    +0.000 C 
BRANCH  20  21
ATOM     21  C   UNL     1       0.887   4.212  20.354  0.00  0.00    +0.000 C 
BRANCH  21  22
ATOM     22  C   UNL     1       2.141   4.742  21.053  0.00  0.00    +0.000 C 
BRANCH  22  23
ATOM     23  N   UNL     1       2.097   6.170  21.185  0.00  0.00    +0.000 N 
ATOM     24  H   UNL     1       2.027   6.542  22.136  0.00  0.00    +0.000 HD
BRANCH  23  25
ATOM     25  C   UNL     1       2.191   7.030  20.047  0.00  0.00    +0.000 A 
ATOM     26  C   UNL     1       3.058   6.705  18.980  0.00  0.00    +0.000 A 
ATOM     27  C   UNL     1       3.158   7.540  17.867  0.00  0.00    +0.000 A 
ATOM     28  C   UNL     1       4.096   7.207  16.744  0.00  0.00    +0.000 C 
ATOM     29  N   UNL     1       2.405   8.669  17.806  0.00  0.00    +0.000 NA
ATOM     30  C   UNL     1       1.561   9.032  18.810  0.00  0.00    +0.000 A 
ATOM     31  C   UNL     1       0.825  10.215  18.699  0.00  0.00    +0.000 A 
ATOM     32  C   UNL     1      -0.031  10.622  19.730  0.00  0.00    +0.000 A 
ATOM     33  C   UNL     1      -0.150   9.835  20.876  0.00  0.00    +0.000 A 
ATOM     34  C   UNL     1       0.566   8.651  20.998  0.00  0.00    +0.000 A 
ATOM     35  C   UNL     1       1.435   8.224  19.967  0.00  0.00    +0.000 A 
BRANCH  32  36
ATOM     36  N   UNL     1      -0.767  11.823  19.628  0.00  0.00    +0.000 N 
ATOM     37  H   UNL     1      -0.404  12.617  19.079  0.00  0.00    +0.000 HD
ATOM     38  H   UNL     1      -1.673  11.923  20.109  0.00  0.00    +0.000 HD
ENDBRANCH  32  36
ENDBRANCH  23  25
ENDBRANCH  22  23
ENDBRANCH  21  22
ENDBRANCH  20  21
ENDBRANCH   1  20
TORSDOF 11
ENDMDL
MODEL 2
REMARK VINA RESULT:      -7.6      4.980      8.374
REMARK  Name = 
REMARK  13 active torsions:
REMARK  status: ('A' for Active; 'I' for Inactive)
REMARK    1  A    between atoms: C_1  and  C_2
REMARK    2  A    between atoms: C_4  and  N_5
REMARK    3  A    between atoms: N_5  and  C_6
REMARK    4  A    between atoms: C_6  and  C_7
REMARK    5  A    between atoms: C_7  and  C_8
REMARK    6  A    between atoms: C_8  and  C_9
REMARK    7  A    between atoms: C_9  and  C_10
REMARK    8  A    between atoms: C_10  and  C_11
REMARK    9  A    between atoms: C_11  and  N_12
REMARK   10  A    between atoms: N_12  and  C_13
REMARK   11  A    between atoms: C_15  and  C_16
REMARK   12  A    between atoms: C_20  and  N_21
REMARK   13  A    between atoms: C_28  and  N_29
REMARK                            x       y       z     vdW  Elec       q    Type
REMARK                         _______ _______ _______ _____ _____    ______ ____
ROOT
ATOM      1  C   UNL     1       8.049   5.844  18.604  0.00  0.00    +0.000 C 
ENDROOT
BRANCH   1   2
ATOM      2  C   UNL     1       7.319   4.625  18.062  0.00  0.00    +0.000 C 
BRANCH   2   3
ATOM      3  C   UNL     1       6.578   4.970  16.767  0.00  0.00    +0.000 C 
BRANCH   3   4
ATOM      4  N   UNL     1       5.214   4.525  16.821  0.00  0.00    +0.000 N 
ATOM      5  H   UNL     1       4.977   3.696  16.266  0.00  0.00    +0.000 HD
BRANCH   4   9
ATOM      6  C   UNL     1       2.502   8.570  17.887  0.00  0.00    +0.000 C 
ATOM      7  C   UNL     1       2.907   7.152  18.168  0.00  0.00    +0.000 A 
ATOM      8  C   UNL     1       3.849   6.506  17.365  0.00  0.00    +0.000 A 
ATOM      9  C   UNL     1       4.239   5.177  17.643  0.00  0.00    +0.000 A 
ATOM     10  C   UNL     1       3.662   4.516  18.754  0.00  0.00    +0.000 A 
ATOM     11  C   UNL     1       4.002   3.198  19.127  0.00  0.00    +0.000 A 
ATOM     12  C   UNL     1       3.408   2.597  20.231  0.00  0.00    +0.000 A 
ATOM     13  C   UNL     1       2.461   3.286  20.989  0.00  0.00    +0.000 A 
ATOM     14  C   UNL     1       2.110   4.595  20.638  0.00  0.00    +0.000 A 
ATOM     15  C   UNL     1       2.704   5.214  19.533  0.00  0.00    +0.000 A 
ATOM     16  N   UNL     1       2.359   6.493  19.220  0.00  0.00    +0.000 NA
BRANCH  13  17
ATOM     17  N   UNL     1       1.864   2.655  22.106  0.00  0.00    +0.000 N 
ATOM     18  H   UNL     1       1.183   3.164  22.689  0.00  0.00    +0.000 HD
ATOM     19  H   UNL     1       2.102   1.685  22.351  0.00  0.00    +0.000 HD
ENDBRANCH  13  17
ENDBRANCH   4   9
ENDBRANCH   3   4
ENDBRANCH   2   3
ENDBRANCH   1   2
BRANCH   1  20
ATOM     20  C   UNL     1       7.267   7.155  18.365  0.00  0.00    +0.000 C 
BRANCH  20  21
ATOM     21  C   UNL     1       8.017   8.115  17.456  0.00  0.00    +0.000 C 
BRANCH  21  22
ATOM     22  C   UNL     1       7.996   9.532  18.035  0.00  0.00    +0.000 C 
BRANCH  22  23
ATOM     23  N   UNL     1       9.326  10.018  18.262  0.00  0.00    +0.000 N 
ATOM     24  H   UNL     1      10.083   9.538  17.767  0.00  0.00    +0.000 HD
BRANCH  23  25
ATOM     25  C   UNL     1       9.577  11.147  19.102  0.00  0.00    +0.000 A 
ATOM     26  C   UNL     1       9.147  11.142  20.449  0.00  0.00    +0.000 A 
ATOM     27  C   UNL     1       9.386  12.240  21.274  0.00  0.00    +0.000 A 
ATOM     28  C   UNL     1       8.909  12.243  22.698  0.00  0.00    +0.000 C 
ATOM     29  N   UNL     1      10.047  13.319  20.781  0.00  0.00    +0.000 NA
ATOM     30  C   UNL     1      10.474  13.379  19.491  0.00  0.00    +0.000 A 
ATOM     31  C   UNL     1      11.133  14.524  19.035  0.00  0.00    +0.000 A 
ATOM     32  C   UNL     1      11.559  14.619  17.704  0.00  0.00    +0.000 A 
ATOM     33  C   UNL     1      11.325  13.558  16.828  0.00  0.00    +0.000 A 
ATOM     34  C   UNL     1      10.681  12.408  17.268  0.00  0.00    +0.000 A 
ATOM     35  C   UNL     1      10.243  12.294  18.609  0.00  0.00    +0.000 A 
BRANCH  32  36
ATOM     36  N   UNL     1      12.214  15.779  17.234  0.00  0.00    +0.000 N 
ATOM     37  H   UNL     1      12.096  16.091  16.259  0.00  0.00    +0.000 HD
ATOM     38  H   UNL     1      12.825  16.324  17.860  0.00  0.00    +0.000 HD
ENDBRANCH  32  36
ENDBRANCH  23  25
ENDBRANCH  22  23
ENDBRANCH  21  22
ENDBRANCH  20  21
ENDBRANCH   1  20
TORSDOF 11
ENDMDL
MODEL 3
REMARK VINA RESULT:      -7.5      3.020      6.018
REMARK  Name = 
REMARK  13 active torsions:
REMARK  status: ('A' for Active; 'I' for Inactive)
REMARK    1  A    between atoms: C_1  and  C_2
REMARK    2  A    between atoms: C_4  and  N_5
REMARK    3  A    between atoms: N_5  and  C_6
REMARK    4  A    between atoms: C_6  and  C_7
REMARK    5  A    between atoms: C_7  and  C_8
REMARK    6  A    between atoms: C_8  and  C_9
REMARK    7  A    between atoms: C_9  and  C_10
REMARK    8  A    between atoms: C_10  and  C_11
REMARK    9  A    between atoms: C_11  and  N_12
REMARK   10  A    between atoms: N_12  and  C_13
REMARK   11  A    between atoms: C_15  and  C_16
REMARK   12  A    between atoms: C_20  and  N_21
REMARK   13  A    between atoms: C_28  and  N_29
REMARK                            x       y       z     vdW  Elec       q    Type
REMARK                         _______ _______ _______ _____ _____    ______ ____
ROOT
ATOM      1  C   UNL     1       2.028   9.474  17.844  0.00  0.00    +0.000 C 
ENDROOT
BRANCH   1   2
ATOM      2  C   UNL     1       2.109   7.959  17.944  0.00  0.00    +0.000 C 
BRANCH   2   3
ATOM      3  C   UNL     1       2.166   7.517  19.410  0.00  0.00    +0.000 C 
BRANCH   3   4
ATOM      4  N   UNL     1       3.254   6.606  19.630  0.00  0.00    +0.000 N 
ATOM      5  H   UNL     1       3.868   6.806  20.427  0.00  0.00    +0.000 HD
BRANCH   4   9
ATOM      6  C   UNL     1       1.936   1.975  18.341  0.00  0.00    +0.000 C 
ATOM      7  C   UNL     1       2.808   3.185  18.170  0.00  0.00    +0.000 A 
ATOM      8  C   UNL     1       2.617   4.319  18.961  0.00  0.00    +0.000 A 
ATOM      9  C   UNL     1       3.449   5.451  18.808  0.00  0.00    +0.000 A 
ATOM     10  C   UNL     1       4.485   5.408  17.843  0.00  0.00    +0.000 A 
ATOM     11  C   UNL     1       5.383   6.477  17.630  0.00  0.00    +0.000 A 
ATOM     12  C   UNL     1       6.385   6.381  16.672  0.00  0.00    +0.000 A 
ATOM     13  C   UNL     1       6.520   5.227  15.899  0.00  0.00    +0.000 A 
ATOM     14  C   UNL     1       5.642   4.155  16.095  0.00  0.00    +0.000 A 
ATOM     15  C   UNL     1       4.631   4.234  17.060  0.00  0.00    +0.000 A 
ATOM     16  N   UNL     1       3.799   3.174  17.244  0.00  0.00    +0.000 NA
BRANCH  13  17
ATOM     17  N   UNL     1       7.544   5.151  14.926  0.00  0.00    +0.000 N 
ATOM     18  H   UNL     1       7.381   4.653  14.037  0.00  0.00    +0.000 HD
ATOM     19  H   UNL     1       8.459   5.589  15.091  0.00  0.00    +0.000 HD
ENDBRANCH  13  17
ENDBRANCH   4   9
ENDBRANCH   3   4
ENDBRANCH   2   3
ENDBRANCH   1   2
BRANCH   1  20
ATOM     20  C   UNL     1       1.118  10.091  18.930  0.00  0.00    +0.000 C 
BRANCH  20  21
ATOM     21  C   UNL     1       1.277  11.600  19.023  0.00  0.00    +0.000 C 
BRANCH  21  22
ATOM     22  C   UNL     1       0.153  12.207  19.866  0.00  0.00    +0.000 C 
BRANCH  22  23
ATOM     23  N   UNL     1      -0.956  11.305  19.978  0.00  0.00    +0.000 N 
ATOM     24  H   UNL     1      -0.776  10.411  20.445  0.00  0.00    +0.000 HD
BRANCH  23  25
ATOM     25  C   UNL     1      -2.257  11.654  19.503  0.00  0.00    +0.000 A 
ATOM     26  C   UNL     1      -3.127  12.422  20.310  0.00  0.00    +0.000 A 
ATOM     27  C   UNL     1      -4.400  12.766  19.855  0.00  0.00    +0.000 A 
ATOM     28  C   UNL     1      -5.332  13.562  20.721  0.00  0.00    +0.000 C 
ATOM     29  N   UNL     1      -4.801  12.368  18.619  0.00  0.00    +0.000 NA
ATOM     30  C   UNL     1      -4.006  11.621  17.806  0.00  0.00    +0.000 A 
ATOM     31  C   UNL     1      -4.480  11.225  16.552  0.00  0.00    +0.000 A 
ATOM     32  C   UNL     1      -3.690  10.434  15.708  0.00  0.00    +0.000 A 
ATOM     33  C   UNL     1      -2.417  10.042  16.124  0.00  0.00    +0.000 A 
ATOM     34  C   UNL     1      -1.926  10.436  17.363  0.00  0.00    +0.000 A 
ATOM     35  C   UNL     1      -2.709  11.234  18.229  0.00  0.00    +0.000 A 
BRANCH  32  36
ATOM     36  N   UNL     1      -4.169  10.021  14.445  0.00  0.00    +0.000 N 
ATOM     37  H   UNL     1      -4.326  10.707  13.692  0.00  0.00    +0.000 HD
ATOM     38  H   UNL     1      -4.374   9.027  14.264  0.00  0.00    +0.000 HD
ENDBRANCH  32  36
ENDBRANCH  23  25
ENDBRANCH  22  23
ENDBRANCH  21  22
ENDBRANCH  20  21
ENDBRANCH   1  20
TORSDOF 11
ENDMDL
MODEL 4
REMARK VINA RESULT:      -7.4      0.857      1.021
REMARK  Name = 
REMARK  13 active torsions:
REMARK  status: ('A' for Active; 'I' for Inactive)
REMARK    1  A    between atoms: C_1  and  C_2
REMARK    2  A    between atoms: C_4  and  N_5
REMARK    3  A    between atoms: N_5  and  C_6
REMARK    4  A    between atoms: C_6  and  C_7
REMARK    5  A    between atoms: C_7  and  C_8
REMARK    6  A    between atoms: C_8  and  C_9
REMARK    7  A    between atoms: C_9  and  C_10
REMARK    8  A    between atoms: C_10  and  C_11
REMARK    9  A    between atoms: C_11  and  N_12
REMARK   10  A    between atoms: N_12  and  C_13
REMARK   11  A    between atoms: C_15  and  C_16
REMARK   12  A    between atoms: C_20  and  N_21
REMARK   13  A    between atoms: C_28  and  N_29
REMARK                            x       y       z     vdW  Elec       q    Type
REMARK                         _______ _______ _______ _____ _____    ______ ____
ROOT
ATOM      1  C   UNL     1       2.351   2.534  19.566  0.00  0.00    +0.000 C 
ENDROOT
BRANCH   1   2
ATOM      2  C   UNL     1       3.147   1.489  18.801  0.00  0.00    +0.000 C 
BRANCH   2   3
ATOM      3  C   UNL     1       3.624   2.050  17.458  0.00  0.00    +0.000 C 
BRANCH   3   4
ATOM      4  N   UNL     1       3.812   3.472  17.531  0.00  0.00    +0.000 N 
ATOM      5  H   UNL     1       2.985   4.034  17.756  0.00  0.00    +0.000 HD
BRANCH   4   9
ATOM      6  C   UNL     1       7.841   5.684  19.460  0.00  0.00    +0.000 C 
ATOM      7  C   UNL     1       7.073   5.154  18.283  0.00  0.00    +0.000 A 
ATOM      8  C   UNL     1       5.824   4.557  18.457  0.00  0.00    +0.000 A 
ATOM      9  C   UNL     1       5.097   4.073  17.346  0.00  0.00    +0.000 A 
ATOM     10  C   UNL     1       5.658   4.213  16.053  0.00  0.00    +0.000 A 
ATOM     11  C   UNL     1       5.002   3.783  14.879  0.00  0.00    +0.000 A 
ATOM     12  C   UNL     1       5.596   3.949  13.633  0.00  0.00    +0.000 A 
ATOM     13  C   UNL     1       6.855   4.540  13.521  0.00  0.00    +0.000 A 
ATOM     14  C   UNL     1       7.523   4.975  14.672  0.00  0.00    +0.000 A 
ATOM     15  C   UNL     1       6.935   4.820  15.932  0.00  0.00    +0.000 A 
ATOM     16  N   UNL     1       7.594   5.265  17.035  0.00  0.00    +0.000 NA
BRANCH  13  17
ATOM     17  N   UNL     1       7.445   4.695  12.244  0.00  0.00    +0.000 N 
ATOM     18  H   UNL     1       7.337   3.960  11.528  0.00  0.00    +0.000 HD
ATOM     19  H   UNL     1       7.986   5.539  12.015  0.00  0.00    +0.000 HD
ENDBRANCH  13  17
ENDBRANCH   4   9
ENDBRANCH   3   4
ENDBRANCH   2   3
ENDBRANCH   1   2
BRANCH   1  20
ATOM     20  C   UNL     1       2.876   2.743  21.004  0.00  0.00    +0.000 C 
BRANCH  20  21
ATOM     21  C   UNL     1       2.217   3.929  21.690  0.00  0.00    +0.000 C 
BRANCH  21  22
ATOM     22  C   UNL     1       1.540   4.837  20.661  0.00  0.00    +0.000 C 
BRANCH  22  23
ATOM     23  N   UNL     1       1.854   6.215  20.901  0.00  0.00    +0.000 N 
ATOM     24  H   UNL     1       1.941   6.504  21.880  0.00  0.00    +0.000 HD
BRANCH  23  25
ATOM     25  C   UNL     1       2.079   7.130  19.826  0.00  0.00    +0.000 A 
ATOM     26  C   UNL     1       2.960   6.790  18.775  0.00  0.00    +0.000 A 
ATOM     27  C   UNL     1       3.187   7.677  17.723  0.00  0.00    +0.000 A 
ATOM     28  C   UNL     1       4.140   7.325  16.619  0.00  0.00    +0.000 C 
ATOM     29  N   UNL     1       2.546   8.875  17.705  0.00  0.00    +0.000 NA
ATOM     30  C   UNL     1       1.694   9.254  18.697  0.00  0.00    +0.000 A 
ATOM     31  C   UNL     1       1.077  10.507  18.633  0.00  0.00    +0.000 A 
ATOM     32  C   UNL     1       0.217  10.930  19.654  0.00  0.00    +0.000 A 
ATOM     33  C   UNL     1      -0.027  10.091  20.742  0.00  0.00    +0.000 A 
ATOM     34  C   UNL     1       0.570   8.838  20.815  0.00  0.00    +0.000 A 
ATOM     35  C   UNL     1       1.441   8.393  19.793  0.00  0.00    +0.000 A 
BRANCH  32  36
ATOM     36  N   UNL     1      -0.399  12.201  19.602  0.00  0.00    +0.000 N 
ATOM     37  H   UNL     1      -0.670  12.617  18.698  0.00  0.00    +0.000 HD
ATOM     38  H   UNL     1      -0.579  12.730  20.467  0.00  0.00    +0.000 HD
ENDBRANCH  32  36
ENDBRANCH  23  25
ENDBRANCH  22  23
ENDBRANCH  21  22
ENDBRANCH  20  21
ENDBRANCH   1  20
TORSDOF 11
ENDMDL
MODEL 5
REMARK VINA RESULT:      -7.4      1.129      7.325
REMARK  Name = 
REMARK  13 active torsions:
REMARK  status: ('A' for Active; 'I' for Inactive)
REMARK    1  A    between atoms: C_1  and  C_2
REMARK    2  A    between atoms: C_4  and  N_5
REMARK    3  A    between atoms: N_5  and  C_6
REMARK    4  A    between atoms: C_6  and  C_7
REMARK    5  A    between atoms: C_7  and  C_8
REMARK    6  A    between atoms: C_8  and  C_9
REMARK    7  A    between atoms: C_9  and  C_10
REMARK    8  A    between atoms: C_10  and  C_11
REMARK    9  A    between atoms: C_11  and  N_12
REMARK   10  A    between atoms: N_12  and  C_13
REMARK   11  A    between atoms: C_15  and  C_16
REMARK   12  A    between atoms: C_20  and  N_21
REMARK   13  A    between atoms: C_28  and  N_29
REMARK                            x       y       z     vdW  Elec       q    Type
REMARK                         _______ _______ _______ _____ _____    ______ ____
ROOT
ATOM      1  C   UNL     1       1.041   3.003  20.243  0.00  0.00    +0.000 C 
ENDROOT
BRANCH   1   2
ATOM      2  C   UNL     1       1.770   3.499  21.482  0.00  0.00    +0.000 C 
BRANCH   2   3
ATOM      3  C   UNL     1       2.597   4.747  21.159  0.00  0.00    +0.000 C 
BRANCH   3   4
ATOM      4  N   UNL     1       1.785   5.930  21.220  0.00  0.00    +0.000 N 
ATOM      5  H   UNL     1       1.154   6.015  22.023  0.00  0.00    +0.000 HD
BRANCH   4   9
ATOM      6  C   UNL     1       3.650   7.596  16.908  0.00  0.00    +0.000 C 
ATOM      7  C   UNL     1       2.788   7.783  18.122  0.00  0.00    +0.000 A 
ATOM      8  C   UNL     1       2.681   6.777  19.083  0.00  0.00    +0.000 A 
ATOM      9  C   UNL     1       1.881   6.963  20.233  0.00  0.00    +0.000 A 
ATOM     10  C   UNL     1       1.197   8.193  20.394  0.00  0.00    +0.000 A 
ATOM     11  C   UNL     1       0.392   8.484  21.517  0.00  0.00    +0.000 A 
ATOM     12  C   UNL     1      -0.255   9.709  21.628  0.00  0.00    +0.000 A 
ATOM     13  C   UNL     1      -0.123  10.673  20.628  0.00  0.00    +0.000 A 
ATOM     14  C   UNL     1       0.671  10.406  19.507  0.00  0.00    +0.000 A 
ATOM     15  C   UNL     1       1.333   9.179  19.384  0.00  0.00    +0.000 A 
ATOM     16  N   UNL     1       2.113   8.948  18.294  0.00  0.00    +0.000 NA
BRANCH  13  17
ATOM     17  N   UNL     1      -0.793  11.913  20.757  0.00  0.00    +0.000 N 
ATOM     18  H   UNL     1      -1.824  11.948  20.774  0.00  0.00    +0.000 HD
ATOM     19  H   UNL     1      -0.263  12.791  20.835  0.00  0.00    +0.000 HD
ENDBRANCH  13  17
ENDBRANCH   4   9
ENDBRANCH   3   4
ENDBRANCH   2   3
ENDBRANCH   1   2
BRANCH   1  20
ATOM     20  C   UNL     1       1.903   3.116  18.965  0.00  0.00    +0.000 C 
BRANCH  20  21
ATOM     21  C   UNL     1       2.545   1.791  18.586  0.00  0.00    +0.000 C 
BRANCH  21  22
ATOM     22  C   UNL     1       3.752   2.020  17.673  0.00  0.00    +0.000 C 
BRANCH  22  23
ATOM     23  N   UNL     1       3.655   3.278  16.992  0.00  0.00    +0.000 N 
ATOM     24  H   UNL     1       2.739   3.738  17.002  0.00  0.00    +0.000 HD
BRANCH  23  25
ATOM     25  C   UNL     1       4.790   3.883  16.369  0.00  0.00    +0.000 A 
ATOM     26  C   UNL     1       5.035   3.686  14.991  0.00  0.00    +0.000 A 
ATOM     27  C   UNL     1       6.142   4.269  14.376  0.00  0.00    +0.000 A 
ATOM     28  C   UNL     1       6.415   4.041  12.918  0.00  0.00    +0.000 C 
ATOM     29  N   UNL     1       6.986   5.043  15.108  0.00  0.00    +0.000 NA
ATOM     30  C   UNL     1       6.800   5.258  16.439  0.00  0.00    +0.000 A 
ATOM     31  C   UNL     1       7.712   6.049  17.143  0.00  0.00    +0.000 A 
ATOM     32  C   UNL     1       7.557   6.263  18.518  0.00  0.00    +0.000 A 
ATOM     33  C   UNL     1       6.479   5.683  19.188  0.00  0.00    +0.000 A 
ATOM     34  C   UNL     1       5.557   4.903  18.501  0.00  0.00    +0.000 A 
ATOM     35  C   UNL     1       5.698   4.675  17.112  0.00  0.00    +0.000 A 
BRANCH  32  36
ATOM     36  N   UNL     1       8.483   7.051  19.238  0.00  0.00    +0.000 N 
ATOM     37  H   UNL     1       8.228   7.997  19.562  0.00  0.00    +0.000 HD
ATOM     38  H   UNL     1       9.426   6.692  19.442  0.00  0.00    +0.000 HD
ENDBRANCH  32  36
ENDBRANCH  23  25
ENDBRANCH  22  23
ENDBRANCH  21  22
ENDBRANCH  20  21
ENDBRANCH   1  20
TORSDOF 11
ENDMDL
MODEL 6
REMARK VINA RESULT:      -7.3      5.343      8.195
REMARK  Name = 
REMARK  13 active torsions:
REMARK  status: ('A' for Active; 'I' for Inactive)
REMARK    1  A    between atoms: C_1  and  C_2
REMARK    2  A    between atoms: C_4  and  N_5
REMARK    3  A    between atoms: N_5  and  C_6
REMARK    4  A    between atoms: C_6  and  C_7
REMARK    5  A    between atoms: C_7  and  C_8
REMARK    6  A    between atoms: C_8  and  C_9
REMARK    7  A    between atoms: C_9  and  C_10
REMARK    8  A    between atoms: C_10  and  C_11
REMARK    9  A    between atoms: C_11  and  N_12
REMARK   10  A    between atoms: N_12  and  C_13
REMARK   11  A    between atoms: C_15  and  C_16
REMARK   12  A    between atoms: C_20  and  N_21
REMARK   13  A    between atoms: C_28  and  N_29
REMARK                            x       y       z     vdW  Elec       q    Type
REMARK                         _______ _______ _______ _____ _____    ______ ____
ROOT
ATOM      1  C   UNL     1       7.242   8.189  17.695  0.00  0.00    +0.000 C 
ENDROOT
BRANCH   1   2
ATOM      2  C   UNL     1       8.596   8.874  17.782  0.00  0.00    +0.000 C 
BRANCH   2   3
ATOM      3  C   UNL     1       8.763   9.572  19.135  0.00  0.00    +0.000 C 
BRANCH   3   4
ATOM      4  N   UNL     1       9.937  10.400  19.145  0.00  0.00    +0.000 N 
ATOM      5  H   UNL     1      10.794   9.988  18.763  0.00  0.00    +0.000 HD
BRANCH   4   9
ATOM      6  C   UNL     1       8.987  13.642  22.810  0.00  0.00    +0.000 C 
ATOM      7  C   UNL     1       9.445  13.341  21.413  0.00  0.00    +0.000 A 
ATOM      8  C   UNL     1       9.488  12.027  20.944  0.00  0.00    +0.000 A 
ATOM      9  C   UNL     1       9.905  11.749  19.622  0.00  0.00    +0.000 A 
ATOM     10  C   UNL     1      10.270  12.830  18.782  0.00  0.00    +0.000 A 
ATOM     11  C   UNL     1      10.678  12.658  17.442  0.00  0.00    +0.000 A 
ATOM     12  C   UNL     1      11.021  13.754  16.658  0.00  0.00    +0.000 A 
ATOM     13  C   UNL     1      10.973  15.045  17.186  0.00  0.00    +0.000 A 
ATOM     14  C   UNL     1      10.570  15.238  18.513  0.00  0.00    +0.000 A 
ATOM     15  C   UNL     1      10.216  14.145  19.311  0.00  0.00    +0.000 A 
ATOM     16  N   UNL     1       9.811  14.358  20.592  0.00  0.00    +0.000 NA
BRANCH  13  17
ATOM     17  N   UNL     1      11.331  16.147  16.374  0.00  0.00    +0.000 N 
ATOM     18  H   UNL     1      12.223  16.145  15.857  0.00  0.00    +0.000 HD
ATOM     19  H   UNL     1      10.709  16.962  16.290  0.00  0.00    +0.000 HD
ENDBRANCH  13  17
ENDBRANCH   4   9
ENDBRANCH   3   4
ENDBRANCH   2   3
ENDBRANCH   1   2
BRANCH   1  20
ATOM     20  C   UNL     1       7.342   6.656  17.865  0.00  0.00    +0.000 C 
BRANCH  20  21
ATOM     21  C   UNL     1       7.240   5.923  16.537  0.00  0.00    +0.000 C 
BRANCH  21  22
ATOM     22  C   UNL     1       5.777   5.636  16.192  0.00  0.00    +0.000 C 
BRANCH  22  23
ATOM     23  N   UNL     1       5.147   4.856  17.217  0.00  0.00    +0.000 N 
ATOM     24  H   UNL     1       5.507   3.909  17.362  0.00  0.00    +0.000 HD
BRANCH  23  25
ATOM     25  C   UNL     1       4.098   5.392  18.027  0.00  0.00    +0.000 A 
ATOM     26  C   UNL     1       3.619   6.702  17.796  0.00  0.00    +0.000 A 
ATOM     27  C   UNL     1       2.598   7.233  18.583  0.00  0.00    +0.000 A 
ATOM     28  C   UNL     1       2.105   8.632  18.353  0.00  0.00    +0.000 C 
ATOM     29  N   UNL     1       2.051   6.479  19.572  0.00  0.00    +0.000 NA
ATOM     30  C   UNL     1       2.481   5.216  19.841  0.00  0.00    +0.000 A 
ATOM     31  C   UNL     1       1.893   4.495  20.885  0.00  0.00    +0.000 A 
ATOM     32  C   UNL     1       2.336   3.204  21.197  0.00  0.00    +0.000 A 
ATOM     33  C   UNL     1       3.372   2.633  20.456  0.00  0.00    +0.000 A 
ATOM     34  C   UNL     1       3.960   3.332  19.409  0.00  0.00    +0.000 A 
ATOM     35  C   UNL     1       3.526   4.637  19.079  0.00  0.00    +0.000 A 
BRANCH  32  36
ATOM     36  N   UNL     1       1.754   2.476  22.258  0.00  0.00    +0.000 N 
ATOM     37  H   UNL     1       1.451   1.500  22.122  0.00  0.00    +0.000 HD
ATOM     38  H   UNL     1       1.621   2.914  23.181  0.00  0.00    +0.000 HD
ENDBRANCH  32  36
ENDBRANCH  23  25
ENDBRANCH  22  23
ENDBRANCH  21  22
ENDBRANCH  20  21
ENDBRANCH   1  20
TORSDOF 11
ENDMDL
MODEL 7
REMARK VINA RESULT:      -7.3      2.560      5.919
REMARK  Name = 
REMARK  13 active torsions:
REMARK  status: ('A' for Active; 'I' for Inactive)
REMARK    1  A    between atoms: C_1  and  C_2
REMARK    2  A    between atoms: C_4  and  N_5
REMARK    3  A    between atoms: N_5  and  C_6
REMARK    4  A    between atoms: C_6  and  C_7
REMARK    5  A    between atoms: C_7  and  C_8
REMARK    6  A    between atoms: C_8  and  C_9
REMARK    7  A    between atoms: C_9  and  C_10
REMARK    8  A    between atoms: C_10  and  C_11
REMARK    9  A    between atoms: C_11  and  N_12
REMARK   10  A    between atoms: N_12  and  C_13
REMARK   11  A    between atoms: C_15  and  C_16
REMARK   12  A    between atoms: C_20  and  N_21
REMARK   13  A    between atoms: C_28  and  N_29
REMARK                            x       y       z     vdW  Elec       q    Type
REMARK                         _______ _______ _______ _____ _____    ______ ____
ROOT
ATOM      1  C   UNL     1      -0.473   8.700  22.390  0.00  0.00    +0.000 C 
ENDROOT
BRANCH   1   2
ATOM      2  C   UNL     1       0.160   8.641  21.009  0.00  0.00    +0.000 C 
BRANCH   2   3
ATOM      3  C   UNL     1       1.603   8.136  21.096  0.00  0.00    +0.000 C 
BRANCH   3   4
ATOM      4  N   UNL     1       1.999   7.497  19.872  0.00  0.00    +0.000 N 
ATOM      5  H   UNL     1       2.087   8.098  19.047  0.00  0.00    +0.000 HD
BRANCH   4   9
ATOM      6  C   UNL     1       1.339   2.880  21.634  0.00  0.00    +0.000 C 
ATOM      7  C   UNL     1       1.979   3.836  20.669  0.00  0.00    +0.000 A 
ATOM      8  C   UNL     1       1.683   5.199  20.713  0.00  0.00    +0.000 A 
ATOM      9  C   UNL     1       2.299   6.098  19.814  0.00  0.00    +0.000 A 
ATOM     10  C   UNL     1       3.227   5.590  18.872  0.00  0.00    +0.000 A 
ATOM     11  C   UNL     1       3.911   6.408  17.947  0.00  0.00    +0.000 A 
ATOM     12  C   UNL     1       4.816   5.858  17.047  0.00  0.00    +0.000 A 
ATOM     13  C   UNL     1       5.061   4.484  17.038  0.00  0.00    +0.000 A 
ATOM     14  C   UNL     1       4.395   3.655  17.948  0.00  0.00    +0.000 A 
ATOM     15  C   UNL     1       3.486   4.195  18.864  0.00  0.00    +0.000 A 
ATOM     16  N   UNL     1       2.862   3.372  19.749  0.00  0.00    +0.000 NA
BRANCH  13  17
ATOM     17  N   UNL     1       5.982   3.943  16.110  0.00  0.00    +0.000 N 
ATOM     18  H   UNL     1       6.656   4.556  15.628  0.00  0.00    +0.000 HD
ATOM     19  H   UNL     1       5.990   2.935  15.906  0.00  0.00    +0.000 HD
ENDBRANCH  13  17
ENDBRANCH   4   9
ENDBRANCH   3   4
ENDBRANCH   2   3
ENDBRANCH   1   2
BRANCH   1  20
ATOM     20  C   UNL     1      -0.247  10.061  23.087  0.00  0.00    +0.000 C 
BRANCH  20  21
ATOM     21  C   UNL     1      -1.477  10.952  23.020  0.00  0.00    +0.000 C 
BRANCH  21  22
ATOM     22  C   UNL     1      -1.071  12.428  23.012  0.00  0.00    +0.000 C 
BRANCH  22  23
ATOM     23  N   UNL     1      -1.484  13.072  21.800  0.00  0.00    +0.000 N 
ATOM     24  H   UNL     1      -1.898  14.005  21.892  0.00  0.00    +0.000 HD
BRANCH  23  25
ATOM     25  C   UNL     1      -1.286  12.462  20.523  0.00  0.00    +0.000 A 
ATOM     26  C   UNL     1       0.017  12.125  20.089  0.00  0.00    +0.000 A 
ATOM     27  C   UNL     1       0.219  11.532  18.844  0.00  0.00    +0.000 A 
ATOM     28  C   UNL     1       1.605  11.195  18.375  0.00  0.00    +0.000 C 
ATOM     29  N   UNL     1      -0.847  11.266  18.045  0.00  0.00    +0.000 NA
ATOM     30  C   UNL     1      -2.120  11.578  18.411  0.00  0.00    +0.000 A 
ATOM     31  C   UNL     1      -3.177  11.297  17.539  0.00  0.00    +0.000 A 
ATOM     32  C   UNL     1      -4.492  11.632  17.883  0.00  0.00    +0.000 A 
ATOM     33  C   UNL     1      -4.749  12.250  19.108  0.00  0.00    +0.000 A 
ATOM     34  C   UNL     1      -3.712  12.526  19.990  0.00  0.00    +0.000 A 
ATOM     35  C   UNL     1      -2.377  12.195  19.661  0.00  0.00    +0.000 A 
BRANCH  32  36
ATOM     36  N   UNL     1      -5.562  11.363  17.000  0.00  0.00    +0.000 N 
ATOM     37  H   UNL     1      -5.847  10.392  16.801  0.00  0.00    +0.000 HD
ATOM     38  H   UNL     1      -6.066  12.134  16.539  0.00  0.00    +0.000 HD
ENDBRANCH  32  36
ENDBRANCH  23  25
ENDBRANCH  22  23
ENDBRANCH  21  22
ENDBRANCH  20  21
ENDBRANCH   1  20
TORSDOF 11
ENDMDL
MODEL 8
REMARK VINA RESULT:      -7.3      1.951      8.098
REMARK  Name = 
REMARK  13 active torsions:
REMARK  status: ('A' for Active; 'I' for Inactive)
REMARK    1  A    between atoms: C_1  and  C_2
REMARK    2  A    between atoms: C_4  and  N_5
REMARK    3  A    between atoms: N_5  and  C_6
REMARK    4  A    between atoms: C_6  and  C_7
REMARK    5  A    between atoms: C_7  and  C_8
REMARK    6  A    between atoms: C_8  and  C_9
REMARK    7  A    between atoms: C_9  and  C_10
REMARK    8  A    between atoms: C_10  and  C_11
REMARK    9  A    between atoms: C_11  and  N_12
REMARK   10  A    between atoms: N_12  and  C_13
REMARK   11  A    between atoms: C_15  and  C_16
REMARK   12  A    between atoms: C_20  and  N_21
REMARK   13  A    between atoms: C_28  and  N_29
REMARK                            x       y       z     vdW  Elec       q    Type
REMARK                         _______ _______ _______ _____ _____    ______ ____
ROOT
ATOM      1  C   UNL     1       2.289   5.906  18.235  0.00  0.00    +0.000 C 
ENDROOT
BRANCH   1   2
ATOM      2  C   UNL     1       2.507   7.274  18.861  0.00  0.00    +0.000 C 
BRANCH   2   3
ATOM      3  C   UNL     1       2.374   8.377  17.807  0.00  0.00    +0.000 C 
BRANCH   3   4
ATOM      4  N   UNL     1       1.202   9.174  18.042  0.00  0.00    +0.000 N 
ATOM      5  H   UNL     1       0.460   9.121  17.336  0.00  0.00    +0.000 HD
BRANCH   4   9
ATOM      6  C   UNL     1      -0.408   9.642  22.736  0.00  0.00    +0.000 C 
ATOM      7  C   UNL     1       0.272  10.204  21.521  0.00  0.00    +0.000 A 
ATOM      8  C   UNL     1       0.428   9.431  20.370  0.00  0.00    +0.000 A 
ATOM      9  C   UNL     1       1.054   9.969  19.223  0.00  0.00    +0.000 A 
ATOM     10  C   UNL     1       1.513  11.309  19.263  0.00  0.00    +0.000 A 
ATOM     11  C   UNL     1       2.131  11.944  18.164  0.00  0.00    +0.000 A 
ATOM     12  C   UNL     1       2.558  13.263  18.255  0.00  0.00    +0.000 A 
ATOM     13  C   UNL     1       2.389  13.983  19.439  0.00  0.00    +0.000 A 
ATOM     14  C   UNL     1       1.777  13.374  20.540  0.00  0.00    +0.000 A 
ATOM     15  C   UNL     1       1.337  12.048  20.461  0.00  0.00    +0.000 A 
ATOM     16  N   UNL     1       0.731  11.481  21.539  0.00  0.00    +0.000 NA
BRANCH  13  17
ATOM     17  N   UNL     1       2.836  15.323  19.513  0.00  0.00    +0.000 N 
ATOM     18  H   UNL     1       2.599  15.907  20.330  0.00  0.00    +0.000 HD
ATOM     19  H   UNL     1       3.400  15.732  18.756  0.00  0.00    +0.000 HD
ENDBRANCH  13  17
ENDBRANCH   4   9
ENDBRANCH   3   4
ENDBRANCH   2   3
ENDBRANCH   1   2
BRANCH   1  20
ATOM     20  C   UNL     1       1.921   4.829  19.281  0.00  0.00    +0.000 C 
BRANCH  20  21
ATOM     21  C   UNL     1       2.538   3.478  18.957  0.00  0.00    +0.000 C 
BRANCH  21  22
ATOM     22  C   UNL     1       2.896   3.394  17.471  0.00  0.00    +0.000 C 
BRANCH  22  23
ATOM     23  N   UNL     1       4.246   2.944  17.289  0.00  0.00    +0.000 N 
ATOM     24  H   UNL     1       4.479   2.022  17.670  0.00  0.00    +0.000 HD
BRANCH  23  25
ATOM     25  C   UNL     1       5.204   3.724  16.571  0.00  0.00    +0.000 A 
ATOM     26  C   UNL     1       5.358   3.555  15.176  0.00  0.00    +0.000 A 
ATOM     27  C   UNL     1       6.292   4.310  14.467  0.00  0.00    +0.000 A 
ATOM     28  C   UNL     1       6.470   4.115  12.990  0.00  0.00    +0.000 C 
ATOM     29  N   UNL     1       7.054   5.223  15.125  0.00  0.00    +0.000 NA
ATOM     30  C   UNL     1       6.952   5.418  16.467  0.00  0.00    +0.000 A 
ATOM     31  C   UNL     1       7.776   6.360  17.092  0.00  0.00    +0.000 A 
ATOM     32  C   UNL     1       7.707   6.560  18.476  0.00  0.00    +0.000 A 
ATOM     33  C   UNL     1       6.805   5.814  19.236  0.00  0.00    +0.000 A 
ATOM     34  C   UNL     1       5.972   4.882  18.630  0.00  0.00    +0.000 A 
ATOM     35  C   UNL     1       6.027   4.666  17.233  0.00  0.00    +0.000 A 
BRANCH  32  36
ATOM     36  N   UNL     1       8.546   7.500  19.114  0.00  0.00    +0.000 N 
ATOM     37  H   UNL     1       8.239   8.476  19.245  0.00  0.00    +0.000 HD
ATOM     38  H   UNL     1       9.479   7.223  19.451  0.00  0.00    +0.000 HD
ENDBRANCH  32  36
ENDBRANCH  23  25
ENDBRANCH  22  23
ENDBRANCH  21  22
ENDBRANCH  20  21
ENDBRANCH   1  20
TORSDOF 11
ENDMDL
MODEL 9
REMARK VINA RESULT:      -7.3      3.695     11.206
REMARK  Name = 
REMARK  13 active torsions:
REMARK  status: ('A' for Active; 'I' for Inactive)
REMARK    1  A    between atoms: C_1  and  C_2
REMARK    2  A    between atoms: C_4  and  N_5
REMARK    3  A    between atoms: N_5  and  C_6
REMARK    4  A    between atoms: C_6  and  C_7
REMARK    5  A    between atoms: C_7  and  C_8
REMARK    6  A    between atoms: C_8  and  C_9
REMARK    7  A    between atoms: C_9  and  C_10
REMARK    8  A    between atoms: C_10  and  C_11
REMARK    9  A    between atoms: C_11  and  N_12
REMARK   10  A    between atoms: N_12  and  C_13
REMARK   11  A    between atoms: C_15  and  C_16
REMARK   12  A    between atoms: C_20  and  N_21
REMARK   13  A    between atoms: C_28  and  N_29
REMARK                            x       y       z     vdW  Elec       q    Type
REMARK                         _______ _______ _______ _____ _____    ______ ____
ROOT
ATOM      1  C   UNL     1       0.296  10.831  18.852  0.00  0.00    +0.000 C 
ENDROOT
BRANCH   1   2
ATOM      2  C   UNL     1      -1.177  10.786  19.223  0.00  0.00    +0.000 C 
BRANCH   2   3
ATOM      3  C   UNL     1      -1.990  11.722  18.324  0.00  0.00    +0.000 C 
BRANCH   3   4
ATOM      4  N   UNL     1      -2.559  12.800  19.084  0.00  0.00    +0.000 N 
ATOM      5  H   UNL     1      -2.124  13.721  18.973  0.00  0.00    +0.000 HD
BRANCH   4   9
ATOM      6  C   UNL     1      -7.305  11.372  19.621  0.00  0.00    +0.000 C 
ATOM      7  C   UNL     1      -6.025  11.910  20.193  0.00  0.00    +0.000 A 
ATOM      8  C   UNL     1      -4.902  12.088  19.384  0.00  0.00    +0.000 A 
ATOM      9  C   UNL     1      -3.704  12.610  19.922  0.00  0.00    +0.000 A 
ATOM     10  C   UNL     1      -3.668  12.954  21.296  0.00  0.00    +0.000 A 
ATOM     11  C   UNL     1      -2.528  13.502  21.922  0.00  0.00    +0.000 A 
ATOM     12  C   UNL     1      -2.548  13.827  23.274  0.00  0.00    +0.000 A 
ATOM     13  C   UNL     1      -3.696  13.612  24.037  0.00  0.00    +0.000 A 
ATOM     14  C   UNL     1      -4.839  13.072  23.436  0.00  0.00    +0.000 A 
ATOM     15  C   UNL     1      -4.835  12.745  22.075  0.00  0.00    +0.000 A 
ATOM     16  N   UNL     1      -5.962  12.236  21.508  0.00  0.00    +0.000 NA
BRANCH  13  17
ATOM     17  N   UNL     1      -3.695  13.945  25.412  0.00  0.00    +0.000 N 
ATOM     18  H   UNL     1      -4.437  13.591  26.035  0.00  0.00    +0.000 HD
ATOM     19  H   UNL     1      -2.956  14.542  25.808  0.00  0.00    +0.000 HD
ENDBRANCH  13  17
ENDBRANCH   4   9
ENDBRANCH   3   4
ENDBRANCH   2   3
ENDBRANCH   1   2
BRANCH   1  20
ATOM     20  C   UNL     1       1.046   9.540  19.253  0.00  0.00    +0.000 C 
BRANCH  20  21
ATOM     21  C   UNL     1       0.950   9.259  20.744  0.00  0.00    +0.000 C 
BRANCH  21  22
ATOM     22  C   UNL     1       1.378   7.821  21.048  0.00  0.00    +0.000 C 
BRANCH  22  23
ATOM     23  N   UNL     1       2.179   7.284  19.986  0.00  0.00    +0.000 N 
ATOM     24  H   UNL     1       2.587   7.957  19.332  0.00  0.00    +0.000 HD
BRANCH  23  25
ATOM     25  C   UNL     1       2.430   5.881  19.875  0.00  0.00    +0.000 A 
ATOM     26  C   UNL     1       1.844   4.978  20.791  0.00  0.00    +0.000 A 
ATOM     27  C   UNL     1       2.086   3.608  20.691  0.00  0.00    +0.000 A 
ATOM     28  C   UNL     1       1.482   2.652  21.677  0.00  0.00    +0.000 C 
ATOM     29  N   UNL     1       2.883   3.139  19.696  0.00  0.00    +0.000 NA
ATOM     30  C   UNL     1       3.478   3.966  18.794  0.00  0.00    +0.000 A 
ATOM     31  C   UNL     1       4.303   3.426  17.803  0.00  0.00    +0.000 A 
ATOM     32  C   UNL     1       4.946   4.259  16.879  0.00  0.00    +0.000 A 
ATOM     33  C   UNL     1       4.758   5.640  16.949  0.00  0.00    +0.000 A 
ATOM     34  C   UNL     1       3.932   6.192  17.921  0.00  0.00    +0.000 A 
ATOM     35  C   UNL     1       3.274   5.366  18.862  0.00  0.00    +0.000 A 
BRANCH  32  36
ATOM     36  N   UNL     1       5.792   3.720  15.884  0.00  0.00    +0.000 N 
ATOM     37  H   UNL     1       5.749   4.066  14.914  0.00  0.00    +0.000 HD
ATOM     38  H   UNL     1       6.458   2.968  16.115  0.00  0.00    +0.000 HD
ENDBRANCH  32  36
ENDBRANCH  23  25
ENDBRANCH  22  23
ENDBRANCH  21  22
ENDBRANCH  20  21
ENDBRANCH   1  20
TORSDOF 11
ENDMDL
