MODEL 1
REMARK VINA RESULT:      -7.1      0.000      0.000
REMARK  Name = 
REMARK  10 active torsions:
REMARK  status: ('A' for Active; 'I' for Inactive)
REMARK    1  A    between atoms: C_2  and  C_3
REMARK    2  A    between atoms: C_3  and  C_4
REMARK    3  A    between atoms: C_5  and  C_6
REMARK    4  A    between atoms: C_6  and  C_7
REMARK    5  A    between atoms: C_7  and  C_8
REMARK    6  A    between atoms: C_8  and  C_9
REMARK    7  A    between atoms: C_10  and  C_11
REMARK    8  A    between atoms: C_13  and  C_14
REMARK    9  A    between atoms: C_14  and  O_16
REMARK   10  A    between atoms: O_16  and  C_17
REMARK                            x       y       z     vdW  Elec       q    Type
REMARK                         _______ _______ _______ _____ _____    ______ ____
ROOT
ATOM      1  C   UNL     1       6.031   4.606  15.954  0.00  0.00    +0.000 C 
ATOM      2  C   UNL     1       6.888   4.427  17.183  0.00  0.00    +0.000 C 
ATOM      3  C   UNL     1       4.684   4.566  15.989  0.00  0.00    +0.000 C 
ENDROOT
BRANCH   3   4
ATOM      4  C   UNL     1       3.905   4.525  17.174  0.00  0.00    +0.000 A 
ATOM      5  C   UNL     1       3.046   3.512  17.586  0.00  0.00    +0.000 A 
ATOM      6  C   UNL     1       2.369   3.951  18.756  0.00  0.00    +0.000 A 
ATOM      7  C   UNL     1       2.881   5.199  19.019  0.00  0.00    +0.000 A 
ATOM      8  O   UNL     1       3.802   5.547  18.089  0.00  0.00    +0.000 OA
BRANCH   6   9
ATOM      9  C   UNL     1       1.341   3.285  19.522  0.00  0.00    +0.000 C 
ATOM     10  O   UNL     1       0.580   2.450  19.050  0.00  0.00    +0.000 OA
BRANCH   9  11
ATOM     11  O   UNL     1       1.346   3.678  20.827  0.00  0.00    +0.000 OA
ATOM     12  C   UNL     1       1.802   2.677  21.737  0.00  0.00    +0.000 C 
ENDBRANCH   9  11
ENDBRANCH   6   9
ENDBRANCH   3   4
BRANCH   1  13
ATOM     13  C   UNL     1       6.798   4.794  14.650  0.00  0.00    +0.000 C 
BRANCH  13  14
ATOM     14  C   UNL     1       6.531   3.719  13.583  0.00  0.00    +0.000 C 
BRANCH  14  17
ATOM     15  C   UNL     1       4.841   3.154  11.777  0.00  0.00    +0.000 C 
ATOM     16  C   UNL     1       5.661   1.974  11.312  0.00  0.00    +0.000 C 
ATOM     17  C   UNL     1       5.287   3.957  12.768  0.00  0.00    +0.000 C 
BRANCH  15  19
ATOM     18  C   UNL     1       3.278   3.655   9.880  0.00  0.00    +0.000 C 
ATOM     19  C   UNL     1       3.548   3.440  11.174  0.00  0.00    +0.000 C 
ENDBRANCH  15  19
ENDBRANCH  14  17
ENDBRANCH  13  14
ENDBRANCH   1  13
TORSDOF 7
ENDMDL
MODEL 2
REMARK VINA RESULT:      -7.0      1.169      1.485
REMARK  Name = 
REMARK  10 active torsions:
REMARK  status: ('A' for Active; 'I' for Inactive)
REMARK    1  A    between atoms: C_2  and  C_3
REMARK    2  A    between atoms: C_3  and  C_4
REMARK    3  A    between atoms: C_5  and  C_6
REMARK    4  A    between atoms: C_6  and  C_7
REMARK    5  A    between atoms: C_7  and  C_8
REMARK    6  A    between atoms: C_8  and  C_9
REMARK    7  A    between atoms: C_10  and  C_11
REMARK    8  A    between atoms: C_13  and  C_14
REMARK    9  A    between atoms: C_14  and  O_16
REMARK   10  A    between atoms: O_16  and  C_17
REMARK                            x       y       z     vdW  Elec       q    Type
REMARK                         _______ _______ _______ _____ _____    ______ ____
ROOT
ATOM      1  C   UNL     1       5.905   5.016  15.786  0.00  0.00    +0.000 C 
ATOM      2  C   UNL     1       5.994   6.322  16.536  0.00  0.00    +0.000 C 
ATOM      3  C   UNL     1       5.346   3.907  16.311  0.00  0.00    +0.000 C 
ENDROOT
BRANCH   3   4
ATOM      4  C   UNL     1       4.632   3.862  17.536  0.00  0.00    +0.000 A 
ATOM      5  C   UNL     1       3.290   4.156  17.743  0.00  0.00    +0.000 A 
ATOM      6  C   UNL     1       3.035   4.116  19.141  0.00  0.00    +0.000 A 
ATOM      7  C   UNL     1       4.233   3.760  19.713  0.00  0.00    +0.000 A 
ATOM      8  O   UNL     1       5.189   3.598  18.767  0.00  0.00    +0.000 OA
BRANCH   6   9
ATOM      9  C   UNL     1       1.813   4.406  19.856  0.00  0.00    +0.000 C 
ATOM     10  O   UNL     1       1.725   5.263  20.725  0.00  0.00    +0.000 OA
BRANCH   9  11
ATOM     11  O   UNL     1       0.778   3.630  19.424  0.00  0.00    +0.000 OA
ATOM     12  C   UNL     1       1.097   2.244  19.306  0.00  0.00    +0.000 C 
ENDBRANCH   9  11
ENDBRANCH   6   9
ENDBRANCH   3   4
BRANCH   1  13
ATOM     13  C   UNL     1       6.532   5.022  14.396  0.00  0.00    +0.000 C 
BRANCH  13  14
ATOM     14  C   UNL     1       6.271   3.754  13.566  0.00  0.00    +0.000 C 
BRANCH  14  17
ATOM     15  C   UNL     1       4.785   2.995  11.654  0.00  0.00    +0.000 C 
ATOM     16  C   UNL     1       5.763   1.915  11.259  0.00  0.00    +0.000 C 
ATOM     17  C   UNL     1       5.067   3.847  12.665  0.00  0.00    +0.000 C 
BRANCH  15  19
ATOM     18  C   UNL     1       3.233   3.914   9.912  0.00  0.00    +0.000 C 
ATOM     19  C   UNL     1       3.513   3.131  10.960  0.00  0.00    +0.000 C 
ENDBRANCH  15  19
ENDBRANCH  14  17
ENDBRANCH  13  14
ENDBRANCH   1  13
TORSDOF 7
ENDMDL
MODEL 3
REMARK VINA RESULT:      -7.0      0.890      1.240
REMARK  Name = 
REMARK  10 active torsions:
REMARK  status: ('A' for Active; 'I' for Inactive)
REMARK    1  A    between atoms: C_2  and  C_3
REMARK    2  A    between atoms: C_3  and  C_4
REMARK    3  A    between atoms: C_5  and  C_6
REMARK    4  A    between atoms: C_6  and  C_7
REMARK    5  A    between atoms: C_7  and  C_8
REMARK    6  A    between atoms: C_8  and  C_9
REMARK    7  A    between atoms: C_10  and  C_11
REMARK    8  A    between atoms: C_13  and  C_14
REMARK    9  A    between atoms: C_14  and  O_16
REMARK   10  A    between atoms: O_16  and  C_17
REMARK                            x       y       z     vdW  Elec       q    Type
REMARK                         _______ _______ _______ _____ _____    ______ ____
ROOT
ATOM      1  C   UNL     1       6.014   5.010  15.575  0.00  0.00    +0.000 C 
ATOM      2  C   UNL     1       6.900   5.696  16.586  0.00  0.00    +0.000 C 
ATOM      3  C   UNL     1       4.815   4.481  15.892  0.00  0.00    +0.000 C 
ENDROOT
BRANCH   3   4
ATOM      4  C   UNL     1       4.164   4.642  17.142  0.00  0.00    +0.000 A 
ATOM      5  C   UNL     1       3.804   3.646  18.042  0.00  0.00    +0.000 A 
ATOM      6  C   UNL     1       3.051   4.243  19.090  0.00  0.00    +0.000 A 
ATOM      7  C   UNL     1       3.023   5.584  18.791  0.00  0.00    +0.000 A 
ATOM      8  O   UNL     1       3.689   5.835  17.638  0.00  0.00    +0.000 OA
BRANCH   6   9
ATOM      9  C   UNL     1       2.409   3.619  20.224  0.00  0.00    +0.000 C 
ATOM     10  O   UNL     1       2.230   4.184  21.295  0.00  0.00    +0.000 OA
BRANCH   9  11
ATOM     11  O   UNL     1       2.009   2.346  19.943  0.00  0.00    +0.000 OA
ATOM     12  C   UNL     1       0.809   2.269  19.173  0.00  0.00    +0.000 C 
ENDBRANCH   9  11
ENDBRANCH   6   9
ENDBRANCH   3   4
BRANCH   1  13
ATOM     13  C   UNL     1       6.588   4.917  14.166  0.00  0.00    +0.000 C 
BRANCH  13  14
ATOM     14  C   UNL     1       6.264   3.610  13.422  0.00  0.00    +0.000 C 
BRANCH  14  17
ATOM     15  C   UNL     1       4.829   2.815  11.487  0.00  0.00    +0.000 C 
ATOM     16  C   UNL     1       5.717   1.615  11.259  0.00  0.00    +0.000 C 
ATOM     17  C   UNL     1       5.133   3.729  12.435  0.00  0.00    +0.000 C 
BRANCH  15  19
ATOM     18  C   UNL     1       3.219   4.115  10.069  0.00  0.00    +0.000 C 
ATOM     19  C   UNL     1       3.621   3.003  10.697  0.00  0.00    +0.000 C 
ENDBRANCH  15  19
ENDBRANCH  14  17
ENDBRANCH  13  14
ENDBRANCH   1  13
TORSDOF 7
ENDMDL
MODEL 4
REMARK VINA RESULT:      -6.8      1.230      1.316
REMARK  Name = 
REMARK  10 active torsions:
REMARK  status: ('A' for Active; 'I' for Inactive)
REMARK    1  A    between atoms: C_2  and  C_3
REMARK    2  A    between atoms: C_3  and  C_4
REMARK    3  A    between atoms: C_5  and  C_6
REMARK    4  A    between atoms: C_6  and  C_7
REMARK    5  A    between atoms: C_7  and  C_8
REMARK    6  A    between atoms: C_8  and  C_9
REMARK    7  A    between atoms: C_10  and  C_11
REMARK    8  A    between atoms: C_13  and  C_14
REMARK    9  A    between atoms: C_14  and  O_16
REMARK   10  A    between atoms: O_16  and  C_17
REMARK                            x       y       z     vdW  Elec       q    Type
REMARK                         _______ _______ _______ _____ _____    ______ ____
ROOT
ATOM      1  C   UNL     1       5.497   4.759  15.897  0.00  0.00    +0.000 C 
ATOM      2  C   UNL     1       4.958   6.020  16.525  0.00  0.00    +0.000 C 
ATOM      3  C   UNL     1       5.260   3.531  16.401  0.00  0.00    +0.000 C 
ENDROOT
BRANCH   3   4
ATOM      4  C   UNL     1       4.357   3.250  17.458  0.00  0.00    +0.000 A 
ATOM      5  C   UNL     1       2.976   3.109  17.375  0.00  0.00    +0.000 A 
ATOM      6  C   UNL     1       2.462   2.974  18.693  0.00  0.00    +0.000 A 
ATOM      7  C   UNL     1       3.564   3.001  19.513  0.00  0.00    +0.000 A 
ATOM      8  O   UNL     1       4.699   3.157  18.788  0.00  0.00    +0.000 OA
BRANCH   6   9
ATOM      9  C   UNL     1       1.090   2.859  19.131  0.00  0.00    +0.000 C 
ATOM     10  O   UNL     1       0.207   2.339  18.462  0.00  0.00    +0.000 OA
BRANCH   9  11
ATOM     11  O   UNL     1       0.913   3.372  20.383  0.00  0.00    +0.000 OA
ATOM     12  C   UNL     1       1.063   4.789  20.459  0.00  0.00    +0.000 C 
ENDBRANCH   9  11
ENDBRANCH   6   9
ENDBRANCH   3   4
BRANCH   1  13
ATOM     13  C   UNL     1       6.372   4.969  14.666  0.00  0.00    +0.000 C 
BRANCH  13  14
ATOM     14  C   UNL     1       6.227   3.890  13.580  0.00  0.00    +0.000 C 
BRANCH  14  17
ATOM     15  C   UNL     1       4.673   3.249  11.679  0.00  0.00    +0.000 C 
ATOM     16  C   UNL     1       5.540   2.071  11.304  0.00  0.00    +0.000 C 
ATOM     17  C   UNL     1       5.038   4.086  12.675  0.00  0.00    +0.000 C 
BRANCH  15  19
ATOM     18  C   UNL     1       3.169   3.348   9.674  0.00  0.00    +0.000 C 
ATOM     19  C   UNL     1       3.421   3.497  10.981  0.00  0.00    +0.000 C 
ENDBRANCH  15  19
ENDBRANCH  14  17
ENDBRANCH  13  14
ENDBRANCH   1  13
TORSDOF 7
ENDMDL
MODEL 5
REMARK VINA RESULT:      -6.8      1.500      2.029
REMARK  Name = 
REMARK  10 active torsions:
REMARK  status: ('A' for Active; 'I' for Inactive)
REMARK    1  A    between atoms: C_2  and  C_3
REMARK    2  A    between atoms: C_3  and  C_4
REMARK    3  A    between atoms: C_5  and  C_6
REMARK    4  A    between atoms: C_6  and  C_7
REMARK    5  A    between atoms: C_7  and  C_8
REMARK    6  A    between atoms: C_8  and  C_9
REMARK    7  A    between atoms: C_10  and  C_11
REMARK    8  A    between atoms: C_13  and  C_14
REMARK    9  A    between atoms: C_14  and  O_16
REMARK   10  A    between atoms: O_16  and  C_17
REMARK                            x       y       z     vdW  Elec       q    Type
REMARK                         _______ _______ _______ _____ _____    ______ ____
ROOT
ATOM      1  C   UNL     1       5.669   5.138  15.709  0.00  0.00    +0.000 C 
ATOM      2  C   UNL     1       5.568   6.543  16.248  0.00  0.00    +0.000 C 
ATOM      3  C   UNL     1       5.191   4.064  16.370  0.00  0.00    +0.000 C 
ENDROOT
BRANCH   3   4
ATOM      4  C   UNL     1       4.398   4.123  17.544  0.00  0.00    +0.000 A 
ATOM      5  C   UNL     1       3.455   5.088  17.880  0.00  0.00    +0.000 A 
ATOM      6  C   UNL     1       3.007   4.831  19.204  0.00  0.00    +0.000 A 
ATOM      7  C   UNL     1       3.674   3.695  19.594  0.00  0.00    +0.000 A 
ATOM      8  O   UNL     1       4.499   3.260  18.611  0.00  0.00    +0.000 OA
BRANCH   6   9
ATOM      9  C   UNL     1       2.078   5.584  20.017  0.00  0.00    +0.000 C 
ATOM     10  O   UNL     1       1.256   5.065  20.761  0.00  0.00    +0.000 OA
BRANCH   9  11
ATOM     11  O   UNL     1       2.253   6.928  19.871  0.00  0.00    +0.000 OA
ATOM     12  C   UNL     1       1.483   7.718  20.777  0.00  0.00    +0.000 C 
ENDBRANCH   9  11
ENDBRANCH   6   9
ENDBRANCH   3   4
BRANCH   1  13
ATOM     13  C   UNL     1       6.393   5.005  14.374  0.00  0.00    +0.000 C 
BRANCH  13  14
ATOM     14  C   UNL     1       6.115   3.695  13.617  0.00  0.00    +0.000 C 
BRANCH  14  17
ATOM     15  C   UNL     1       4.754   2.918  11.622  0.00  0.00    +0.000 C 
ATOM     16  C   UNL     1       5.747   1.823  11.311  0.00  0.00    +0.000 C 
ATOM     17  C   UNL     1       4.976   3.783  12.635  0.00  0.00    +0.000 C 
BRANCH  15  19
ATOM     18  C   UNL     1       3.232   4.007   9.952  0.00  0.00    +0.000 C 
ATOM     19  C   UNL     1       3.533   3.053  10.841  0.00  0.00    +0.000 C 
ENDBRANCH  15  19
ENDBRANCH  14  17
ENDBRANCH  13  14
ENDBRANCH   1  13
TORSDOF 7
ENDMDL
MODEL 6
REMARK VINA RESULT:      -6.6      2.779      7.027
REMARK  Name = 
REMARK  10 active torsions:
REMARK  status: ('A' for Active; 'I' for Inactive)
REMARK    1  A    between atoms: C_2  and  C_3
REMARK    2  A    between atoms: C_3  and  C_4
REMARK    3  A    between atoms: C_5  and  C_6
REMARK    4  A    between atoms: C_6  and  C_7
REMARK    5  A    between atoms: C_7  and  C_8
REMARK    6  A    between atoms: C_8  and  C_9
REMARK    7  A    between atoms: C_10  and  C_11
REMARK    8  A    between atoms: C_13  and  C_14
REMARK    9  A    between atoms: C_14  and  O_16
REMARK   10  A    between atoms: O_16  and  C_17
REMARK                            x       y       z     vdW  Elec       q    Type
REMARK                         _______ _______ _______ _____ _____    ______ ____
ROOT
ATOM      1  C   UNL     1       3.005   6.572  19.095  0.00  0.00    +0.000 C 
ATOM      2  C   UNL     1       2.586   7.501  17.982  0.00  0.00    +0.000 C 
ATOM      3  C   UNL     1       4.088   5.774  19.013  0.00  0.00    +0.000 C 
ENDROOT
BRANCH   3   4
ATOM      4  C   UNL     1       5.052   5.820  17.974  0.00  0.00    +0.000 A 
ATOM      5  C   UNL     1       4.947   5.277  16.699  0.00  0.00    +0.000 A 
ATOM      6  C   UNL     1       6.197   5.437  16.041  0.00  0.00    +0.000 A 
ATOM      7  C   UNL     1       6.991   6.107  16.940  0.00  0.00    +0.000 A 
ATOM      8  O   UNL     1       6.318   6.348  18.091  0.00  0.00    +0.000 OA
BRANCH   6   9
ATOM      9  C   UNL     1       6.604   4.988  14.729  0.00  0.00    +0.000 C 
ATOM     10  O   UNL     1       7.676   5.280  14.216  0.00  0.00    +0.000 OA
BRANCH   9  11
ATOM     11  O   UNL     1       5.664   4.183  14.156  0.00  0.00    +0.000 OA
ATOM     12  C   UNL     1       6.095   3.548  12.953  0.00  0.00    +0.000 C 
ENDBRANCH   9  11
ENDBRANCH   6   9
ENDBRANCH   3   4
BRANCH   1  13
ATOM     13  C   UNL     1       2.089   6.565  20.315  0.00  0.00    +0.000 C 
BRANCH  13  14
ATOM     14  C   UNL     1       1.337   5.244  20.549  0.00  0.00    +0.000 C 
BRANCH  14  17
ATOM     15  C   UNL     1       2.060   2.896  19.915  0.00  0.00    +0.000 C 
ATOM     16  C   UNL     1       2.263   2.517  21.363  0.00  0.00    +0.000 C 
ATOM     17  C   UNL     1       1.696   4.152  19.575  0.00  0.00    +0.000 C 
BRANCH  15  19
ATOM     18  C   UNL     1       3.337   1.697  18.120  0.00  0.00    +0.000 C 
ATOM     19  C   UNL     1       2.242   1.911  18.860  0.00  0.00    +0.000 C 
ENDBRANCH  15  19
ENDBRANCH  14  17
ENDBRANCH  13  14
ENDBRANCH   1  13
TORSDOF 7
ENDMDL
MODEL 7
REMARK VINA RESULT:      -6.6      4.366      6.920
REMARK  Name = 
REMARK  10 active torsions:
REMARK  status: ('A' for Active; 'I' for Inactive)
REMARK    1  A    between atoms: C_2  and  C_3
REMARK    2  A    between atoms: C_3  and  C_4
REMARK    3  A    between atoms: C_5  and  C_6
REMARK    4  A    between atoms: C_6  and  C_7
REMARK    5  A    between atoms: C_7  and  C_8
REMARK    6  A    between atoms: C_8  and  C_9
REMARK    7  A    between atoms: C_10  and  C_11
REMARK    8  A    between atoms: C_13  and  C_14
REMARK    9  A    between atoms: C_14  and  O_16
REMARK   10  A    between atoms: O_16  and  C_17
REMARK                            x       y       z     vdW  Elec       q    Type
REMARK                         _______ _______ _______ _____ _____    ______ ____
ROOT
ATOM      1  C   UNL     1       7.166   6.559  18.001  0.00  0.00    +0.000 C 
ATOM      2  C   UNL     1       7.931   5.963  19.157  0.00  0.00    +0.000 C 
ATOM      3  C   UNL     1       5.957   6.107  17.613  0.00  0.00    +0.000 C 
ENDROOT
BRANCH   3   4
ATOM      4  C   UNL     1       5.182   5.153  18.322  0.00  0.00    +0.000 A 
ATOM      5  C   UNL     1       3.889   5.307  18.808  0.00  0.00    +0.000 A 
ATOM      6  C   UNL     1       3.561   4.155  19.574  0.00  0.00    +0.000 A 
ATOM      7  C   UNL     1       4.662   3.338  19.482  0.00  0.00    +0.000 A 
ATOM      8  O   UNL     1       5.630   3.918  18.733  0.00  0.00    +0.000 OA
BRANCH   6   9
ATOM      9  C   UNL     1       2.361   3.869  20.326  0.00  0.00    +0.000 C 
ATOM     10  O   UNL     1       1.851   4.656  21.113  0.00  0.00    +0.000 OA
BRANCH   9  11
ATOM     11  O   UNL     1       1.859   2.636  20.028  0.00  0.00    +0.000 OA
ATOM     12  C   UNL     1       0.996   2.616  18.891  0.00  0.00    +0.000 C 
ENDBRANCH   9  11
ENDBRANCH   6   9
ENDBRANCH   3   4
BRANCH   1  13
ATOM     13  C   UNL     1       7.877   7.691  17.267  0.00  0.00    +0.000 C 
BRANCH  13  14
ATOM     14  C   UNL     1       7.717   9.078  17.912  0.00  0.00    +0.000 C 
BRANCH  14  17
ATOM     15  C   UNL     1       9.396  10.788  18.747  0.00  0.00    +0.000 C 
ATOM     16  C   UNL     1       8.818  11.861  17.855  0.00  0.00    +0.000 C 
ATOM     17  C   UNL     1       8.914   9.526  18.709  0.00  0.00    +0.000 C 
BRANCH  15  19
ATOM     18  C   UNL     1      10.444  11.939  20.713  0.00  0.00    +0.000 C 
ATOM     19  C   UNL     1      10.475  11.097  19.673  0.00  0.00    +0.000 C 
ENDBRANCH  15  19
ENDBRANCH  14  17
ENDBRANCH  13  14
ENDBRANCH   1  13
TORSDOF 7
ENDMDL
MODEL 8
REMARK VINA RESULT:      -6.6      2.158      3.130
REMARK  Name = 
REMARK  10 active torsions:
REMARK  status: ('A' for Active; 'I' for Inactive)
REMARK    1  A    between atoms: C_2  and  C_3
REMARK    2  A    between atoms: C_3  and  C_4
REMARK    3  A    between atoms: C_5  and  C_6
REMARK    4  A    between atoms: C_6  and  C_7
REMARK    5  A    between atoms: C_7  and  C_8
REMARK    6  A    between atoms: C_8  and  C_9
REMARK    7  A    between atoms: C_10  and  C_11
REMARK    8  A    between atoms: C_13  and  C_14
REMARK    9  A    between atoms: C_14  and  O_16
REMARK   10  A    between atoms: O_16  and  C_17
REMARK                            x       y       z     vdW  Elec       q    Type
REMARK                         _______ _______ _______ _____ _____    ______ ____
ROOT
ATOM      1  C   UNL     1       5.473   4.422  16.970  0.00  0.00    +0.000 C 
ATOM      2  C   UNL     1       6.389   5.110  17.951  0.00  0.00    +0.000 C 
ATOM      3  C   UNL     1       4.140   4.334  17.150  0.00  0.00    +0.000 C 
ENDROOT
BRANCH   3   4
ATOM      4  C   UNL     1       3.414   5.005  18.167  0.00  0.00    +0.000 A 
ATOM      5  C   UNL     1       2.940   6.311  18.146  0.00  0.00    +0.000 A 
ATOM      6  C   UNL     1       2.397   6.610  19.425  0.00  0.00    +0.000 A 
ATOM      7  C   UNL     1       2.535   5.451  20.152  0.00  0.00    +0.000 A 
ATOM      8  O   UNL     1       3.131   4.487  19.410  0.00  0.00    +0.000 OA
BRANCH   6   9
ATOM      9  C   UNL     1       1.838   7.849  19.915  0.00  0.00    +0.000 C 
ATOM     10  O   UNL     1       1.498   8.026  21.077  0.00  0.00    +0.000 OA
BRANCH   9  11
ATOM     11  O   UNL     1       1.766   8.794  18.934  0.00  0.00    +0.000 OA
ATOM     12  C   UNL     1       0.970   9.929  19.274  0.00  0.00    +0.000 C 
ENDBRANCH   9  11
ENDBRANCH   6   9
ENDBRANCH   3   4
BRANCH   1  13
ATOM     13  C   UNL     1       6.167   3.789  15.768  0.00  0.00    +0.000 C 
BRANCH  13  14
ATOM     14  C   UNL     1       6.095   4.615  14.473  0.00  0.00    +0.000 C 
BRANCH  14  17
ATOM     15  C   UNL     1       5.630   3.470  12.257  0.00  0.00    +0.000 C 
ATOM     16  C   UNL     1       7.088   3.526  11.867  0.00  0.00    +0.000 C 
ATOM     17  C   UNL     1       5.203   4.020  13.415  0.00  0.00    +0.000 C 
BRANCH  15  19
ATOM     18  C   UNL     1       3.594   3.357  10.796  0.00  0.00    +0.000 C 
ATOM     19  C   UNL     1       4.659   2.811  11.396  0.00  0.00    +0.000 C 
ENDBRANCH  15  19
ENDBRANCH  14  17
ENDBRANCH  13  14
ENDBRANCH   1  13
TORSDOF 7
ENDMDL
MODEL 9
REMARK VINA RESULT:      -6.5      4.534      7.032
REMARK  Name = 
REMARK  10 active torsions:
REMARK  status: ('A' for Active; 'I' for Inactive)
REMARK    1  A    between atoms: C_2  and  C_3
REMARK    2  A    between atoms: C_3  and  C_4
REMARK    3  A    between atoms: C_5  and  C_6
REMARK    4  A    between atoms: C_6  and  C_7
REMARK    5  A    between atoms: C_7  and  C_8
REMARK    6  A    between atoms: C_8  and  C_9
REMARK    7  A    between atoms: C_10  and  C_11
REMARK    8  A    between atoms: C_13  and  C_14
REMARK    9  A    between atoms: C_14  and  O_16
REMARK   10  A    between atoms: O_16  and  C_17
REMARK                            x       y       z     vdW  Elec       q    Type
REMARK                         _______ _______ _______ _____ _____    ______ ____
ROOT
ATOM      1  C   UNL     1       7.201   7.021  17.866  0.00  0.00    +0.000 C 
ATOM      2  C   UNL     1       7.718   6.064  18.912  0.00  0.00    +0.000 C 
ATOM      3  C   UNL     1       5.981   6.903  17.305  0.00  0.00    +0.000 C 
ENDROOT
BRANCH   3   4
ATOM      4  C   UNL     1       4.979   5.994  17.730  0.00  0.00    +0.000 A 
ATOM      5  C   UNL     1       4.823   4.667  17.346  0.00  0.00    +0.000 A 
ATOM      6  C   UNL     1       3.609   4.181  17.905  0.00  0.00    +0.000 A 
ATOM      7  C   UNL     1       3.106   5.230  18.636  0.00  0.00    +0.000 A 
ATOM      8  O   UNL     1       3.917   6.311  18.546  0.00  0.00    +0.000 OA
BRANCH   6   9
ATOM      9  C   UNL     1       2.984   2.888  17.746  0.00  0.00    +0.000 C 
ATOM     10  O   UNL     1       3.606   1.834  17.715  0.00  0.00    +0.000 OA
BRANCH   9  11
ATOM     11  O   UNL     1       1.626   2.989  17.667  0.00  0.00    +0.000 OA
ATOM     12  C   UNL     1       0.932   2.421  18.778  0.00  0.00    +0.000 C 
ENDBRANCH   9  11
ENDBRANCH   6   9
ENDBRANCH   3   4
BRANCH   1  13
ATOM     13  C   UNL     1       8.176   8.118  17.452  0.00  0.00    +0.000 C 
BRANCH  13  14
ATOM     14  C   UNL     1       8.002   9.451  18.198  0.00  0.00    +0.000 C 
BRANCH  14  17
ATOM     15  C   UNL     1       9.822  10.904  19.205  0.00  0.00    +0.000 C 
ATOM     16  C   UNL     1       9.243  10.750  20.591  0.00  0.00    +0.000 C 
ATOM     17  C   UNL     1       9.207  10.352  18.135  0.00  0.00    +0.000 C 
BRANCH  15  19
ATOM     18  C   UNL     1      11.722  11.820  17.848  0.00  0.00    +0.000 C 
ATOM     19  C   UNL     1      11.060  11.640  18.997  0.00  0.00    +0.000 C 
ENDBRANCH  15  19
ENDBRANCH  14  17
ENDBRANCH  13  14
ENDBRANCH   1  13
TORSDOF 7
ENDMDL
