MODEL 1
REMARK VINA RESULT:      -6.6      0.000      0.000
REMARK  Name = 
REMARK  10 active torsions:
REMARK  status: ('A' for Active; 'I' for Inactive)
REMARK    1  A    between atoms: C_1  and  C_2
REMARK    2  A    between atoms: C_2  and  N_3
REMARK    3  A    between atoms: N_3  and  C_19
REMARK    4  A    between atoms: C_4  and  C_6
REMARK    5  A    between atoms: C_9  and  C_10
REMARK    6  A    between atoms: C_10  and  O_12
REMARK    7  A    between atoms: O_12  and  C_13
REMARK    8  A    between atoms: C_13  and  C_14
REMARK    9  A    between atoms: C_13  and  C_15
REMARK   10  A    between atoms: C_13  and  C_16
REMARK                            x       y       z     vdW  Elec       q    Type
REMARK                         _______ _______ _______ _____ _____    ______ ____
ROOT
ATOM      1  C   UNL     1       2.824   5.920  18.729  0.00  0.00    +0.000 A 
ATOM      2  C   UNL     1       2.388   5.501  19.980  0.00  0.00    +0.000 A 
ATOM      3  N   UNL     1       1.728   6.328  20.856  0.00  0.00    +0.000 NA
ATOM      4  C   UNL     1       1.547   7.606  20.420  0.00  0.00    +0.000 A 
ATOM      5  C   UNL     1       2.062   8.036  19.207  0.00  0.00    +0.000 A 
ATOM      6  N   UNL     1       2.719   7.221  18.357  0.00  0.00    +0.000 NA
ENDROOT
BRANCH   1   8
ATOM      7  N   UNL     1       4.743   4.915  17.417  0.00  0.00    +0.000 N 
ATOM      8  C   UNL     1       3.358   4.945  17.714  0.00  0.00    +0.000 C 
ATOM      9  O   UNL     1       2.544   4.207  17.158  0.00  0.00    +0.000 OA
BRANCH   7  10
ATOM     10  C   UNL     1       5.719   5.869  17.979  0.00  0.00    +0.000 C 
ATOM     11  C   UNL     1       7.025   5.209  18.435  0.00  0.00    +0.000 C 
ATOM     12  C   UNL     1       7.911   6.402  18.761  0.00  0.00    +0.000 C 
ATOM     13  C   UNL     1       7.511   7.486  17.762  0.00  0.00    +0.000 C 
ATOM     14  C   UNL     1       6.243   6.985  17.066  0.00  0.00    +0.000 C 
ENDBRANCH   7  10
BRANCH   7  16
ATOM     15  C   UNL     1       5.521   4.205  15.147  0.00  0.00    +0.000 C 
ATOM     16  C   UNL     1       5.247   3.810  16.592  0.00  0.00    +0.000 C 
ENDBRANCH   7  16
ENDBRANCH   1   8
BRANCH   4  17
ATOM     17  C   UNL     1       0.724   8.594  21.156  0.00  0.00    +0.000 C 
ATOM     18  O   UNL     1      -0.324   8.244  21.687  0.00  0.00    +0.000 OA
BRANCH  17  19
ATOM     19  O   UNL     1       1.248   9.843  21.189  0.00  0.00    +0.000 OA
BRANCH  19  20
ATOM     20  C   UNL     1       0.407  10.959  20.785  0.00  0.00    +0.000 C 
ATOM     21  C   UNL     1      -0.569  10.544  19.673  0.00  0.00    +0.000 C 
ATOM     22  C   UNL     1      -0.417  11.353  22.020  0.00  0.00    +0.000 C 
ATOM     23  C   UNL     1       1.252  12.177  20.377  0.00  0.00    +0.000 C 
ENDBRANCH  19  20
ENDBRANCH  17  19
ENDBRANCH   4  17
TORSDOF 6
ENDMDL
MODEL 2
REMARK VINA RESULT:      -6.5      1.006      1.453
REMARK  Name = 
REMARK  10 active torsions:
REMARK  status: ('A' for Active; 'I' for Inactive)
REMARK    1  A    between atoms: C_1  and  C_2
REMARK    2  A    between atoms: C_2  and  N_3
REMARK    3  A    between atoms: N_3  and  C_19
REMARK    4  A    between atoms: C_4  and  C_6
REMARK    5  A    between atoms: C_9  and  C_10
REMARK    6  A    between atoms: C_10  and  O_12
REMARK    7  A    between atoms: O_12  and  C_13
REMARK    8  A    between atoms: C_13  and  C_14
REMARK    9  A    between atoms: C_13  and  C_15
REMARK   10  A    between atoms: C_13  and  C_16
REMARK                            x       y       z     vdW  Elec       q    Type
REMARK                         _______ _______ _______ _____ _____    ______ ____
ROOT
ATOM      1  C   UNL     1       2.638   6.502  18.640  0.00  0.00    +0.000 A 
ATOM      2  C   UNL     1       2.318   6.412  19.989  0.00  0.00    +0.000 A 
ATOM      3  N   UNL     1       1.737   7.441  20.689  0.00  0.00    +0.000 NA
ATOM      4  C   UNL     1       1.514   8.576  19.970  0.00  0.00    +0.000 A 
ATOM      5  C   UNL     1       1.917   8.685  18.647  0.00  0.00    +0.000 A 
ATOM      6  N   UNL     1       2.496   7.673  17.969  0.00  0.00    +0.000 NA
ENDROOT
BRANCH   1   8
ATOM      7  N   UNL     1       4.461   5.058  17.637  0.00  0.00    +0.000 N 
ATOM      8  C   UNL     1       3.081   5.298  17.854  0.00  0.00    +0.000 C 
ATOM      9  O   UNL     1       2.201   4.561  17.406  0.00  0.00    +0.000 OA
BRANCH   7  10
ATOM     10  C   UNL     1       5.526   5.988  18.059  0.00  0.00    +0.000 C 
ATOM     11  C   UNL     1       6.799   5.280  18.540  0.00  0.00    +0.000 C 
ATOM     12  C   UNL     1       7.783   6.429  18.704  0.00  0.00    +0.000 C 
ATOM     13  C   UNL     1       7.421   7.429  17.607  0.00  0.00    +0.000 C 
ATOM     14  C   UNL     1       6.092   6.956  17.013  0.00  0.00    +0.000 C 
ENDBRANCH   7  10
BRANCH   7  16
ATOM     15  C   UNL     1       5.288   3.857  15.603  0.00  0.00    +0.000 C 
ATOM     16  C   UNL     1       4.854   3.766  17.060  0.00  0.00    +0.000 C 
ENDBRANCH   7  16
ENDBRANCH   1   8
BRANCH   4  17
ATOM     17  C   UNL     1       0.758   9.730  20.509  0.00  0.00    +0.000 C 
ATOM     18  O   UNL     1       1.158  10.310  21.513  0.00  0.00    +0.000 OA
BRANCH  17  19
ATOM     19  O   UNL     1      -0.343  10.061  19.793  0.00  0.00    +0.000 OA
BRANCH  19  20
ATOM     20  C   UNL     1      -0.548  11.457  19.438  0.00  0.00    +0.000 C 
ATOM     21  C   UNL     1       0.772  12.119  19.008  0.00  0.00    +0.000 C 
ATOM     22  C   UNL     1      -1.499  11.464  18.233  0.00  0.00    +0.000 C 
ATOM     23  C   UNL     1      -1.229  12.230  20.579  0.00  0.00    +0.000 C 
ENDBRANCH  19  20
ENDBRANCH  17  19
ENDBRANCH   4  17
TORSDOF 6
ENDMDL
MODEL 3
REMARK VINA RESULT:      -6.5      2.126      3.842
REMARK  Name = 
REMARK  10 active torsions:
REMARK  status: ('A' for Active; 'I' for Inactive)
REMARK    1  A    between atoms: C_1  and  C_2
REMARK    2  A    between atoms: C_2  and  N_3
REMARK    3  A    between atoms: N_3  and  C_19
REMARK    4  A    between atoms: C_4  and  C_6
REMARK    5  A    between atoms: C_9  and  C_10
REMARK    6  A    between atoms: C_10  and  O_12
REMARK    7  A    between atoms: O_12  and  C_13
REMARK    8  A    between atoms: C_13  and  C_14
REMARK    9  A    between atoms: C_13  and  C_15
REMARK   10  A    between atoms: C_13  and  C_16
REMARK                            x       y       z     vdW  Elec       q    Type
REMARK                         _______ _______ _______ _____ _____    ______ ____
ROOT
ATOM      1  C   UNL     1       2.396   7.690  18.567  0.00  0.00    +0.000 A 
ATOM      2  C   UNL     1       1.802   8.695  17.812  0.00  0.00    +0.000 A 
ATOM      3  N   UNL     1       1.044   9.697  18.368  0.00  0.00    +0.000 NA
ATOM      4  C   UNL     1       0.893   9.625  19.719  0.00  0.00    +0.000 A 
ATOM      5  C   UNL     1       1.417   8.570  20.451  0.00  0.00    +0.000 A 
ATOM      6  N   UNL     1       2.152   7.584  19.897  0.00  0.00    +0.000 NA
ENDROOT
BRANCH   1   8
ATOM      7  N   UNL     1       3.169   5.332  18.057  0.00  0.00    +0.000 N 
ATOM      8  C   UNL     1       3.383   6.729  17.960  0.00  0.00    +0.000 C 
ATOM      9  O   UNL     1       4.372   7.212  17.405  0.00  0.00    +0.000 OA
BRANCH   7  10
ATOM     10  C   UNL     1       2.059   4.729  18.820  0.00  0.00    +0.000 C 
ATOM     11  C   UNL     1       1.532   3.427  18.204  0.00  0.00    +0.000 C 
ATOM     12  C   UNL     1       0.572   2.915  19.267  0.00  0.00    +0.000 C 
ATOM     13  C   UNL     1       1.184   3.339  20.602  0.00  0.00    +0.000 C 
ATOM     14  C   UNL     1       2.331   4.295  20.266  0.00  0.00    +0.000 C 
ENDBRANCH   7  10
BRANCH   7  16
ATOM     15  C   UNL     1       5.289   4.003  18.009  0.00  0.00    +0.000 C 
ATOM     16  C   UNL     1       4.033   4.446  17.268  0.00  0.00    +0.000 C 
ENDBRANCH   7  16
ENDBRANCH   1   8
BRANCH   4  17
ATOM     17  C   UNL     1       0.244  10.697  20.510  0.00  0.00    +0.000 C 
ATOM     18  O   UNL     1       0.902  11.352  21.311  0.00  0.00    +0.000 OA
BRANCH  17  19
ATOM     19  O   UNL     1      -1.072  10.870  20.241  0.00  0.00    +0.000 OA
BRANCH  19  20
ATOM     20  C   UNL     1      -1.468  11.991  19.402  0.00  0.00    +0.000 C 
ATOM     21  C   UNL     1      -2.080  11.503  18.078  0.00  0.00    +0.000 C 
ATOM     22  C   UNL     1      -2.554  12.752  20.177  0.00  0.00    +0.000 C 
ATOM     23  C   UNL     1      -0.295  12.956  19.168  0.00  0.00    +0.000 C 
ENDBRANCH  19  20
ENDBRANCH  17  19
ENDBRANCH   4  17
TORSDOF 6
ENDMDL
MODEL 4
REMARK VINA RESULT:      -6.5      2.088      3.911
REMARK  Name = 
REMARK  10 active torsions:
REMARK  status: ('A' for Active; 'I' for Inactive)
REMARK    1  A    between atoms: C_1  and  C_2
REMARK    2  A    between atoms: C_2  and  N_3
REMARK    3  A    between atoms: N_3  and  C_19
REMARK    4  A    between atoms: C_4  and  C_6
REMARK    5  A    between atoms: C_9  and  C_10
REMARK    6  A    between atoms: C_10  and  O_12
REMARK    7  A    between atoms: O_12  and  C_13
REMARK    8  A    between atoms: C_13  and  C_14
REMARK    9  A    between atoms: C_13  and  C_15
REMARK   10  A    between atoms: C_13  and  C_16
REMARK                            x       y       z     vdW  Elec       q    Type
REMARK                         _______ _______ _______ _____ _____    ______ ____
ROOT
ATOM      1  C   UNL     1       2.385   7.694  18.578  0.00  0.00    +0.000 A 
ATOM      2  C   UNL     1       1.767   8.670  17.804  0.00  0.00    +0.000 A 
ATOM      3  N   UNL     1       0.977   9.657  18.341  0.00  0.00    +0.000 NA
ATOM      4  C   UNL     1       0.819   9.601  19.692  0.00  0.00    +0.000 A 
ATOM      5  C   UNL     1       1.369   8.572  20.443  0.00  0.00    +0.000 A 
ATOM      6  N   UNL     1       2.136   7.600  19.907  0.00  0.00    +0.000 NA
ENDROOT
BRANCH   1   8
ATOM      7  N   UNL     1       3.211   5.352  18.076  0.00  0.00    +0.000 N 
ATOM      8  C   UNL     1       3.404   6.754  17.991  0.00  0.00    +0.000 C 
ATOM      9  O   UNL     1       4.398   7.257  17.464  0.00  0.00    +0.000 OA
BRANCH   7  10
ATOM     10  C   UNL     1       2.093   4.726  18.807  0.00  0.00    +0.000 C 
ATOM     11  C   UNL     1       1.587   3.433  18.156  0.00  0.00    +0.000 C 
ATOM     12  C   UNL     1       0.612   2.893  19.191  0.00  0.00    +0.000 C 
ATOM     13  C   UNL     1       1.198   3.294  20.544  0.00  0.00    +0.000 C 
ATOM     14  C   UNL     1       2.343   4.265  20.248  0.00  0.00    +0.000 C 
ENDBRANCH   7  10
BRANCH   7  16
ATOM     15  C   UNL     1       5.367   4.081  18.066  0.00  0.00    +0.000 C 
ATOM     16  C   UNL     1       4.111   4.485  17.304  0.00  0.00    +0.000 C 
ENDBRANCH   7  16
ENDBRANCH   1   8
BRANCH   4  17
ATOM     17  C   UNL     1       0.134  10.665  20.463  0.00  0.00    +0.000 C 
ATOM     18  O   UNL     1      -0.490  10.380  21.479  0.00  0.00    +0.000 OA
BRANCH  17  19
ATOM     19  O   UNL     1       0.291  11.911  19.956  0.00  0.00    +0.000 OA
BRANCH  19  20
ATOM     20  C   UNL     1      -0.888  12.623  19.486  0.00  0.00    +0.000 C 
ATOM     21  C   UNL     1      -1.522  13.451  20.616  0.00  0.00    +0.000 C 
ATOM     22  C   UNL     1      -0.405  13.593  18.398  0.00  0.00    +0.000 C 
ATOM     23  C   UNL     1      -1.902  11.663  18.843  0.00  0.00    +0.000 C 
ENDBRANCH  19  20
ENDBRANCH  17  19
ENDBRANCH   4  17
TORSDOF 6
ENDMDL
MODEL 5
REMARK VINA RESULT:      -6.4      1.032      1.440
REMARK  Name = 
REMARK  10 active torsions:
REMARK  status: ('A' for Active; 'I' for Inactive)
REMARK    1  A    between atoms: C_1  and  C_2
REMARK    2  A    between atoms: C_2  and  N_3
REMARK    3  A    between atoms: N_3  and  C_19
REMARK    4  A    between atoms: C_4  and  C_6
REMARK    5  A    between atoms: C_9  and  C_10
REMARK    6  A    between atoms: C_10  and  O_12
REMARK    7  A    between atoms: O_12  and  C_13
REMARK    8  A    between atoms: C_13  and  C_14
REMARK    9  A    between atoms: C_13  and  C_15
REMARK   10  A    between atoms: C_13  and  C_16
REMARK                            x       y       z     vdW  Elec       q    Type
REMARK                         _______ _______ _______ _____ _____    ______ ____
ROOT
ATOM      1  C   UNL     1       2.722   6.508  18.539  0.00  0.00    +0.000 A 
ATOM      2  C   UNL     1       2.401   6.449  19.890  0.00  0.00    +0.000 A 
ATOM      3  N   UNL     1       1.774   7.476  20.553  0.00  0.00    +0.000 NA
ATOM      4  C   UNL     1       1.506   8.575  19.795  0.00  0.00    +0.000 A 
ATOM      5  C   UNL     1       1.908   8.656  18.470  0.00  0.00    +0.000 A 
ATOM      6  N   UNL     1       2.533   7.648  17.829  0.00  0.00    +0.000 NA
ENDROOT
BRANCH   1   8
ATOM      7  N   UNL     1       4.611   5.090  17.623  0.00  0.00    +0.000 N 
ATOM      8  C   UNL     1       3.220   5.297  17.795  0.00  0.00    +0.000 C 
ATOM      9  O   UNL     1       2.372   4.526  17.341  0.00  0.00    +0.000 OA
BRANCH   7  10
ATOM     10  C   UNL     1       5.639   6.058  18.051  0.00  0.00    +0.000 C 
ATOM     11  C   UNL     1       6.921   5.397  18.572  0.00  0.00    +0.000 C 
ATOM     12  C   UNL     1       7.866   6.578  18.737  0.00  0.00    +0.000 C 
ATOM     13  C   UNL     1       7.499   7.548  17.615  0.00  0.00    +0.000 C 
ATOM     14  C   UNL     1       6.198   7.026  17.001  0.00  0.00    +0.000 C 
ENDBRANCH   7  10
BRANCH   7  16
ATOM     15  C   UNL     1       5.505   3.860  15.635  0.00  0.00    +0.000 C 
ATOM     16  C   UNL     1       5.054   3.796  17.089  0.00  0.00    +0.000 C 
ENDBRANCH   7  16
ENDBRANCH   1   8
BRANCH   4  17
ATOM     17  C   UNL     1       0.699   9.714  20.293  0.00  0.00    +0.000 C 
ATOM     18  O   UNL     1      -0.286   9.507  20.993  0.00  0.00    +0.000 OA
BRANCH  17  19
ATOM     19  O   UNL     1       1.164  10.932  19.924  0.00  0.00    +0.000 OA
BRANCH  19  20
ATOM     20  C   UNL     1       0.228  11.890  19.358  0.00  0.00    +0.000 C 
ATOM     21  C   UNL     1      -0.450  12.720  20.459  0.00  0.00    +0.000 C 
ATOM     22  C   UNL     1       1.057  12.844  18.485  0.00  0.00    +0.000 C 
ATOM     23  C   UNL     1      -0.801  11.198  18.449  0.00  0.00    +0.000 C 
ENDBRANCH  19  20
ENDBRANCH  17  19
ENDBRANCH   4  17
TORSDOF 6
ENDMDL
MODEL 6
REMARK VINA RESULT:      -6.4      2.090      3.856
REMARK  Name = 
REMARK  10 active torsions:
REMARK  status: ('A' for Active; 'I' for Inactive)
REMARK    1  A    between atoms: C_1  and  C_2
REMARK    2  A    between atoms: C_2  and  N_3
REMARK    3  A    between atoms: N_3  and  C_19
REMARK    4  A    between atoms: C_4  and  C_6
REMARK    5  A    between atoms: C_9  and  C_10
REMARK    6  A    between atoms: C_10  and  O_12
REMARK    7  A    between atoms: O_12  and  C_13
REMARK    8  A    between atoms: C_13  and  C_14
REMARK    9  A    between atoms: C_13  and  C_15
REMARK   10  A    between atoms: C_13  and  C_16
REMARK                            x       y       z     vdW  Elec       q    Type
REMARK                         _______ _______ _______ _____ _____    ______ ____
ROOT
ATOM      1  C   UNL     1       2.397   7.699  18.574  0.00  0.00    +0.000 A 
ATOM      2  C   UNL     1       1.778   8.698  17.832  0.00  0.00    +0.000 A 
ATOM      3  N   UNL     1       1.032   9.700  18.403  0.00  0.00    +0.000 NA
ATOM      4  C   UNL     1       0.919   9.636  19.759  0.00  0.00    +0.000 A 
ATOM      5  C   UNL     1       1.468   8.586  20.481  0.00  0.00    +0.000 A 
ATOM      6  N   UNL     1       2.190   7.600  19.911  0.00  0.00    +0.000 NA
ENDROOT
BRANCH   1   8
ATOM      7  N   UNL     1       3.154   5.342  18.040  0.00  0.00    +0.000 N 
ATOM      8  C   UNL     1       3.370   6.739  17.946  0.00  0.00    +0.000 C 
ATOM      9  O   UNL     1       4.349   7.222  17.374  0.00  0.00    +0.000 OA
BRANCH   7  10
ATOM     10  C   UNL     1       2.056   4.738  18.820  0.00  0.00    +0.000 C 
ATOM     11  C   UNL     1       1.493   3.458  18.191  0.00  0.00    +0.000 C 
ATOM     12  C   UNL     1       0.554   2.937  19.268  0.00  0.00    +0.000 C 
ATOM     13  C   UNL     1       1.210   3.321  20.594  0.00  0.00    +0.000 C 
ATOM     14  C   UNL     1       2.361   4.268  20.248  0.00  0.00    +0.000 C 
ENDBRANCH   7  10
BRANCH   7  16
ATOM     15  C   UNL     1       5.272   4.012  17.945  0.00  0.00    +0.000 C 
ATOM     16  C   UNL     1       4.001   4.457  17.231  0.00  0.00    +0.000 C 
ENDBRANCH   7  16
ENDBRANCH   1   8
BRANCH   4  17
ATOM     17  C   UNL     1       0.289  10.709  20.562  0.00  0.00    +0.000 C 
ATOM     18  O   UNL     1      -0.930  10.742  20.691  0.00  0.00    +0.000 OA
BRANCH  17  19
ATOM     19  O   UNL     1       1.166  11.579  21.118  0.00  0.00    +0.000 OA
BRANCH  19  20
ATOM     20  C   UNL     1       1.083  12.982  20.746  0.00  0.00    +0.000 C 
ATOM     21  C   UNL     1       0.250  13.778  21.764  0.00  0.00    +0.000 C 
ATOM     22  C   UNL     1       2.519  13.526  20.778  0.00  0.00    +0.000 C 
ATOM     23  C   UNL     1       0.549  13.151  19.315  0.00  0.00    +0.000 C 
ENDBRANCH  19  20
ENDBRANCH  17  19
ENDBRANCH   4  17
TORSDOF 6
ENDMDL
MODEL 7
REMARK VINA RESULT:      -6.3      2.179      3.980
REMARK  Name = 
REMARK  10 active torsions:
REMARK  status: ('A' for Active; 'I' for Inactive)
REMARK    1  A    between atoms: C_1  and  C_2
REMARK    2  A    between atoms: C_2  and  N_3
REMARK    3  A    between atoms: N_3  and  C_19
REMARK    4  A    between atoms: C_4  and  C_6
REMARK    5  A    between atoms: C_9  and  C_10
REMARK    6  A    between atoms: C_10  and  O_12
REMARK    7  A    between atoms: O_12  and  C_13
REMARK    8  A    between atoms: C_13  and  C_14
REMARK    9  A    between atoms: C_13  and  C_15
REMARK   10  A    between atoms: C_13  and  C_16
REMARK                            x       y       z     vdW  Elec       q    Type
REMARK                         _______ _______ _______ _____ _____    ______ ____
ROOT
ATOM      1  C   UNL     1       2.725   7.407  18.546  0.00  0.00    +0.000 A 
ATOM      2  C   UNL     1       2.297   8.349  17.617  0.00  0.00    +0.000 A 
ATOM      3  N   UNL     1       1.478   9.402  17.945  0.00  0.00    +0.000 NA
ATOM      4  C   UNL     1       1.090   9.449  19.250  0.00  0.00    +0.000 A 
ATOM      5  C   UNL     1       1.452   8.456  20.148  0.00  0.00    +0.000 A 
ATOM      6  N   UNL     1       2.248   7.419  19.816  0.00  0.00    +0.000 NA
ENDROOT
BRANCH   1   8
ATOM      7  N   UNL     1       3.532   5.010  18.416  0.00  0.00    +0.000 N 
ATOM      8  C   UNL     1       3.779   6.389  18.206  0.00  0.00    +0.000 C 
ATOM      9  O   UNL     1       4.849   6.811  17.762  0.00  0.00    +0.000 OA
BRANCH   7  10
ATOM     10  C   UNL     1       2.308   4.490  19.057  0.00  0.00    +0.000 C 
ATOM     11  C   UNL     1       1.664   3.329  18.290  0.00  0.00    +0.000 C 
ATOM     12  C   UNL     1       0.581   2.852  19.246  0.00  0.00    +0.000 C 
ATOM     13  C   UNL     1       1.154   3.070  20.646  0.00  0.00    +0.000 C 
ATOM     14  C   UNL     1       2.430   3.896  20.466  0.00  0.00    +0.000 C 
ENDBRANCH   7  10
BRANCH   7  16
ATOM     15  C   UNL     1       4.565   4.051  16.348  0.00  0.00    +0.000 C 
ATOM     16  C   UNL     1       4.494   4.045  17.870  0.00  0.00    +0.000 C 
ENDBRANCH   7  16
ENDBRANCH   1   8
BRANCH   4  17
ATOM     17  C   UNL     1       0.339  10.590  19.821  0.00  0.00    +0.000 C 
ATOM     18  O   UNL     1       0.943  11.529  20.328  0.00  0.00    +0.000 OA
BRANCH  17  19
ATOM     19  O   UNL     1      -1.007  10.490  19.701  0.00  0.00    +0.000 OA
BRANCH  19  20
ATOM     20  C   UNL     1      -1.668  11.241  18.646  0.00  0.00    +0.000 C 
ATOM     21  C   UNL     1      -2.975  11.874  19.152  0.00  0.00    +0.000 C 
ATOM     22  C   UNL     1      -0.710  12.376  18.254  0.00  0.00    +0.000 C 
ATOM     23  C   UNL     1      -1.900  10.371  17.400  0.00  0.00    +0.000 C 
ENDBRANCH  19  20
ENDBRANCH  17  19
ENDBRANCH   4  17
TORSDOF 6
ENDMDL
MODEL 8
REMARK VINA RESULT:      -6.3      1.241      1.536
REMARK  Name = 
REMARK  10 active torsions:
REMARK  status: ('A' for Active; 'I' for Inactive)
REMARK    1  A    between atoms: C_1  and  C_2
REMARK    2  A    between atoms: C_2  and  N_3
REMARK    3  A    between atoms: N_3  and  C_19
REMARK    4  A    between atoms: C_4  and  C_6
REMARK    5  A    between atoms: C_9  and  C_10
REMARK    6  A    between atoms: C_10  and  O_12
REMARK    7  A    between atoms: O_12  and  C_13
REMARK    8  A    between atoms: C_13  and  C_14
REMARK    9  A    between atoms: C_13  and  C_15
REMARK   10  A    between atoms: C_13  and  C_16
REMARK                            x       y       z     vdW  Elec       q    Type
REMARK                         _______ _______ _______ _____ _____    ______ ____
ROOT
ATOM      1  C   UNL     1       2.375   6.577  18.697  0.00  0.00    +0.000 A 
ATOM      2  C   UNL     1       2.125   6.554  20.064  0.00  0.00    +0.000 A 
ATOM      3  N   UNL     1       1.635   7.637  20.751  0.00  0.00    +0.000 NA
ATOM      4  C   UNL     1       1.429   8.754  20.000  0.00  0.00    +0.000 A 
ATOM      5  C   UNL     1       1.763   8.793  18.655  0.00  0.00    +0.000 A 
ATOM      6  N   UNL     1       2.254   7.728  17.988  0.00  0.00    +0.000 NA
ENDROOT
BRANCH   1   8
ATOM      7  N   UNL     1       4.069   4.989  17.685  0.00  0.00    +0.000 N 
ATOM      8  C   UNL     1       2.715   5.323  17.937  0.00  0.00    +0.000 C 
ATOM      9  O   UNL     1       1.775   4.631  17.542  0.00  0.00    +0.000 OA
BRANCH   7  10
ATOM     10  C   UNL     1       5.204   5.861  18.043  0.00  0.00    +0.000 C 
ATOM     11  C   UNL     1       6.429   5.091  18.551  0.00  0.00    +0.000 C 
ATOM     12  C   UNL     1       7.495   6.173  18.639  0.00  0.00    +0.000 C 
ATOM     13  C   UNL     1       7.191   7.133  17.491  0.00  0.00    +0.000 C 
ATOM     14  C   UNL     1       5.823   6.726  16.938  0.00  0.00    +0.000 C 
ENDBRANCH   7  10
BRANCH   7  16
ATOM     15  C   UNL     1       3.884   2.516  18.030  0.00  0.00    +0.000 C 
ATOM     16  C   UNL     1       4.360   3.657  17.139  0.00  0.00    +0.000 C 
ENDBRANCH   7  16
ENDBRANCH   1   8
BRANCH   4  17
ATOM     17  C   UNL     1       0.761   9.965  20.532  0.00  0.00    +0.000 C 
ATOM     18  O   UNL     1       1.283  10.605  21.437  0.00  0.00    +0.000 OA
BRANCH  17  19
ATOM     19  O   UNL     1      -0.409  10.272  19.921  0.00  0.00    +0.000 OA
BRANCH  19  20
ATOM     20  C   UNL     1      -0.569  11.603  19.357  0.00  0.00    +0.000 C 
ATOM     21  C   UNL     1      -1.483  11.576  18.121  0.00  0.00    +0.000 C 
ATOM     22  C   UNL     1      -1.254  12.453  20.437  0.00  0.00    +0.000 C 
ATOM     23  C   UNL     1       0.792  12.247  19.047  0.00  0.00    +0.000 C 
ENDBRANCH  19  20
ENDBRANCH  17  19
ENDBRANCH   4  17
TORSDOF 6
ENDMDL
MODEL 9
REMARK VINA RESULT:      -6.2      2.124      3.669
REMARK  Name = 
REMARK  10 active torsions:
REMARK  status: ('A' for Active; 'I' for Inactive)
REMARK    1  A    between atoms: C_1  and  C_2
REMARK    2  A    between atoms: C_2  and  N_3
REMARK    3  A    between atoms: N_3  and  C_19
REMARK    4  A    between atoms: C_4  and  C_6
REMARK    5  A    between atoms: C_9  and  C_10
REMARK    6  A    between atoms: C_10  and  O_12
REMARK    7  A    between atoms: O_12  and  C_13
REMARK    8  A    between atoms: C_13  and  C_14
REMARK    9  A    between atoms: C_13  and  C_15
REMARK   10  A    between atoms: C_13  and  C_16
REMARK                            x       y       z     vdW  Elec       q    Type
REMARK                         _______ _______ _______ _____ _____    ______ ____
ROOT
ATOM      1  C   UNL     1       2.648   7.851  18.348  0.00  0.00    +0.000 A 
ATOM      2  C   UNL     1       2.204   7.862  19.665  0.00  0.00    +0.000 A 
ATOM      3  N   UNL     1       1.210   8.699  20.111  0.00  0.00    +0.000 NA
ATOM      4  C   UNL     1       0.699   9.542  19.171  0.00  0.00    +0.000 A 
ATOM      5  C   UNL     1       1.210   9.583  17.883  0.00  0.00    +0.000 A 
ATOM      6  N   UNL     1       2.193   8.765  17.455  0.00  0.00    +0.000 NA
ENDROOT
BRANCH   1   8
ATOM      7  N   UNL     1       3.326   5.422  18.109  0.00  0.00    +0.000 N 
ATOM      8  C   UNL     1       3.587   6.790  17.843  0.00  0.00    +0.000 C 
ATOM      9  O   UNL     1       4.580   7.167  17.218  0.00  0.00    +0.000 OA
BRANCH   7  10
ATOM     10  C   UNL     1       2.212   4.955  18.956  0.00  0.00    +0.000 C 
ATOM     11  C   UNL     1       1.530   3.689  18.424  0.00  0.00    +0.000 C 
ATOM     12  C   UNL     1       0.591   3.309  19.559  0.00  0.00    +0.000 C 
ATOM     13  C   UNL     1       1.318   3.718  20.838  0.00  0.00    +0.000 C 
ATOM     14  C   UNL     1       2.528   4.548  20.401  0.00  0.00    +0.000 C 
ENDBRANCH   7  10
BRANCH   7  16
ATOM     15  C   UNL     1       5.409   4.037  18.170  0.00  0.00    +0.000 C 
ATOM     16  C   UNL     1       4.142   4.418  17.415  0.00  0.00    +0.000 C 
ENDBRANCH   7  16
ENDBRANCH   1   8
BRANCH   4  17
ATOM     17  C   UNL     1      -0.479  10.403  19.424  0.00  0.00    +0.000 C 
ATOM     18  O   UNL     1      -0.976  11.048  18.507  0.00  0.00    +0.000 OA
BRANCH  17  19
ATOM     19  O   UNL     1      -0.927  10.376  20.703  0.00  0.00    +0.000 OA
BRANCH  19  20
ATOM     20  C   UNL     1      -0.942  11.618  21.460  0.00  0.00    +0.000 C 
ATOM     21  C   UNL     1      -2.197  12.447  21.141  0.00  0.00    +0.000 C 
ATOM     22  C   UNL     1      -0.995  11.222  22.943  0.00  0.00    +0.000 C 
ATOM     23  C   UNL     1       0.348  12.425  21.236  0.00  0.00    +0.000 C 
ENDBRANCH  19  20
ENDBRANCH  17  19
ENDBRANCH   4  17
TORSDOF 6
ENDMDL
