MODEL 1
REMARK VINA RESULT:      -7.3      0.000      0.000
REMARK  Name = 
REMARK  6 active torsions:
REMARK  status: ('A' for Active; 'I' for Inactive)
REMARK    1  A    between atoms: N_5  and  C_6
REMARK    2  A    between atoms: C_6  and  C_7
REMARK    3  A    between atoms: C_7  and  C_8
REMARK    4  A    between atoms: C_8  and  C_9
REMARK    5  A    between atoms: C_9  and  O_10
REMARK    6  A    between atoms: O_10  and  C_11
REMARK                            x       y       z     vdW  Elec       q    Type
REMARK                         _______ _______ _______ _____ _____    ______ ____
ROOT
ATOM      1  C   UNL     1       3.530   3.329  18.199  0.00  0.00    +0.000 C 
ENDROOT
BRANCH   1   2
ATOM      2  C   UNL     1       4.921   3.885  18.528  0.00  0.00    +0.000 C 
BRANCH   2   7
ATOM      3  O   UNL     1       7.674   5.389  14.063  0.00  0.00    +0.000 OA
ATOM      4  C   UNL     1       7.067   5.017  15.058  0.00  0.00    +0.000 A 
ATOM      5  C   UNL     1       5.624   4.733  15.005  0.00  0.00    +0.000 A 
ATOM      6  C   UNL     1       4.996   4.375  16.126  0.00  0.00    +0.000 A 
ATOM      7  N   UNL     1       5.662   4.258  17.326  0.00  0.00    +0.000 N 
ATOM      8  C   UNL     1       7.028   4.508  17.439  0.00  0.00    +0.000 A 
ATOM      9  O   UNL     1       7.654   4.444  18.495  0.00  0.00    +0.000 OA
ATOM     10  N   UNL     1       7.663   4.845  16.273  0.00  0.00    +0.000 N 
ATOM     11  H   UNL     1       8.650   5.040  16.335  0.00  0.00    +0.000 HD
ENDBRANCH   2   7
ENDBRANCH   1   2
BRANCH   1  12
ATOM     12  C   UNL     1       2.456   4.417  18.098  0.00  0.00    +0.000 C 
BRANCH  12  13
ATOM     13  C   UNL     1       2.297   5.171  19.414  0.00  0.00    +0.000 C 
BRANCH  13  14
ATOM     14  O   UNL     1       3.035   6.392  19.393  0.00  0.00    +0.000 OA
BRANCH  14  15
ATOM     15  C   UNL     1       2.260   7.527  19.357  0.00  0.00    +0.000 A 
ATOM     16  C   UNL     1       1.584   8.083  20.448  0.00  0.00    +0.000 A 
ATOM     17  C   UNL     1       0.817   9.241  20.295  0.00  0.00    +0.000 A 
ATOM     18  C   UNL     1       0.730   9.849  19.048  0.00  0.00    +0.000 A 
ATOM     19 BR   UNL     1      -0.306  11.416  18.846  0.00  0.00    +0.000 Br
ATOM     20  C   UNL     1       1.400   9.309  17.952  0.00  0.00    +0.000 A 
ATOM     21  C   UNL     1       2.165   8.148  18.109  0.00  0.00    +0.000 A 
ENDBRANCH  14  15
ENDBRANCH  13  14
ENDBRANCH  12  13
ENDBRANCH   1  12
TORSDOF 6
ENDMDL
MODEL 2
REMARK VINA RESULT:      -7.2      2.681      4.718
REMARK  Name = 
REMARK  6 active torsions:
REMARK  status: ('A' for Active; 'I' for Inactive)
REMARK    1  A    between atoms: N_5  and  C_6
REMARK    2  A    between atoms: C_6  and  C_7
REMARK    3  A    between atoms: C_7  and  C_8
REMARK    4  A    between atoms: C_8  and  C_9
REMARK    5  A    between atoms: C_9  and  O_10
REMARK    6  A    between atoms: O_10  and  C_11
REMARK                            x       y       z     vdW  Elec       q    Type
REMARK                         _______ _______ _______ _____ _____    ______ ____
ROOT
ATOM      1  C   UNL     1       3.433   3.560  16.840  0.00  0.00    +0.000 C 
ENDROOT
BRANCH   1   2
ATOM      2  C   UNL     1       3.663   2.337  17.737  0.00  0.00    +0.000 C 
BRANCH   2   7
ATOM      3  O   UNL     1       1.177   2.730  22.579  0.00  0.00    +0.000 OA
ATOM      4  C   UNL     1       1.741   2.677  21.495  0.00  0.00    +0.000 A 
ATOM      5  C   UNL     1       0.983   2.776  20.238  0.00  0.00    +0.000 A 
ATOM      6  C   UNL     1       1.637   2.667  19.080  0.00  0.00    +0.000 A 
ATOM      7  N   UNL     1       3.000   2.473  19.031  0.00  0.00    +0.000 N 
ATOM      8  C   UNL     1       3.773   2.376  20.185  0.00  0.00    +0.000 A 
ATOM      9  O   UNL     1       4.986   2.173  20.187  0.00  0.00    +0.000 OA
ATOM     10  N   UNL     1       3.090   2.520  21.365  0.00  0.00    +0.000 N 
ATOM     11  H   UNL     1       3.630   2.443  22.213  0.00  0.00    +0.000 HD
ENDBRANCH   2   7
ENDBRANCH   1   2
BRANCH   1  12
ATOM     12  C   UNL     1       4.726   4.309  16.500  0.00  0.00    +0.000 C 
BRANCH  12  13
ATOM     13  C   UNL     1       4.947   5.496  17.432  0.00  0.00    +0.000 C 
BRANCH  13  14
ATOM     14  O   UNL     1       4.084   6.579  17.088  0.00  0.00    +0.000 OA
BRANCH  14  15
ATOM     15  C   UNL     1       3.261   6.998  18.107  0.00  0.00    +0.000 A 
ATOM     16  C   UNL     1       2.998   6.287  19.283  0.00  0.00    +0.000 A 
ATOM     17  C   UNL     1       2.137   6.808  20.252  0.00  0.00    +0.000 A 
ATOM     18  C   UNL     1       1.541   8.047  20.048  0.00  0.00    +0.000 A 
ATOM     19 BR   UNL     1       0.379   8.749  21.362  0.00  0.00    +0.000 Br
ATOM     20  C   UNL     1       1.795   8.769  18.884  0.00  0.00    +0.000 A 
ATOM     21  C   UNL     1       2.656   8.243  17.915  0.00  0.00    +0.000 A 
ENDBRANCH  14  15
ENDBRANCH  13  14
ENDBRANCH  12  13
ENDBRANCH   1  12
TORSDOF 6
ENDMDL
MODEL 3
REMARK VINA RESULT:      -7.2      1.478      2.482
REMARK  Name = 
REMARK  6 active torsions:
REMARK  status: ('A' for Active; 'I' for Inactive)
REMARK    1  A    between atoms: N_5  and  C_6
REMARK    2  A    between atoms: C_6  and  C_7
REMARK    3  A    between atoms: C_7  and  C_8
REMARK    4  A    between atoms: C_8  and  C_9
REMARK    5  A    between atoms: C_9  and  O_10
REMARK    6  A    between atoms: O_10  and  C_11
REMARK                            x       y       z     vdW  Elec       q    Type
REMARK                         _______ _______ _______ _____ _____    ______ ____
ROOT
ATOM      1  C   UNL     1       3.677   3.625  17.792  0.00  0.00    +0.000 C 
ENDROOT
BRANCH   1   2
ATOM      2  C   UNL     1       4.542   4.215  16.670  0.00  0.00    +0.000 C 
BRANCH   2   7
ATOM      3  O   UNL     1       8.388   7.617  18.518  0.00  0.00    +0.000 OA
ATOM      4  C   UNL     1       7.500   6.874  18.121  0.00  0.00    +0.000 A 
ATOM      5  C   UNL     1       7.159   5.642  18.849  0.00  0.00    +0.000 A 
ATOM      6  C   UNL     1       6.216   4.840  18.351  0.00  0.00    +0.000 A 
ATOM      7  N   UNL     1       5.550   5.139  17.182  0.00  0.00    +0.000 N 
ATOM      8  C   UNL     1       5.825   6.292  16.451  0.00  0.00    +0.000 A 
ATOM      9  O   UNL     1       5.278   6.581  15.389  0.00  0.00    +0.000 OA
ATOM     10  N   UNL     1       6.775   7.120  16.991  0.00  0.00    +0.000 N 
ATOM     11  H   UNL     1       6.996   7.954  16.473  0.00  0.00    +0.000 HD
ENDBRANCH   2   7
ENDBRANCH   1   2
BRANCH   1  12
ATOM     12  C   UNL     1       2.383   4.411  18.029  0.00  0.00    +0.000 C 
BRANCH  12  13
ATOM     13  C   UNL     1       2.415   5.153  19.362  0.00  0.00    +0.000 C 
BRANCH  13  14
ATOM     14  O   UNL     1       3.157   6.366  19.251  0.00  0.00    +0.000 OA
BRANCH  14  15
ATOM     15  C   UNL     1       2.386   7.498  19.136  0.00  0.00    +0.000 A 
ATOM     16  C   UNL     1       2.163   8.212  17.953  0.00  0.00    +0.000 A 
ATOM     17  C   UNL     1       1.363   9.356  17.952  0.00  0.00    +0.000 A 
ATOM     18  C   UNL     1       0.778   9.788  19.138  0.00  0.00    +0.000 A 
ATOM     19 BR   UNL     1      -0.306  11.335  19.133  0.00  0.00    +0.000 Br
ATOM     20  C   UNL     1       0.988   9.086  20.323  0.00  0.00    +0.000 A 
ATOM     21  C   UNL     1       1.792   7.941  20.320  0.00  0.00    +0.000 A 
ENDBRANCH  14  15
ENDBRANCH  13  14
ENDBRANCH  12  13
ENDBRANCH   1  12
TORSDOF 6
ENDMDL
MODEL 4
REMARK VINA RESULT:      -7.2      0.736      1.369
REMARK  Name = 
REMARK  6 active torsions:
REMARK  status: ('A' for Active; 'I' for Inactive)
REMARK    1  A    between atoms: N_5  and  C_6
REMARK    2  A    between atoms: C_6  and  C_7
REMARK    3  A    between atoms: C_7  and  C_8
REMARK    4  A    between atoms: C_8  and  C_9
REMARK    5  A    between atoms: C_9  and  O_10
REMARK    6  A    between atoms: O_10  and  C_11
REMARK                            x       y       z     vdW  Elec       q    Type
REMARK                         _______ _______ _______ _____ _____    ______ ____
ROOT
ATOM      1  C   UNL     1       2.570   4.102  18.289  0.00  0.00    +0.000 C 
ENDROOT
BRANCH   1   2
ATOM      2  C   UNL     1       3.975   3.584  18.622  0.00  0.00    +0.000 C 
BRANCH   2   7
ATOM      3  O   UNL     1       7.675   5.469  15.082  0.00  0.00    +0.000 OA
ATOM      4  C   UNL     1       6.862   5.015  15.876  0.00  0.00    +0.000 A 
ATOM      5  C   UNL     1       5.584   4.450  15.415  0.00  0.00    +0.000 A 
ATOM      6  C   UNL     1       4.711   4.008  16.321  0.00  0.00    +0.000 A 
ATOM      7  N   UNL     1       4.976   4.060  17.672  0.00  0.00    +0.000 N 
ATOM      8  C   UNL     1       6.169   4.579  18.170  0.00  0.00    +0.000 A 
ATOM      9  O   UNL     1       6.434   4.672  19.367  0.00  0.00    +0.000 OA
ATOM     10  N   UNL     1       7.068   5.000  17.224  0.00  0.00    +0.000 N 
ATOM     11  H   UNL     1       7.934   5.388  17.564  0.00  0.00    +0.000 HD
ENDBRANCH   2   7
ENDBRANCH   1   2
BRANCH   1  12
ATOM     12  C   UNL     1       1.673   4.244  19.523  0.00  0.00    +0.000 C 
BRANCH  12  13
ATOM     13  C   UNL     1       2.110   5.412  20.401  0.00  0.00    +0.000 C 
BRANCH  13  14
ATOM     14  O   UNL     1       2.865   6.360  19.648  0.00  0.00    +0.000 OA
BRANCH  14  15
ATOM     15  C   UNL     1       2.202   7.533  19.380  0.00  0.00    +0.000 A 
ATOM     16  C   UNL     1       2.132   8.160  18.130  0.00  0.00    +0.000 A 
ATOM     17  C   UNL     1       1.432   9.358  17.973  0.00  0.00    +0.000 A 
ATOM     18  C   UNL     1       0.794   9.931  19.068  0.00  0.00    +0.000 A 
ATOM     19 BR   UNL     1      -0.154  11.551  18.851  0.00  0.00    +0.000 Br
ATOM     20  C   UNL     1       0.851   9.318  20.317  0.00  0.00    +0.000 A 
ATOM     21  C   UNL     1       1.555   8.119  20.471  0.00  0.00    +0.000 A 
ENDBRANCH  14  15
ENDBRANCH  13  14
ENDBRANCH  12  13
ENDBRANCH   1  12
TORSDOF 6
ENDMDL
MODEL 5
REMARK VINA RESULT:      -7.1      4.195      6.902
REMARK  Name = 
REMARK  6 active torsions:
REMARK  status: ('A' for Active; 'I' for Inactive)
REMARK    1  A    between atoms: N_5  and  C_6
REMARK    2  A    between atoms: C_6  and  C_7
REMARK    3  A    between atoms: C_7  and  C_8
REMARK    4  A    between atoms: C_8  and  C_9
REMARK    5  A    between atoms: C_9  and  O_10
REMARK    6  A    between atoms: O_10  and  C_11
REMARK                            x       y       z     vdW  Elec       q    Type
REMARK                         _______ _______ _______ _____ _____    ______ ____
ROOT
ATOM      1  C   UNL     1       5.087   6.165  18.061  0.00  0.00    +0.000 C 
ENDROOT
BRANCH   1   2
ATOM      2  C   UNL     1       5.157   4.756  18.664  0.00  0.00    +0.000 C 
BRANCH   2   7
ATOM      3  O   UNL     1       0.353   2.177  18.473  0.00  0.00    +0.000 OA
ATOM      4  C   UNL     1       1.420   2.770  18.548  0.00  0.00    +0.000 A 
ATOM      5  C   UNL     1       1.616   4.067  17.883  0.00  0.00    +0.000 A 
ATOM      6  C   UNL     1       2.812   4.654  17.954  0.00  0.00    +0.000 A 
ATOM      7  N   UNL     1       3.862   4.082  18.638  0.00  0.00    +0.000 N 
ATOM      8  C   UNL     1       3.738   2.858  19.291  0.00  0.00    +0.000 A 
ATOM      9  O   UNL     1       4.657   2.298  19.886  0.00  0.00    +0.000 OA
ATOM     10  N   UNL     1       2.495   2.283  19.234  0.00  0.00    +0.000 N 
ATOM     11  H   UNL     1       2.386   1.392  19.692  0.00  0.00    +0.000 HD
ENDBRANCH   2   7
ENDBRANCH   1   2
BRANCH   1  12
ATOM     12  C   UNL     1       6.410   6.616  17.430  0.00  0.00    +0.000 C 
BRANCH  12  13
ATOM     13  C   UNL     1       7.249   5.424  16.978  0.00  0.00    +0.000 C 
BRANCH  13  14
ATOM     14  O   UNL     1       7.700   5.601  15.636  0.00  0.00    +0.000 OA
BRANCH  14  15
ATOM     15  C   UNL     1       6.943   4.952  14.690  0.00  0.00    +0.000 A 
ATOM     16  C   UNL     1       5.688   4.373  14.910  0.00  0.00    +0.000 A 
ATOM     17  C   UNL     1       5.008   3.732  13.873  0.00  0.00    +0.000 A 
ATOM     18  C   UNL     1       5.581   3.673  12.607  0.00  0.00    +0.000 A 
ATOM     19 BR   UNL     1       4.656   2.806  11.206  0.00  0.00    +0.000 Br
ATOM     20  C   UNL     1       6.828   4.247  12.371  0.00  0.00    +0.000 A 
ATOM     21  C   UNL     1       7.507   4.887  13.413  0.00  0.00    +0.000 A 
ENDBRANCH  14  15
ENDBRANCH  13  14
ENDBRANCH  12  13
ENDBRANCH   1  12
TORSDOF 6
ENDMDL
MODEL 6
REMARK VINA RESULT:      -7.1      2.636      4.579
REMARK  Name = 
REMARK  6 active torsions:
REMARK  status: ('A' for Active; 'I' for Inactive)
REMARK    1  A    between atoms: N_5  and  C_6
REMARK    2  A    between atoms: C_6  and  C_7
REMARK    3  A    between atoms: C_7  and  C_8
REMARK    4  A    between atoms: C_8  and  C_9
REMARK    5  A    between atoms: C_9  and  O_10
REMARK    6  A    between atoms: O_10  and  C_11
REMARK                            x       y       z     vdW  Elec       q    Type
REMARK                         _______ _______ _______ _____ _____    ______ ____
ROOT
ATOM      1  C   UNL     1       3.510   3.677  17.021  0.00  0.00    +0.000 C 
ENDROOT
BRANCH   1   2
ATOM      2  C   UNL     1       3.584   2.358  17.802  0.00  0.00    +0.000 C 
BRANCH   2   7
ATOM      3  O   UNL     1       1.124   2.594  22.667  0.00  0.00    +0.000 OA
ATOM      4  C   UNL     1       1.682   2.577  21.578  0.00  0.00    +0.000 A 
ATOM      5  C   UNL     1       0.911   2.670  20.328  0.00  0.00    +0.000 A 
ATOM      6  C   UNL     1       1.559   2.600  19.164  0.00  0.00    +0.000 A 
ATOM      7  N   UNL     1       2.927   2.452  19.102  0.00  0.00    +0.000 N 
ATOM      8  C   UNL     1       3.712   2.363  20.250  0.00  0.00    +0.000 A 
ATOM      9  O   UNL     1       4.931   2.200  20.240  0.00  0.00    +0.000 OA
ATOM     10  N   UNL     1       3.034   2.466  21.437  0.00  0.00    +0.000 N 
ATOM     11  H   UNL     1       3.582   2.394  22.279  0.00  0.00    +0.000 HD
ENDBRANCH   2   7
ENDBRANCH   1   2
BRANCH   1  12
ATOM     12  C   UNL     1       4.840   4.439  17.000  0.00  0.00    +0.000 C 
BRANCH  12  13
ATOM     13  C   UNL     1       4.707   5.816  17.642  0.00  0.00    +0.000 C 
BRANCH  13  14
ATOM     14  O   UNL     1       3.859   5.763  18.787  0.00  0.00    +0.000 OA
BRANCH  14  15
ATOM     15  C   UNL     1       3.009   6.835  18.919  0.00  0.00    +0.000 A 
ATOM     16  C   UNL     1       2.282   7.159  20.070  0.00  0.00    +0.000 A 
ATOM     17  C   UNL     1       1.441   8.274  20.090  0.00  0.00    +0.000 A 
ATOM     18  C   UNL     1       1.329   9.072  18.956  0.00  0.00    +0.000 A 
ATOM     19 BR   UNL     1       0.192  10.581  18.988  0.00  0.00    +0.000 Br
ATOM     20  C   UNL     1       2.049   8.765  17.804  0.00  0.00    +0.000 A 
ATOM     21  C   UNL     1       2.889   7.646  17.787  0.00  0.00    +0.000 A 
ENDBRANCH  14  15
ENDBRANCH  13  14
ENDBRANCH  12  13
ENDBRANCH   1  12
TORSDOF 6
ENDMDL
MODEL 7
REMARK VINA RESULT:      -7.1      1.648      2.423
REMARK  Name = 
REMARK  6 active torsions:
REMARK  status: ('A' for Active; 'I' for Inactive)
REMARK    1  A    between atoms: N_5  and  C_6
REMARK    2  A    between atoms: C_6  and  C_7
REMARK    3  A    between atoms: C_7  and  C_8
REMARK    4  A    between atoms: C_8  and  C_9
REMARK    5  A    between atoms: C_9  and  O_10
REMARK    6  A    between atoms: O_10  and  C_11
REMARK                            x       y       z     vdW  Elec       q    Type
REMARK                         _______ _______ _______ _____ _____    ______ ____
ROOT
ATOM      1  C   UNL     1       3.881   3.920  16.778  0.00  0.00    +0.000 C 
ENDROOT
BRANCH   1   2
ATOM      2  C   UNL     1       5.340   3.905  16.304  0.00  0.00    +0.000 C 
BRANCH   2   7
ATOM      3  O   UNL     1       8.324   7.971  18.386  0.00  0.00    +0.000 OA
ATOM      4  C   UNL     1       7.627   7.071  17.940  0.00  0.00    +0.000 A 
ATOM      5  C   UNL     1       7.663   5.721  18.525  0.00  0.00    +0.000 A 
ATOM      6  C   UNL     1       6.920   4.760  17.974  0.00  0.00    +0.000 A 
ATOM      7  N   UNL     1       6.116   4.999  16.881  0.00  0.00    +0.000 N 
ATOM      8  C   UNL     1       6.035   6.256  16.286  0.00  0.00    +0.000 A 
ATOM      9  O   UNL     1       5.355   6.505  15.292  0.00  0.00    +0.000 OA
ATOM     10  N   UNL     1       6.782   7.239  16.882  0.00  0.00    +0.000 N 
ATOM     11  H   UNL     1       6.745   8.154  16.461  0.00  0.00    +0.000 HD
ENDBRANCH   2   7
ENDBRANCH   1   2
BRANCH   1  12
ATOM     12  C   UNL     1       3.704   3.365  18.196  0.00  0.00    +0.000 C 
BRANCH  12  13
ATOM     13  C   UNL     1       2.895   4.316  19.073  0.00  0.00    +0.000 C 
BRANCH  13  14
ATOM     14  O   UNL     1       3.632   5.507  19.344  0.00  0.00    +0.000 OA
BRANCH  14  15
ATOM     15  C   UNL     1       2.890   6.663  19.287  0.00  0.00    +0.000 A 
ATOM     16  C   UNL     1       2.088   7.164  20.319  0.00  0.00    +0.000 A 
ATOM     17  C   UNL     1       1.369   8.349  20.149  0.00  0.00    +0.000 A 
ATOM     18  C   UNL     1       1.456   9.041  18.946  0.00  0.00    +0.000 A 
ATOM     19 BR   UNL     1       0.484  10.646  18.722  0.00  0.00    +0.000 Br
ATOM     20  C   UNL     1       2.253   8.557  17.911  0.00  0.00    +0.000 A 
ATOM     21  C   UNL     1       2.969   7.368  18.084  0.00  0.00    +0.000 A 
ENDBRANCH  14  15
ENDBRANCH  13  14
ENDBRANCH  12  13
ENDBRANCH   1  12
TORSDOF 6
ENDMDL
MODEL 8
REMARK VINA RESULT:      -7.0      3.569      6.041
REMARK  Name = 
REMARK  6 active torsions:
REMARK  status: ('A' for Active; 'I' for Inactive)
REMARK    1  A    between atoms: N_5  and  C_6
REMARK    2  A    between atoms: C_6  and  C_7
REMARK    3  A    between atoms: C_7  and  C_8
REMARK    4  A    between atoms: C_8  and  C_9
REMARK    5  A    between atoms: C_9  and  O_10
REMARK    6  A    between atoms: O_10  and  C_11
REMARK                            x       y       z     vdW  Elec       q    Type
REMARK                         _______ _______ _______ _____ _____    ______ ____
ROOT
ATOM      1  C   UNL     1       1.163   4.414  20.219  0.00  0.00    +0.000 C 
ENDROOT
BRANCH   1   2
ATOM      2  C   UNL     1       2.313   5.377  20.540  0.00  0.00    +0.000 C 
BRANCH   2   7
ATOM      3  O   UNL     1       1.923   9.933  17.561  0.00  0.00    +0.000 OA
ATOM      4  C   UNL     1       2.040   8.925  18.246  0.00  0.00    +0.000 A 
ATOM      5  C   UNL     1       2.756   7.743  17.741  0.00  0.00    +0.000 A 
ATOM      6  C   UNL     1       2.817   6.652  18.506  0.00  0.00    +0.000 A 
ATOM      7  N   UNL     1       2.236   6.605  19.754  0.00  0.00    +0.000 N 
ATOM      8  C   UNL     1       1.548   7.693  20.288  0.00  0.00    +0.000 A 
ATOM      9  O   UNL     1       0.989   7.684  21.383  0.00  0.00    +0.000 OA
ATOM     10  N   UNL     1       1.521   8.816  19.502  0.00  0.00    +0.000 N 
ATOM     11  H   UNL     1       1.020   9.611  19.866  0.00  0.00    +0.000 HD
ENDBRANCH   2   7
ENDBRANCH   1   2
BRANCH   1  12
ATOM     12  C   UNL     1       1.439   3.533  18.995  0.00  0.00    +0.000 C 
BRANCH  12  13
ATOM     13  C   UNL     1       2.396   2.393  19.331  0.00  0.00    +0.000 C 
BRANCH  13  14
ATOM     14  O   UNL     1       3.282   2.137  18.242  0.00  0.00    +0.000 OA
BRANCH  14  15
ATOM     15  C   UNL     1       4.144   3.168  17.954  0.00  0.00    +0.000 A 
ATOM     16  C   UNL     1       4.287   3.782  16.705  0.00  0.00    +0.000 A 
ATOM     17  C   UNL     1       5.202   4.822  16.523  0.00  0.00    +0.000 A 
ATOM     18  C   UNL     1       5.974   5.254  17.596  0.00  0.00    +0.000 A 
ATOM     19 BR   UNL     1       7.208   6.663  17.346  0.00  0.00    +0.000 Br
ATOM     20  C   UNL     1       5.841   4.656  18.846  0.00  0.00    +0.000 A 
ATOM     21  C   UNL     1       4.925   3.613  19.024  0.00  0.00    +0.000 A 
ENDBRANCH  14  15
ENDBRANCH  13  14
ENDBRANCH  12  13
ENDBRANCH   1  12
TORSDOF 6
ENDMDL
MODEL 9
REMARK VINA RESULT:      -7.0      2.704      4.590
REMARK  Name = 
REMARK  6 active torsions:
REMARK  status: ('A' for Active; 'I' for Inactive)
REMARK    1  A    between atoms: N_5  and  C_6
REMARK    2  A    between atoms: C_6  and  C_7
REMARK    3  A    between atoms: C_7  and  C_8
REMARK    4  A    between atoms: C_8  and  C_9
REMARK    5  A    between atoms: C_9  and  O_10
REMARK    6  A    between atoms: O_10  and  C_11
REMARK                            x       y       z     vdW  Elec       q    Type
REMARK                         _______ _______ _______ _____ _____    ______ ____
ROOT
ATOM      1  C   UNL     1       4.833   3.989  17.450  0.00  0.00    +0.000 C 
ENDROOT
BRANCH   1   2
ATOM      2  C   UNL     1       3.842   2.819  17.515  0.00  0.00    +0.000 C 
BRANCH   2   7
ATOM      3  O   UNL     1       1.319   2.655  22.351  0.00  0.00    +0.000 OA
ATOM      4  C   UNL     1       1.875   2.657  21.261  0.00  0.00    +0.000 A 
ATOM      5  C   UNL     1       3.319   2.399  21.145  0.00  0.00    +0.000 A 
ATOM      6  C   UNL     1       3.890   2.458  19.940  0.00  0.00    +0.000 A 
ATOM      7  N   UNL     1       3.163   2.745  18.806  0.00  0.00    +0.000 N 
ATOM      8  C   UNL     1       1.793   2.994  18.850  0.00  0.00    +0.000 A 
ATOM      9  O   UNL     1       1.114   3.283  17.867  0.00  0.00    +0.000 OA
ATOM     10  N   UNL     1       1.218   2.900  20.091  0.00  0.00    +0.000 N 
ATOM     11  H   UNL     1       0.229   3.086  20.146  0.00  0.00    +0.000 HD
ENDBRANCH   2   7
ENDBRANCH   1   2
BRANCH   1  12
ATOM     12  C   UNL     1       4.185   5.301  16.995  0.00  0.00    +0.000 C 
BRANCH  12  13
ATOM     13  C   UNL     1       4.280   6.376  18.074  0.00  0.00    +0.000 C 
BRANCH  13  14
ATOM     14  O   UNL     1       3.209   6.252  19.009  0.00  0.00    +0.000 OA
BRANCH  14  15
ATOM     15  C   UNL     1       2.430   7.377  19.135  0.00  0.00    +0.000 A 
ATOM     16  C   UNL     1       1.786   7.792  20.307  0.00  0.00    +0.000 A 
ATOM     17  C   UNL     1       1.011   8.954  20.320  0.00  0.00    +0.000 A 
ATOM     18  C   UNL     1       0.883   9.709  19.159  0.00  0.00    +0.000 A 
ATOM     19 BR   UNL     1      -0.163  11.282  19.181  0.00  0.00    +0.000 Br
ATOM     20  C   UNL     1       1.521   9.312  17.986  0.00  0.00    +0.000 A 
ATOM     21  C   UNL     1       2.294   8.146  17.976  0.00  0.00    +0.000 A 
ENDBRANCH  14  15
ENDBRANCH  13  14
ENDBRANCH  12  13
ENDBRANCH   1  12
TORSDOF 6
ENDMDL
