MODEL 1
REMARK VINA RESULT:      -9.1      0.000      0.000
REMARK  Name = 
REMARK  5 active torsions:
REMARK  status: ('A' for Active; 'I' for Inactive)
REMARK    1  A    between atoms: C_2  and  O_3
REMARK    2  A    between atoms: O_3  and  C_4
REMARK    3  A    between atoms: C_4  and  C_5
REMARK    4  A    between atoms: N_14  and  C_15
REMARK    5  A    between atoms: N_14  and  C_21
REMARK                            x       y       z     vdW  Elec       q    Type
REMARK                         _______ _______ _______ _____ _____    ______ ____
ROOT
ATOM      1  O   UNL     1       3.033   8.069  16.948  0.00  0.00    +0.000 OA
ATOM      2  C   UNL     1       2.867   7.350  17.926  0.00  0.00    +0.000 C 
ATOM      3  N   UNL     1       3.325   6.031  18.059  0.00  0.00    +0.000 N 
ENDROOT
BRANCH   3   4
ATOM      4  C   UNL     1       4.287   5.339  17.131  0.00  0.00    +0.000 C 
ATOM      5  C   UNL     1       5.182   4.223  17.748  0.00  0.00    +0.000 C 
ATOM      6  N   UNL     1       6.641   4.496  17.591  0.00  0.00    +0.000 NA
ATOM      7  C   UNL     1       6.986   4.463  16.157  0.00  0.00    +0.000 C 
ATOM      8  C   UNL     1       6.077   5.408  15.354  0.00  0.00    +0.000 C 
ATOM      9  C   UNL     1       5.230   6.280  16.321  0.00  0.00    +0.000 C 
ATOM     10  C   UNL     1       6.215   6.946  17.289  0.00  0.00    +0.000 C 
ATOM     11  C   UNL     1       6.947   5.857  18.094  0.00  0.00    +0.000 C 
ENDBRANCH   3   4
BRANCH   3  12
ATOM     12  C   UNL     1       2.604   5.150  18.925  0.00  0.00    +0.000 A 
ATOM     13  C   UNL     1       1.640   4.276  18.398  0.00  0.00    +0.000 A 
ATOM     14  C   UNL     1       0.942   3.407  19.239  0.00  0.00    +0.000 A 
ATOM     15  C   UNL     1       1.183   3.425  20.612  0.00  0.00    +0.000 A 
ATOM     16  C   UNL     1       2.137   4.295  21.140  0.00  0.00    +0.000 A 
ATOM     17  C   UNL     1       2.861   5.144  20.299  0.00  0.00    +0.000 A 
ENDBRANCH   3  12
BRANCH   2  18
ATOM     18  O   UNL     1       2.243   7.797  19.063  0.00  0.00    +0.000 OA
BRANCH  18  19
ATOM     19  C   UNL     1       1.445   8.995  18.966  0.00  0.00    +0.000 C 
BRANCH  19  20
ATOM     20  C   UNL     1       0.818   9.504  20.251  0.00  0.00    +0.000 A 
ATOM     21  C   UNL     1       0.963   8.832  21.484  0.00  0.00    +0.000 A 
ATOM     22  C   UNL     1       0.313   9.289  22.644  0.00  0.00    +0.000 A 
ATOM     23  C   UNL     1      -0.484  10.409  22.545  0.00  0.00    +0.000 A 
ATOM     24  C   UNL     1      -0.662  11.056  21.348  0.00  0.00    +0.000 A 
ATOM     25  C   UNL     1      -0.044  10.622  20.191  0.00  0.00    +0.000 A 
ATOM     26  O   UNL     1      -1.501  12.122  21.457  0.00  0.00    +0.000 OA
ATOM     27  C   UNL     1      -1.745  12.131  22.879  0.00  0.00    +0.000 C 
ATOM     28  O   UNL     1      -1.175  10.993  23.561  0.00  0.00    +0.000 OA
ENDBRANCH  19  20
ENDBRANCH  18  19
ENDBRANCH   2  18
TORSDOF 5
ENDMDL
MODEL 2
REMARK VINA RESULT:      -8.8      0.791      1.346
REMARK  Name = 
REMARK  5 active torsions:
REMARK  status: ('A' for Active; 'I' for Inactive)
REMARK    1  A    between atoms: C_2  and  O_3
REMARK    2  A    between atoms: O_3  and  C_4
REMARK    3  A    between atoms: C_4  and  C_5
REMARK    4  A    between atoms: N_14  and  C_15
REMARK    5  A    between atoms: N_14  and  C_21
REMARK                            x       y       z     vdW  Elec       q    Type
REMARK                         _______ _______ _______ _____ _____    ______ ____
ROOT
ATOM      1  O   UNL     1       3.425   8.072  16.736  0.00  0.00    +0.000 OA
ATOM      2  C   UNL     1       2.937   7.441  17.665  0.00  0.00    +0.000 C 
ATOM      3  N   UNL     1       3.545   6.370  18.336  0.00  0.00    +0.000 N 
ENDROOT
BRANCH   3   4
ATOM      4  C   UNL     1       4.983   5.947  18.192  0.00  0.00    +0.000 C 
ATOM      5  C   UNL     1       5.933   6.926  17.439  0.00  0.00    +0.000 C 
ATOM      6  N   UNL     1       6.577   6.305  16.245  0.00  0.00    +0.000 NA
ATOM      7  C   UNL     1       7.476   5.223  16.689  0.00  0.00    +0.000 C 
ATOM      8  C   UNL     1       6.729   4.228  17.592  0.00  0.00    +0.000 C 
ATOM      9  C   UNL     1       5.206   4.534  17.574  0.00  0.00    +0.000 C 
ATOM     10  C   UNL     1       4.781   4.565  16.101  0.00  0.00    +0.000 C 
ATOM     11  C   UNL     1       5.537   5.697  15.382  0.00  0.00    +0.000 C 
ENDBRANCH   3   4
BRANCH   3  12
ATOM     12  C   UNL     1       2.701   5.390  18.949  0.00  0.00    +0.000 A 
ATOM     13  C   UNL     1       1.896   4.557  18.155  0.00  0.00    +0.000 A 
ATOM     14  C   UNL     1       1.079   3.593  18.749  0.00  0.00    +0.000 A 
ATOM     15  C   UNL     1       1.042   3.474  20.138  0.00  0.00    +0.000 A 
ATOM     16  C   UNL     1       1.838   4.302  20.930  0.00  0.00    +0.000 A 
ATOM     17  C   UNL     1       2.680   5.247  20.339  0.00  0.00    +0.000 A 
ENDBRANCH   3  12
BRANCH   2  18
ATOM     18  O   UNL     1       1.720   7.766  18.208  0.00  0.00    +0.000 OA
BRANCH  18  19
ATOM     19  C   UNL     1       1.455   9.158  18.479  0.00  0.00    +0.000 C 
BRANCH  19  20
ATOM     20  C   UNL     1       0.930   9.497  19.863  0.00  0.00    +0.000 A 
ATOM     21  C   UNL     1       1.184   8.685  20.989  0.00  0.00    +0.000 A 
ATOM     22  C   UNL     1       0.626   8.987  22.244  0.00  0.00    +0.000 A 
ATOM     23  C   UNL     1      -0.189  10.094  22.346  0.00  0.00    +0.000 A 
ATOM     24  C   UNL     1      -0.473  10.875  21.254  0.00  0.00    +0.000 A 
ATOM     25  C   UNL     1       0.053  10.596  20.007  0.00  0.00    +0.000 A 
ATOM     26  O   UNL     1      -1.312  11.902  21.558  0.00  0.00    +0.000 OA
ATOM     27  C   UNL     1      -1.438  11.736  22.986  0.00  0.00    +0.000 C 
ATOM     28  O   UNL     1      -0.801  10.537  23.478  0.00  0.00    +0.000 OA
ENDBRANCH  19  20
ENDBRANCH  18  19
ENDBRANCH   2  18
TORSDOF 5
ENDMDL
MODEL 3
REMARK VINA RESULT:      -8.6      0.857      1.710
REMARK  Name = 
REMARK  5 active torsions:
REMARK  status: ('A' for Active; 'I' for Inactive)
REMARK    1  A    between atoms: C_2  and  O_3
REMARK    2  A    between atoms: O_3  and  C_4
REMARK    3  A    between atoms: C_4  and  C_5
REMARK    4  A    between atoms: N_14  and  C_15
REMARK    5  A    between atoms: N_14  and  C_21
REMARK                            x       y       z     vdW  Elec       q    Type
REMARK                         _______ _______ _______ _____ _____    ______ ____
ROOT
ATOM      1  O   UNL     1       3.703   7.983  16.634  0.00  0.00    +0.000 OA
ATOM      2  C   UNL     1       3.317   7.374  17.623  0.00  0.00    +0.000 C 
ATOM      3  N   UNL     1       3.714   6.081  17.995  0.00  0.00    +0.000 N 
ENDROOT
BRANCH   3   4
ATOM      4  C   UNL     1       4.843   5.299  17.379  0.00  0.00    +0.000 C 
ATOM      5  C   UNL     1       5.584   4.286  18.302  0.00  0.00    +0.000 C 
ATOM      6  N   UNL     1       7.045   4.566  18.416  0.00  0.00    +0.000 NA
ATOM      7  C   UNL     1       7.680   4.363  17.099  0.00  0.00    +0.000 C 
ATOM      8  C   UNL     1       6.962   5.183  16.015  0.00  0.00    +0.000 C 
ATOM      9  C   UNL     1       5.939   6.151  16.670  0.00  0.00    +0.000 C 
ATOM     10  C   UNL     1       6.706   6.951  17.729  0.00  0.00    +0.000 C 
ATOM     11  C   UNL     1       7.248   5.984  18.797  0.00  0.00    +0.000 C 
ENDBRANCH   3   4
BRANCH   3  12
ATOM     12  C   UNL     1       2.807   5.293  18.773  0.00  0.00    +0.000 A 
ATOM     13  C   UNL     1       2.786   5.418  20.171  0.00  0.00    +0.000 A 
ATOM     14  C   UNL     1       1.895   4.658  20.933  0.00  0.00    +0.000 A 
ATOM     15  C   UNL     1       1.040   3.754  20.305  0.00  0.00    +0.000 A 
ATOM     16  C   UNL     1       1.060   3.625  18.916  0.00  0.00    +0.000 A 
ATOM     17  C   UNL     1       1.928   4.405  18.148  0.00  0.00    +0.000 A 
ENDBRANCH   3  12
BRANCH   2  18
ATOM     18  O   UNL     1       2.468   7.937  18.542  0.00  0.00    +0.000 OA
BRANCH  18  19
ATOM     19  C   UNL     1       1.588   8.987  18.091  0.00  0.00    +0.000 C 
BRANCH  19  20
ATOM     20  C   UNL     1       0.757   9.686  19.151  0.00  0.00    +0.000 A 
ATOM     21  C   UNL     1       0.104  10.915  18.914  0.00  0.00    +0.000 A 
ATOM     22  C   UNL     1      -0.600  11.574  19.937  0.00  0.00    +0.000 A 
ATOM     23  C   UNL     1      -0.628  10.995  21.187  0.00  0.00    +0.000 A 
ATOM     24  C   UNL     1       0.029   9.818  21.443  0.00  0.00    +0.000 A 
ATOM     25  C   UNL     1       0.737   9.154  20.460  0.00  0.00    +0.000 A 
ATOM     26  O   UNL     1      -0.100   9.425  22.740  0.00  0.00    +0.000 OA
ATOM     27  C   UNL     1      -1.000  10.436  23.241  0.00  0.00    +0.000 C 
ATOM     28  O   UNL     1      -1.266  11.485  22.285  0.00  0.00    +0.000 OA
ENDBRANCH  19  20
ENDBRANCH  18  19
ENDBRANCH   2  18
TORSDOF 5
ENDMDL
MODEL 4
REMARK VINA RESULT:      -8.5      0.679      1.228
REMARK  Name = 
REMARK  5 active torsions:
REMARK  status: ('A' for Active; 'I' for Inactive)
REMARK    1  A    between atoms: C_2  and  O_3
REMARK    2  A    between atoms: O_3  and  C_4
REMARK    3  A    between atoms: C_4  and  C_5
REMARK    4  A    between atoms: N_14  and  C_15
REMARK    5  A    between atoms: N_14  and  C_21
REMARK                            x       y       z     vdW  Elec       q    Type
REMARK                         _______ _______ _______ _____ _____    ______ ____
ROOT
ATOM      1  O   UNL     1       2.909   8.640  16.970  0.00  0.00    +0.000 OA
ATOM      2  C   UNL     1       2.728   7.826  17.866  0.00  0.00    +0.000 C 
ATOM      3  N   UNL     1       3.318   6.556  17.949  0.00  0.00    +0.000 N 
ENDROOT
BRANCH   3   4
ATOM      4  C   UNL     1       4.440   6.051  17.082  0.00  0.00    +0.000 C 
ATOM      5  C   UNL     1       4.523   4.511  16.864  0.00  0.00    +0.000 C 
ATOM      6  N   UNL     1       5.823   3.930  17.314  0.00  0.00    +0.000 NA
ATOM      7  C   UNL     1       6.908   4.460  16.466  0.00  0.00    +0.000 C 
ATOM      8  C   UNL     1       6.879   5.996  16.438  0.00  0.00    +0.000 C 
ATOM      9  C   UNL     1       5.867   6.529  17.489  0.00  0.00    +0.000 C 
ATOM     10  C   UNL     1       6.242   5.882  18.828  0.00  0.00    +0.000 C 
ATOM     11  C   UNL     1       6.096   4.354  18.708  0.00  0.00    +0.000 C 
ENDBRANCH   3   4
BRANCH   3  12
ATOM     12  C   UNL     1       2.617   5.531  18.662  0.00  0.00    +0.000 A 
ATOM     13  C   UNL     1       2.798   5.386  20.047  0.00  0.00    +0.000 A 
ATOM     14  C   UNL     1       2.109   4.394  20.747  0.00  0.00    +0.000 A 
ATOM     15  C   UNL     1       1.255   3.527  20.065  0.00  0.00    +0.000 A 
ATOM     16  C   UNL     1       1.076   3.666  18.689  0.00  0.00    +0.000 A 
ATOM     17  C   UNL     1       1.740   4.677  17.989  0.00  0.00    +0.000 A 
ENDBRANCH   3  12
BRANCH   2  18
ATOM     18  O   UNL     1       1.947   8.104  18.959  0.00  0.00    +0.000 OA
BRANCH  18  19
ATOM     19  C   UNL     1       1.110   9.278  18.906  0.00  0.00    +0.000 C 
BRANCH  19  20
ATOM     20  C   UNL     1       0.528   9.763  20.222  0.00  0.00    +0.000 A 
ATOM     21  C   UNL     1       0.393   8.920  21.347  0.00  0.00    +0.000 A 
ATOM     22  C   UNL     1      -0.214   9.378  22.530  0.00  0.00    +0.000 A 
ATOM     23  C   UNL     1      -0.688  10.672  22.561  0.00  0.00    +0.000 A 
ATOM     24  C   UNL     1      -0.594  11.493  21.466  0.00  0.00    +0.000 A 
ATOM     25  C   UNL     1      -0.011  11.067  20.287  0.00  0.00    +0.000 A 
ATOM     26  O   UNL     1      -1.139  12.720  21.691  0.00  0.00    +0.000 OA
ATOM     27  C   UNL     1      -1.490  12.608  23.087  0.00  0.00    +0.000 C 
ATOM     28  O   UNL     1      -1.290  11.280  23.619  0.00  0.00    +0.000 OA
ENDBRANCH  19  20
ENDBRANCH  18  19
ENDBRANCH   2  18
TORSDOF 5
ENDMDL
MODEL 5
REMARK VINA RESULT:      -8.5      1.152      1.616
REMARK  Name = 
REMARK  5 active torsions:
REMARK  status: ('A' for Active; 'I' for Inactive)
REMARK    1  A    between atoms: C_2  and  O_3
REMARK    2  A    between atoms: O_3  and  C_4
REMARK    3  A    between atoms: C_4  and  C_5
REMARK    4  A    between atoms: N_14  and  C_15
REMARK    5  A    between atoms: N_14  and  C_21
REMARK                            x       y       z     vdW  Elec       q    Type
REMARK                         _______ _______ _______ _____ _____    ______ ____
ROOT
ATOM      1  O   UNL     1       2.388   8.219  18.259  0.00  0.00    +0.000 OA
ATOM      2  C   UNL     1       2.435   7.285  19.048  0.00  0.00    +0.000 C 
ATOM      3  N   UNL     1       2.864   5.983  18.751  0.00  0.00    +0.000 N 
ENDROOT
BRANCH   3   4
ATOM      4  C   UNL     1       3.549   5.553  17.481  0.00  0.00    +0.000 C 
ATOM      5  C   UNL     1       3.949   4.052  17.371  0.00  0.00    +0.000 C 
ATOM      6  N   UNL     1       5.413   3.856  17.155  0.00  0.00    +0.000 NA
ATOM      7  C   UNL     1       5.786   4.412  15.840  0.00  0.00    +0.000 C 
ATOM      8  C   UNL     1       5.319   5.871  15.711  0.00  0.00    +0.000 C 
ATOM      9  C   UNL     1       4.804   6.387  17.083  0.00  0.00    +0.000 C 
ATOM     10  C   UNL     1       5.920   6.119  18.101  0.00  0.00    +0.000 C 
ATOM     11  C   UNL     1       6.169   4.602  18.188  0.00  0.00    +0.000 C 
ENDBRANCH   3   4
BRANCH   3  12
ATOM     12  C   UNL     1       2.340   4.904  19.533  0.00  0.00    +0.000 A 
ATOM     13  C   UNL     1       2.928   4.575  20.764  0.00  0.00    +0.000 A 
ATOM     14  C   UNL     1       2.412   3.530  21.533  0.00  0.00    +0.000 A 
ATOM     15  C   UNL     1       1.325   2.793  21.065  0.00  0.00    +0.000 A 
ATOM     16  C   UNL     1       0.741   3.115  19.840  0.00  0.00    +0.000 A 
ATOM     17  C   UNL     1       1.233   4.180  19.082  0.00  0.00    +0.000 A 
ENDBRANCH   3  12
BRANCH   2  18
ATOM     18  O   UNL     1       2.119   7.434  20.375  0.00  0.00    +0.000 OA
BRANCH  18  19
ATOM     19  C   UNL     1       0.729   7.601  20.721  0.00  0.00    +0.000 C 
BRANCH  19  20
ATOM     20  C   UNL     1       0.339   8.918  21.367  0.00  0.00    +0.000 A 
ATOM     21  C   UNL     1      -0.442   8.985  22.541  0.00  0.00    +0.000 A 
ATOM     22  C   UNL     1      -0.848  10.221  23.076  0.00  0.00    +0.000 A 
ATOM     23  C   UNL     1      -0.472  11.371  22.416  0.00  0.00    +0.000 A 
ATOM     24  C   UNL     1       0.259  11.323  21.257  0.00  0.00    +0.000 A 
ATOM     25  C   UNL     1       0.662  10.123  20.703  0.00  0.00    +0.000 A 
ATOM     26  O   UNL     1       0.507  12.562  20.750  0.00  0.00    +0.000 OA
ATOM     27  C   UNL     1      -0.063  13.395  21.782  0.00  0.00    +0.000 C 
ATOM     28  O   UNL     1      -0.765  12.645  22.796  0.00  0.00    +0.000 OA
ENDBRANCH  19  20
ENDBRANCH  18  19
ENDBRANCH   2  18
TORSDOF 5
ENDMDL
MODEL 6
REMARK VINA RESULT:      -8.5      1.660      2.477
REMARK  Name = 
REMARK  5 active torsions:
REMARK  status: ('A' for Active; 'I' for Inactive)
REMARK    1  A    between atoms: C_2  and  O_3
REMARK    2  A    between atoms: O_3  and  C_4
REMARK    3  A    between atoms: C_4  and  C_5
REMARK    4  A    between atoms: N_14  and  C_15
REMARK    5  A    between atoms: N_14  and  C_21
REMARK                            x       y       z     vdW  Elec       q    Type
REMARK                         _______ _______ _______ _____ _____    ______ ____
ROOT
ATOM      1  O   UNL     1       2.886   7.927  17.016  0.00  0.00    +0.000 OA
ATOM      2  C   UNL     1       2.692   7.205  17.985  0.00  0.00    +0.000 C 
ATOM      3  N   UNL     1       3.219   5.918  18.165  0.00  0.00    +0.000 N 
ENDROOT
BRANCH   3   4
ATOM      4  C   UNL     1       4.289   5.282  17.319  0.00  0.00    +0.000 C 
ATOM      5  C   UNL     1       5.125   4.144  17.978  0.00  0.00    +0.000 C 
ATOM      6  N   UNL     1       6.588   4.438  18.001  0.00  0.00    +0.000 NA
ATOM      7  C   UNL     1       7.094   4.480  16.616  0.00  0.00    +0.000 C 
ATOM      8  C   UNL     1       6.268   5.456  15.762  0.00  0.00    +0.000 C 
ATOM      9  C   UNL     1       5.304   6.271  16.669  0.00  0.00    +0.000 C 
ATOM     10  C   UNL     1       6.164   6.896  17.774  0.00  0.00    +0.000 C 
ATOM     11  C   UNL     1       6.815   5.773  18.602  0.00  0.00    +0.000 C 
ENDBRANCH   3   4
BRANCH   3  12
ATOM     12  C   UNL     1       2.489   4.998  18.983  0.00  0.00    +0.000 A 
ATOM     13  C   UNL     1       2.709   4.959  20.369  0.00  0.00    +0.000 A 
ATOM     14  C   UNL     1       1.991   4.069  21.171  0.00  0.00    +0.000 A 
ATOM     15  C   UNL     1       1.071   3.197  20.591  0.00  0.00    +0.000 A 
ATOM     16  C   UNL     1       0.853   3.231  19.214  0.00  0.00    +0.000 A 
ATOM     17  C   UNL     1       1.546   4.141  18.411  0.00  0.00    +0.000 A 
ENDBRANCH   3  12
BRANCH   2  18
ATOM     18  O   UNL     1       1.957   7.618  19.067  0.00  0.00    +0.000 OA
BRANCH  18  19
ATOM     19  C   UNL     1       1.984   9.021  19.403  0.00  0.00    +0.000 C 
BRANCH  19  20
ATOM     20  C   UNL     1       0.695   9.797  19.203  0.00  0.00    +0.000 A 
ATOM     21  C   UNL     1       0.115  10.581  20.224  0.00  0.00    +0.000 A 
ATOM     22  C   UNL     1      -1.117  11.231  20.032  0.00  0.00    +0.000 A 
ATOM     23  C   UNL     1      -1.754  11.075  18.820  0.00  0.00    +0.000 A 
ATOM     24  C   UNL     1      -1.221  10.290  17.829  0.00  0.00    +0.000 A 
ATOM     25  C   UNL     1      -0.018   9.631  17.994  0.00  0.00    +0.000 A 
ATOM     26  O   UNL     1      -2.012  10.247  16.722  0.00  0.00    +0.000 OA
ATOM     27  C   UNL     1      -3.050  11.178  17.095  0.00  0.00    +0.000 C 
ATOM     28  O   UNL     1      -2.940  11.637  18.459  0.00  0.00    +0.000 OA
ENDBRANCH  19  20
ENDBRANCH  18  19
ENDBRANCH   2  18
TORSDOF 5
ENDMDL
MODEL 7
REMARK VINA RESULT:      -8.4      1.060      1.843
REMARK  Name = 
REMARK  5 active torsions:
REMARK  status: ('A' for Active; 'I' for Inactive)
REMARK    1  A    between atoms: C_2  and  O_3
REMARK    2  A    between atoms: O_3  and  C_4
REMARK    3  A    between atoms: C_4  and  C_5
REMARK    4  A    between atoms: N_14  and  C_15
REMARK    5  A    between atoms: N_14  and  C_21
REMARK                            x       y       z     vdW  Elec       q    Type
REMARK                         _______ _______ _______ _____ _____    ______ ____
ROOT
ATOM      1  O   UNL     1       3.595   8.041  16.706  0.00  0.00    +0.000 OA
ATOM      2  C   UNL     1       3.078   7.433  17.635  0.00  0.00    +0.000 C 
ATOM      3  N   UNL     1       3.631   6.327  18.297  0.00  0.00    +0.000 N 
ENDROOT
BRANCH   3   4
ATOM      4  C   UNL     1       5.042   5.827  18.142  0.00  0.00    +0.000 C 
ATOM      5  C   UNL     1       6.044   6.764  17.405  0.00  0.00    +0.000 C 
ATOM      6  N   UNL     1       6.651   6.130  16.198  0.00  0.00    +0.000 NA
ATOM      7  C   UNL     1       7.489   4.991  16.621  0.00  0.00    +0.000 C 
ATOM      8  C   UNL     1       6.688   4.024  17.507  0.00  0.00    +0.000 C 
ATOM      9  C   UNL     1       5.185   4.415  17.499  0.00  0.00    +0.000 C 
ATOM     10  C   UNL     1       4.760   4.496  16.027  0.00  0.00    +0.000 C 
ATOM     11  C   UNL     1       5.577   5.597  15.326  0.00  0.00    +0.000 C 
ENDBRANCH   3   4
BRANCH   3  12
ATOM     12  C   UNL     1       2.738   5.392  18.910  0.00  0.00    +0.000 A 
ATOM     13  C   UNL     1       1.921   4.572  18.116  0.00  0.00    +0.000 A 
ATOM     14  C   UNL     1       1.056   3.651  18.711  0.00  0.00    +0.000 A 
ATOM     15  C   UNL     1       0.984   3.563  20.101  0.00  0.00    +0.000 A 
ATOM     16  C   UNL     1       1.792   4.378  20.893  0.00  0.00    +0.000 A 
ATOM     17  C   UNL     1       2.681   5.279  20.302  0.00  0.00    +0.000 A 
ENDBRANCH   3  12
BRANCH   2  18
ATOM     18  O   UNL     1       1.884   7.822  18.187  0.00  0.00    +0.000 OA
BRANCH  18  19
ATOM     19  C   UNL     1       1.476   9.195  18.011  0.00  0.00    +0.000 C 
BRANCH  19  20
ATOM     20  C   UNL     1       0.936   9.909  19.237  0.00  0.00    +0.000 A 
ATOM     21  C   UNL     1       1.037  11.308  19.404  0.00  0.00    +0.000 A 
ATOM     22  C   UNL     1       0.591  11.934  20.581  0.00  0.00    +0.000 A 
ATOM     23  C   UNL     1       0.062  11.144  21.579  0.00  0.00    +0.000 A 
ATOM     24  C   UNL     1      -0.013   9.780  21.447  0.00  0.00    +0.000 A 
ATOM     25  C   UNL     1       0.427   9.138  20.305  0.00  0.00    +0.000 A 
ATOM     26  O   UNL     1      -0.544   9.182  22.548  0.00  0.00    +0.000 OA
ATOM     27  C   UNL     1      -0.890  10.336  23.342  0.00  0.00    +0.000 C 
ATOM     28  O   UNL     1      -0.425  11.579  22.773  0.00  0.00    +0.000 OA
ENDBRANCH  19  20
ENDBRANCH  18  19
ENDBRANCH   2  18
TORSDOF 5
ENDMDL
MODEL 8
REMARK VINA RESULT:      -8.4      0.916      1.789
REMARK  Name = 
REMARK  5 active torsions:
REMARK  status: ('A' for Active; 'I' for Inactive)
REMARK    1  A    between atoms: C_2  and  O_3
REMARK    2  A    between atoms: O_3  and  C_4
REMARK    3  A    between atoms: C_4  and  C_5
REMARK    4  A    between atoms: N_14  and  C_15
REMARK    5  A    between atoms: N_14  and  C_21
REMARK                            x       y       z     vdW  Elec       q    Type
REMARK                         _______ _______ _______ _____ _____    ______ ____
ROOT
ATOM      1  O   UNL     1       3.282   7.996  17.486  0.00  0.00    +0.000 OA
ATOM      2  C   UNL     1       2.893   7.157  18.288  0.00  0.00    +0.000 C 
ATOM      3  N   UNL     1       3.579   5.987  18.644  0.00  0.00    +0.000 N 
ENDROOT
BRANCH   3   4
ATOM      4  C   UNL     1       5.004   5.660  18.283  0.00  0.00    +0.000 C 
ATOM      5  C   UNL     1       5.857   6.812  17.674  0.00  0.00    +0.000 C 
ATOM      6  N   UNL     1       6.394   6.482  16.320  0.00  0.00    +0.000 NA
ATOM      7  C   UNL     1       7.352   5.367  16.439  0.00  0.00    +0.000 C 
ATOM      8  C   UNL     1       6.715   4.175  17.173  0.00  0.00    +0.000 C 
ATOM      9  C   UNL     1       5.192   4.418  17.359  0.00  0.00    +0.000 C 
ATOM     10  C   UNL     1       4.625   4.743  15.972  0.00  0.00    +0.000 C 
ATOM     11  C   UNL     1       5.286   6.030  15.446  0.00  0.00    +0.000 C 
ENDBRANCH   3   4
BRANCH   3  12
ATOM     12  C   UNL     1       2.812   4.864  19.092  0.00  0.00    +0.000 A 
ATOM     13  C   UNL     1       1.887   4.253  18.231  0.00  0.00    +0.000 A 
ATOM     14  C   UNL     1       1.145   3.152  18.662  0.00  0.00    +0.000 A 
ATOM     15  C   UNL     1       1.304   2.671  19.961  0.00  0.00    +0.000 A 
ATOM     16  C   UNL     1       2.220   3.278  20.821  0.00  0.00    +0.000 A 
ATOM     17  C   UNL     1       2.987   4.361  20.384  0.00  0.00    +0.000 A 
ENDBRANCH   3  12
BRANCH   2  18
ATOM     18  O   UNL     1       1.728   7.308  18.996  0.00  0.00    +0.000 OA
BRANCH  18  19
ATOM     19  C   UNL     1       1.806   7.929  20.296  0.00  0.00    +0.000 C 
BRANCH  19  20
ATOM     20  C   UNL     1       0.834   9.062  20.571  0.00  0.00    +0.000 A 
ATOM     21  C   UNL     1       0.384   9.938  19.560  0.00  0.00    +0.000 A 
ATOM     22  C   UNL     1      -0.460  11.022  19.858  0.00  0.00    +0.000 A 
ATOM     23  C   UNL     1      -0.831  11.216  21.171  0.00  0.00    +0.000 A 
ATOM     24  C   UNL     1      -0.378  10.394  22.171  0.00  0.00    +0.000 A 
ATOM     25  C   UNL     1       0.461   9.328  21.908  0.00  0.00    +0.000 A 
ATOM     26  O   UNL     1      -0.839  10.767  23.396  0.00  0.00    +0.000 OA
ATOM     27  C   UNL     1      -1.717  11.854  23.035  0.00  0.00    +0.000 C 
ATOM     28  O   UNL     1      -1.647  12.202  21.636  0.00  0.00    +0.000 OA
ENDBRANCH  19  20
ENDBRANCH  18  19
ENDBRANCH   2  18
TORSDOF 5
ENDMDL
MODEL 9
REMARK VINA RESULT:      -8.4      1.238      2.075
REMARK  Name = 
REMARK  5 active torsions:
REMARK  status: ('A' for Active; 'I' for Inactive)
REMARK    1  A    between atoms: C_2  and  O_3
REMARK    2  A    between atoms: O_3  and  C_4
REMARK    3  A    between atoms: C_4  and  C_5
REMARK    4  A    between atoms: N_14  and  C_15
REMARK    5  A    between atoms: N_14  and  C_21
REMARK                            x       y       z     vdW  Elec       q    Type
REMARK                         _______ _______ _______ _____ _____    ______ ____
ROOT
ATOM      1  O   UNL     1       2.938   7.909  16.941  0.00  0.00    +0.000 OA
ATOM      2  C   UNL     1       2.738   7.209  17.925  0.00  0.00    +0.000 C 
ATOM      3  N   UNL     1       3.269   5.928  18.139  0.00  0.00    +0.000 N 
ENDROOT
BRANCH   3   4
ATOM      4  C   UNL     1       4.350   5.278  17.317  0.00  0.00    +0.000 C 
ATOM      5  C   UNL     1       5.203   4.179  18.019  0.00  0.00    +0.000 C 
ATOM      6  N   UNL     1       6.661   4.496  18.030  0.00  0.00    +0.000 NA
ATOM      7  C   UNL     1       7.166   4.494  16.645  0.00  0.00    +0.000 C 
ATOM      8  C   UNL     1       6.325   5.425  15.755  0.00  0.00    +0.000 C 
ATOM      9  C   UNL     1       5.349   6.258  16.631  0.00  0.00    +0.000 C 
ATOM     10  C   UNL     1       6.198   6.937  17.712  0.00  0.00    +0.000 C 
ATOM     11  C   UNL     1       6.867   5.856  18.581  0.00  0.00    +0.000 C 
ENDBRANCH   3   4
BRANCH   3  12
ATOM     12  C   UNL     1       2.536   5.024  18.972  0.00  0.00    +0.000 A 
ATOM     13  C   UNL     1       2.758   5.003  20.358  0.00  0.00    +0.000 A 
ATOM     14  C   UNL     1       2.037   4.129  21.174  0.00  0.00    +0.000 A 
ATOM     15  C   UNL     1       1.111   3.254  20.607  0.00  0.00    +0.000 A 
ATOM     16  C   UNL     1       0.890   3.269  19.230  0.00  0.00    +0.000 A 
ATOM     17  C   UNL     1       1.586   4.164  18.413  0.00  0.00    +0.000 A 
ENDBRANCH   3  12
BRANCH   2  18
ATOM     18  O   UNL     1       1.991   7.643  18.991  0.00  0.00    +0.000 OA
BRANCH  18  19
ATOM     19  C   UNL     1       1.961   9.060  19.258  0.00  0.00    +0.000 C 
BRANCH  19  20
ATOM     20  C   UNL     1       0.619   9.754  19.116  0.00  0.00    +0.000 A 
ATOM     21  C   UNL     1      -0.169   9.649  17.950  0.00  0.00    +0.000 A 
ATOM     22  C   UNL     1      -1.375  10.361  17.819  0.00  0.00    +0.000 A 
ATOM     23  C   UNL     1      -1.766  11.177  18.859  0.00  0.00    +0.000 A 
ATOM     24  C   UNL     1      -0.996  11.316  19.986  0.00  0.00    +0.000 A 
ATOM     25  C   UNL     1       0.199  10.637  20.137  0.00  0.00    +0.000 A 
ATOM     26  O   UNL     1      -1.543  12.182  20.882  0.00  0.00    +0.000 OA
ATOM     27  C   UNL     1      -2.795  12.488  20.233  0.00  0.00    +0.000 C 
ATOM     28  O   UNL     1      -2.901  11.925  18.908  0.00  0.00    +0.000 OA
ENDBRANCH  19  20
ENDBRANCH  18  19
ENDBRANCH   2  18
TORSDOF 5
ENDMDL
