MODEL 1
REMARK VINA RESULT:      -9.1      0.000      0.000
REMARK  Name = 
REMARK  4 active torsions:
REMARK  status: ('A' for Active; 'I' for Inactive)
REMARK    1  A    between atoms: C_2  and  C_4
REMARK    2  A    between atoms: N_12  and  C_13
REMARK    3  A    between atoms: N_16  and  C_17
REMARK    4  A    between atoms: C_17  and  C_18
REMARK                            x       y       z     vdW  Elec       q    Type
REMARK                         _______ _______ _______ _____ _____    ______ ____
ROOT
ATOM      1  C   UNL     1       0.912  10.090  19.214  0.00  0.00    +0.000 C 
ATOM      2  C   UNL     1       1.765   9.336  18.184  0.00  0.00    +0.000 C 
ATOM      3  C   UNL     1       1.895   7.831  18.418  0.00  0.00    +0.000 C 
ATOM      4  N   UNL     1       2.214   7.509  19.821  0.00  0.00    +0.000 NA
ATOM      5  C   UNL     1       1.135   8.011  20.689  0.00  0.00    +0.000 C 
ATOM      6  C   UNL     1       1.069   9.533  20.630  0.00  0.00    +0.000 C 
ENDROOT
BRANCH   1  15
ATOM      7  C   UNL     1      -3.807  11.902  18.791  0.00  0.00    +0.000 A 
ATOM      8  C   UNL     1      -4.739  11.811  17.738  0.00  0.00    +0.000 A 
ATOM      9  C   UNL     1      -4.451  11.103  16.559  0.00  0.00    +0.000 A 
ATOM     10  C   UNL     1      -3.227  10.453  16.411  0.00  0.00    +0.000 A 
ATOM     11  C   UNL     1      -2.318  10.524  17.452  0.00  0.00    +0.000 A 
ATOM     12  C   UNL     1      -2.598  11.238  18.624  0.00  0.00    +0.000 A 
ATOM     13  C   UNL     1      -1.415  11.104  19.496  0.00  0.00    +0.000 C 
ATOM     14  O   UNL     1      -1.284  11.662  20.567  0.00  0.00    +0.000 OA
ATOM     15  N   UNL     1      -0.499  10.289  18.851  0.00  0.00    +0.000 N 
ATOM     16  C   UNL     1      -0.958   9.919  17.522  0.00  0.00    +0.000 C 
BRANCH   7  18
ATOM     17  N   UNL     1      -3.578  13.865  20.250  0.00  0.00    +0.000 N 
ATOM     18  C   UNL     1      -4.224  12.700  19.974  0.00  0.00    +0.000 C 
ATOM     19  O   UNL     1      -5.168  12.336  20.666  0.00  0.00    +0.000 OA
ATOM     20  H   UNL     1      -3.808  14.309  21.128  0.00  0.00    +0.000 HD
ATOM     21  H   UNL     1      -2.641  14.054  19.896  0.00  0.00    +0.000 HD
ENDBRANCH   7  18
ENDBRANCH   1  15
BRANCH   4  22
ATOM     22  C   UNL     1       2.347   6.033  19.952  0.00  0.00    +0.000 C 
BRANCH  22  23
ATOM     23  C   UNL     1       3.201   5.375  18.879  0.00  0.00    +0.000 A 
ATOM     24  C   UNL     1       2.696   4.347  18.092  0.00  0.00    +0.000 A 
ATOM     25  C   UNL     1       3.486   3.850  17.060  0.00  0.00    +0.000 A 
ATOM     26  C   UNL     1       4.755   4.397  16.826  0.00  0.00    +0.000 A 
ATOM     27  C   UNL     1       5.577   3.967  15.767  0.00  0.00    +0.000 A 
ATOM     28  C   UNL     1       6.817   4.567  15.548  0.00  0.00    +0.000 A 
ATOM     29  C   UNL     1       7.247   5.584  16.392  0.00  0.00    +0.000 A 
ATOM     30  C   UNL     1       6.437   5.996  17.453  0.00  0.00    +0.000 A 
ATOM     31  C   UNL     1       5.192   5.429  17.681  0.00  0.00    +0.000 A 
ATOM     32  N   UNL     1       4.440   5.898  18.688  0.00  0.00    +0.000 NA
ENDBRANCH  22  23
ENDBRANCH   4  22
TORSDOF 4
ENDMDL
MODEL 2
REMARK VINA RESULT:      -8.7      0.914      1.207
REMARK  Name = 
REMARK  4 active torsions:
REMARK  status: ('A' for Active; 'I' for Inactive)
REMARK    1  A    between atoms: C_2  and  C_4
REMARK    2  A    between atoms: N_12  and  C_13
REMARK    3  A    between atoms: N_16  and  C_17
REMARK    4  A    between atoms: C_17  and  C_18
REMARK                            x       y       z     vdW  Elec       q    Type
REMARK                         _______ _______ _______ _____ _____    ______ ____
ROOT
ATOM      1  C   UNL     1       0.784  10.381  19.220  0.00  0.00    +0.000 C 
ATOM      2  C   UNL     1       1.611   9.818  18.056  0.00  0.00    +0.000 C 
ATOM      3  C   UNL     1       1.826   8.304  18.078  0.00  0.00    +0.000 C 
ATOM      4  N   UNL     1       2.240   7.817  19.406  0.00  0.00    +0.000 NA
ATOM      5  C   UNL     1       1.189   8.140  20.387  0.00  0.00    +0.000 C 
ATOM      6  C   UNL     1       1.048   9.651  20.538  0.00  0.00    +0.000 C 
ENDROOT
BRANCH   1  15
ATOM      7  C   UNL     1      -3.993  12.084  19.146  0.00  0.00    +0.000 A 
ATOM      8  C   UNL     1      -4.995  11.978  18.161  0.00  0.00    +0.000 A 
ATOM      9  C   UNL     1      -4.776  11.283  16.959  0.00  0.00    +0.000 A 
ATOM     10  C   UNL     1      -3.551  10.663  16.720  0.00  0.00    +0.000 A 
ATOM     11  C   UNL     1      -2.572  10.750  17.695  0.00  0.00    +0.000 A 
ATOM     12  C   UNL     1      -2.784  11.449  18.889  0.00  0.00    +0.000 A 
ATOM     13  C   UNL     1      -1.540  11.338  19.674  0.00  0.00    +0.000 C 
ATOM     14  O   UNL     1      -1.347  11.893  20.737  0.00  0.00    +0.000 OA
ATOM     15  N   UNL     1      -0.653  10.548  18.959  0.00  0.00    +0.000 N 
ATOM     16  C   UNL     1      -1.197  10.176  17.664  0.00  0.00    +0.000 C 
BRANCH   7  18
ATOM     17  N   UNL     1      -4.334  14.223  20.304  0.00  0.00    +0.000 N 
ATOM     18  C   UNL     1      -4.344  12.864  20.362  0.00  0.00    +0.000 C 
ATOM     19  O   UNL     1      -4.683  12.291  21.391  0.00  0.00    +0.000 OA
ATOM     20  H   UNL     1      -4.455  14.711  21.180  0.00  0.00    +0.000 HD
ATOM     21  H   UNL     1      -3.801  14.725  19.593  0.00  0.00    +0.000 HD
ENDBRANCH   7  18
ENDBRANCH   1  15
BRANCH   4  22
ATOM     22  C   UNL     1       2.450   6.346  19.329  0.00  0.00    +0.000 C 
BRANCH  22  23
ATOM     23  C   UNL     1       3.785   5.927  18.734  0.00  0.00    +0.000 A 
ATOM     24  C   UNL     1       4.788   5.388  19.531  0.00  0.00    +0.000 A 
ATOM     25  C   UNL     1       5.951   4.929  18.919  0.00  0.00    +0.000 A 
ATOM     26  C   UNL     1       6.083   5.005  17.525  0.00  0.00    +0.000 A 
ATOM     27  C   UNL     1       7.215   4.513  16.849  0.00  0.00    +0.000 A 
ATOM     28  C   UNL     1       7.287   4.574  15.458  0.00  0.00    +0.000 A 
ATOM     29  C   UNL     1       6.240   5.139  14.740  0.00  0.00    +0.000 A 
ATOM     30  C   UNL     1       5.126   5.643  15.415  0.00  0.00    +0.000 A 
ATOM     31  C   UNL     1       5.022   5.578  16.796  0.00  0.00    +0.000 A 
ATOM     32  N   UNL     1       3.907   6.037  17.385  0.00  0.00    +0.000 NA
ENDBRANCH  22  23
ENDBRANCH   4  22
TORSDOF 4
ENDMDL
MODEL 3
REMARK VINA RESULT:      -8.2      2.168      3.023
REMARK  Name = 
REMARK  4 active torsions:
REMARK  status: ('A' for Active; 'I' for Inactive)
REMARK    1  A    between atoms: C_2  and  C_4
REMARK    2  A    between atoms: N_12  and  C_13
REMARK    3  A    between atoms: N_16  and  C_17
REMARK    4  A    between atoms: C_17  and  C_18
REMARK                            x       y       z     vdW  Elec       q    Type
REMARK                         _______ _______ _______ _____ _____    ______ ____
ROOT
ATOM      1  C   UNL     1       0.529  11.282  21.007  0.00  0.00    +0.000 C 
ATOM      2  C   UNL     1       1.180  11.778  19.708  0.00  0.00    +0.000 C 
ATOM      3  C   UNL     1       1.223  10.762  18.568  0.00  0.00    +0.000 C 
ATOM      4  N   UNL     1       1.698   9.440  19.015  0.00  0.00    +0.000 NA
ATOM      5  C   UNL     1       0.783   8.923  20.048  0.00  0.00    +0.000 C 
ATOM      6  C   UNL     1       0.827   9.808  21.289  0.00  0.00    +0.000 C 
ENDROOT
BRANCH   1  15
ATOM      7  C   UNL     1      -3.944  12.861  22.803  0.00  0.00    +0.000 A 
ATOM      8  C   UNL     1      -5.091  13.333  22.135  0.00  0.00    +0.000 A 
ATOM      9  C   UNL     1      -5.151  13.403  20.732  0.00  0.00    +0.000 A 
ATOM     10  C   UNL     1      -4.067  12.985  19.962  0.00  0.00    +0.000 A 
ATOM     11  C   UNL     1      -2.947  12.502  20.616  0.00  0.00    +0.000 A 
ATOM     12  C   UNL     1      -2.880  12.442  22.013  0.00  0.00    +0.000 A 
ATOM     13  C   UNL     1      -1.555  11.891  22.353  0.00  0.00    +0.000 C 
ATOM     14  O   UNL     1      -1.130  11.770  23.484  0.00  0.00    +0.000 OA
ATOM     15  N   UNL     1      -0.898  11.598  21.168  0.00  0.00    +0.000 N 
ATOM     16  C   UNL     1      -1.678  12.006  20.011  0.00  0.00    +0.000 C 
BRANCH   7  18
ATOM     17  N   UNL     1      -3.681  13.996  24.966  0.00  0.00    +0.000 N 
ATOM     18  C   UNL     1      -4.000  12.860  24.288  0.00  0.00    +0.000 C 
ATOM     19  O   UNL     1      -4.372  11.862  24.895  0.00  0.00    +0.000 OA
ATOM     20  H   UNL     1      -3.611  13.915  25.970  0.00  0.00    +0.000 HD
ATOM     21  H   UNL     1      -3.110  14.728  24.544  0.00  0.00    +0.000 HD
ENDBRANCH   7  18
ENDBRANCH   1  15
BRANCH   4  22
ATOM     22  C   UNL     1       1.733   8.525  17.842  0.00  0.00    +0.000 C 
BRANCH  22  23
ATOM     23  C   UNL     1       2.748   7.398  17.947  0.00  0.00    +0.000 A 
ATOM     24  C   UNL     1       2.360   6.116  18.320  0.00  0.00    +0.000 A 
ATOM     25  C   UNL     1       3.312   5.101  18.303  0.00  0.00    +0.000 A 
ATOM     26  C   UNL     1       4.625   5.382  17.903  0.00  0.00    +0.000 A 
ATOM     27  C   UNL     1       5.616   4.385  17.821  0.00  0.00    +0.000 A 
ATOM     28  C   UNL     1       6.900   4.703  17.379  0.00  0.00    +0.000 A 
ATOM     29  C   UNL     1       7.204   6.015  17.035  0.00  0.00    +0.000 A 
ATOM     30  C   UNL     1       6.223   7.005  17.135  0.00  0.00    +0.000 A 
ATOM     31  C   UNL     1       4.934   6.712  17.553  0.00  0.00    +0.000 A 
ATOM     32  N   UNL     1       4.023   7.696  17.586  0.00  0.00    +0.000 NA
ENDBRANCH  22  23
ENDBRANCH   4  22
TORSDOF 4
ENDMDL
MODEL 4
REMARK VINA RESULT:      -8.0      2.022      2.605
REMARK  Name = 
REMARK  4 active torsions:
REMARK  status: ('A' for Active; 'I' for Inactive)
REMARK    1  A    between atoms: C_2  and  C_4
REMARK    2  A    between atoms: N_12  and  C_13
REMARK    3  A    between atoms: N_16  and  C_17
REMARK    4  A    between atoms: C_17  and  C_18
REMARK                            x       y       z     vdW  Elec       q    Type
REMARK                         _______ _______ _______ _____ _____    ______ ____
ROOT
ATOM      1  C   UNL     1       0.885  10.763  20.779  0.00  0.00    +0.000 C 
ATOM      2  C   UNL     1       1.410  10.629  19.342  0.00  0.00    +0.000 C 
ATOM      3  C   UNL     1       1.387   9.213  18.766  0.00  0.00    +0.000 C 
ATOM      4  N   UNL     1       1.936   8.218  19.706  0.00  0.00    +0.000 NA
ATOM      5  C   UNL     1       1.126   8.221  20.937  0.00  0.00    +0.000 C 
ATOM      6  C   UNL     1       1.248   9.561  21.653  0.00  0.00    +0.000 C 
ENDROOT
BRANCH   1  15
ATOM      7  C   UNL     1      -3.531  12.659  22.401  0.00  0.00    +0.000 A 
ATOM      8  C   UNL     1      -4.671  13.080  21.688  0.00  0.00    +0.000 A 
ATOM      9  C   UNL     1      -4.741  12.987  20.287  0.00  0.00    +0.000 A 
ATOM     10  C   UNL     1      -3.674  12.454  19.566  0.00  0.00    +0.000 A 
ATOM     11  C   UNL     1      -2.561  12.021  20.266  0.00  0.00    +0.000 A 
ATOM     12  C   UNL     1      -2.485  12.122  21.660  0.00  0.00    +0.000 A 
ATOM     13  C   UNL     1      -1.171  11.580  22.055  0.00  0.00    +0.000 C 
ATOM     14  O   UNL     1      -0.740  11.581  23.190  0.00  0.00    +0.000 OA
ATOM     15  N   UNL     1      -0.532  11.134  20.909  0.00  0.00    +0.000 N 
ATOM     16  C   UNL     1      -1.311  11.424  19.717  0.00  0.00    +0.000 C 
BRANCH   7  18
ATOM     17  N   UNL     1      -2.845  13.828  24.450  0.00  0.00    +0.000 N 
ATOM     18  C   UNL     1      -3.574  12.833  23.876  0.00  0.00    +0.000 C 
ATOM     19  O   UNL     1      -4.293  12.117  24.565  0.00  0.00    +0.000 OA
ATOM     20  H   UNL     1      -2.805  13.831  25.459  0.00  0.00    +0.000 HD
ATOM     21  H   UNL     1      -2.042  14.242  23.978  0.00  0.00    +0.000 HD
ENDBRANCH   7  18
ENDBRANCH   1  15
BRANCH   4  22
ATOM     22  C   UNL     1       1.899   6.880  19.057  0.00  0.00    +0.000 C 
BRANCH  22  23
ATOM     23  C   UNL     1       3.263   6.302  18.718  0.00  0.00    +0.000 A 
ATOM     24  C   UNL     1       3.993   5.585  19.659  0.00  0.00    +0.000 A 
ATOM     25  C   UNL     1       5.189   4.994  19.265  0.00  0.00    +0.000 A 
ATOM     26  C   UNL     1       5.626   5.119  17.939  0.00  0.00    +0.000 A 
ATOM     27  C   UNL     1       6.803   4.502  17.473  0.00  0.00    +0.000 A 
ATOM     28  C   UNL     1       7.179   4.621  16.136  0.00  0.00    +0.000 A 
ATOM     29  C   UNL     1       6.394   5.367  15.264  0.00  0.00    +0.000 A 
ATOM     30  C   UNL     1       5.236   5.993  15.734  0.00  0.00    +0.000 A 
ATOM     31  C   UNL     1       4.830   5.875  17.055  0.00  0.00    +0.000 A 
ATOM     32  N   UNL     1       3.685   6.461  17.436  0.00  0.00    +0.000 NA
ENDBRANCH  22  23
ENDBRANCH   4  22
TORSDOF 4
ENDMDL
MODEL 5
REMARK VINA RESULT:      -8.0      2.355      3.552
REMARK  Name = 
REMARK  4 active torsions:
REMARK  status: ('A' for Active; 'I' for Inactive)
REMARK    1  A    between atoms: C_2  and  C_4
REMARK    2  A    between atoms: N_12  and  C_13
REMARK    3  A    between atoms: N_16  and  C_17
REMARK    4  A    between atoms: C_17  and  C_18
REMARK                            x       y       z     vdW  Elec       q    Type
REMARK                         _______ _______ _______ _____ _____    ______ ____
ROOT
ATOM      1  C   UNL     1       0.546  11.235  21.059  0.00  0.00    +0.000 C 
ATOM      2  C   UNL     1       1.223  11.767  19.789  0.00  0.00    +0.000 C 
ATOM      3  C   UNL     1       1.291  10.782  18.621  0.00  0.00    +0.000 C 
ATOM      4  N   UNL     1       1.756   9.448  19.042  0.00  0.00    +0.000 NA
ATOM      5  C   UNL     1       0.820   8.904  20.041  0.00  0.00    +0.000 C 
ATOM      6  C   UNL     1       0.838   9.754  21.306  0.00  0.00    +0.000 C 
ENDROOT
BRANCH   1  15
ATOM      7  C   UNL     1      -3.953  12.824  22.780  0.00  0.00    +0.000 A 
ATOM      8  C   UNL     1      -5.095  13.280  22.092  0.00  0.00    +0.000 A 
ATOM      9  C   UNL     1      -5.139  13.325  20.687  0.00  0.00    +0.000 A 
ATOM     10  C   UNL     1      -4.046  12.900  19.937  0.00  0.00    +0.000 A 
ATOM     11  C   UNL     1      -2.930  12.433  20.610  0.00  0.00    +0.000 A 
ATOM     12  C   UNL     1      -2.879  12.396  22.009  0.00  0.00    +0.000 A 
ATOM     13  C   UNL     1      -1.555  11.857  22.372  0.00  0.00    +0.000 C 
ATOM     14  O   UNL     1      -1.141  11.758  23.510  0.00  0.00    +0.000 OA
ATOM     15  N   UNL     1      -0.883  11.548  21.199  0.00  0.00    +0.000 N 
ATOM     16  C   UNL     1      -1.653  11.932  20.028  0.00  0.00    +0.000 C 
BRANCH   7  18
ATOM     17  N   UNL     1      -3.743  14.003  24.925  0.00  0.00    +0.000 N 
ATOM     18  C   UNL     1      -4.025  12.848  24.264  0.00  0.00    +0.000 C 
ATOM     19  O   UNL     1      -4.377  11.851  24.885  0.00  0.00    +0.000 OA
ATOM     20  H   UNL     1      -3.682  13.942  25.931  0.00  0.00    +0.000 HD
ATOM     21  H   UNL     1      -3.187  14.743  24.496  0.00  0.00    +0.000 HD
ENDBRANCH   7  18
ENDBRANCH   1  15
BRANCH   4  22
ATOM     22  C   UNL     1       1.815   8.566  17.845  0.00  0.00    +0.000 C 
BRANCH  22  23
ATOM     23  C   UNL     1       2.678   7.325  18.014  0.00  0.00    +0.000 A 
ATOM     24  C   UNL     1       3.969   7.275  17.503  0.00  0.00    +0.000 A 
ATOM     25  C   UNL     1       4.748   6.153  17.772  0.00  0.00    +0.000 A 
ATOM     26  C   UNL     1       4.229   5.114  18.556  0.00  0.00    +0.000 A 
ATOM     27  C   UNL     1       4.988   3.979  18.900  0.00  0.00    +0.000 A 
ATOM     28  C   UNL     1       4.443   2.988  19.715  0.00  0.00    +0.000 A 
ATOM     29  C   UNL     1       3.138   3.115  20.174  0.00  0.00    +0.000 A 
ATOM     30  C   UNL     1       2.381   4.234  19.816  0.00  0.00    +0.000 A 
ATOM     31  C   UNL     1       2.905   5.243  19.023  0.00  0.00    +0.000 A 
ATOM     32  N   UNL     1       2.145   6.315  18.749  0.00  0.00    +0.000 NA
ENDBRANCH  22  23
ENDBRANCH   4  22
TORSDOF 4
ENDMDL
MODEL 6
REMARK VINA RESULT:      -7.9      2.954     10.072
REMARK  Name = 
REMARK  4 active torsions:
REMARK  status: ('A' for Active; 'I' for Inactive)
REMARK    1  A    between atoms: C_2  and  C_4
REMARK    2  A    between atoms: N_12  and  C_13
REMARK    3  A    between atoms: N_16  and  C_17
REMARK    4  A    between atoms: C_17  and  C_18
REMARK                            x       y       z     vdW  Elec       q    Type
REMARK                         _______ _______ _______ _____ _____    ______ ____
ROOT
ATOM      1  C   UNL     1       1.896   8.641  19.792  0.00  0.00    +0.000 C 
ATOM      2  C   UNL     1       0.661   9.165  20.537  0.00  0.00    +0.000 C 
ATOM      3  C   UNL     1      -0.567   9.430  19.666  0.00  0.00    +0.000 C 
ATOM      4  N   UNL     1      -0.232  10.184  18.444  0.00  0.00    +0.000 NA
ATOM      5  C   UNL     1       0.731   9.406  17.646  0.00  0.00    +0.000 C 
ATOM      6  C   UNL     1       2.048   9.256  18.400  0.00  0.00    +0.000 C 
ENDROOT
BRANCH   1  15
ATOM      7  C   UNL     1       3.713   3.943  19.198  0.00  0.00    +0.000 A 
ATOM      8  C   UNL     1       3.447   2.755  19.907  0.00  0.00    +0.000 A 
ATOM      9  C   UNL     1       2.521   2.719  20.964  0.00  0.00    +0.000 A 
ATOM     10  C   UNL     1       1.824   3.870  21.325  0.00  0.00    +0.000 A 
ATOM     11  C   UNL     1       2.069   5.034  20.617  0.00  0.00    +0.000 A 
ATOM     12  C   UNL     1       2.999   5.075  19.571  0.00  0.00    +0.000 A 
ATOM     13  C   UNL     1       3.004   6.459  19.060  0.00  0.00    +0.000 C 
ATOM     14  O   UNL     1       3.751   6.870  18.196  0.00  0.00    +0.000 OA
ATOM     15  N   UNL     1       2.057   7.180  19.772  0.00  0.00    +0.000 N 
ATOM     16  C   UNL     1       1.454   6.376  20.821  0.00  0.00    +0.000 C 
BRANCH   7  18
ATOM     17  N   UNL     1       6.049   3.964  18.438  0.00  0.00    +0.000 N 
ATOM     18  C   UNL     1       4.731   3.853  18.119  0.00  0.00    +0.000 C 
ATOM     19  O   UNL     1       4.391   3.636  16.961  0.00  0.00    +0.000 OA
ATOM     20  H   UNL     1       6.695   4.022  17.664  0.00  0.00    +0.000 HD
ATOM     21  H   UNL     1       6.354   4.416  19.299  0.00  0.00    +0.000 HD
ENDBRANCH   7  18
ENDBRANCH   1  15
BRANCH   4  22
ATOM     22  C   UNL     1      -1.483  10.418  17.672  0.00  0.00    +0.000 C 
BRANCH  22  23
ATOM     23  C   UNL     1      -2.585  11.121  18.448  0.00  0.00    +0.000 A 
ATOM     24  C   UNL     1      -2.285  12.059  19.429  0.00  0.00    +0.000 A 
ATOM     25  C   UNL     1      -3.333  12.744  20.038  0.00  0.00    +0.000 A 
ATOM     26  C   UNL     1      -4.654  12.490  19.646  0.00  0.00    +0.000 A 
ATOM     27  C   UNL     1      -5.748  13.187  20.193  0.00  0.00    +0.000 A 
ATOM     28  C   UNL     1      -7.043  12.928  19.745  0.00  0.00    +0.000 A 
ATOM     29  C   UNL     1      -7.253  11.964  18.765  0.00  0.00    +0.000 A 
ATOM     30  C   UNL     1      -6.167  11.262  18.238  0.00  0.00    +0.000 A 
ATOM     31  C   UNL     1      -4.867  11.513  18.652  0.00  0.00    +0.000 A 
ATOM     32  N   UNL     1      -3.861  10.838  18.077  0.00  0.00    +0.000 NA
ENDBRANCH  22  23
ENDBRANCH   4  22
TORSDOF 4
ENDMDL
MODEL 7
REMARK VINA RESULT:      -7.9      3.603      5.112
REMARK  Name = 
REMARK  4 active torsions:
REMARK  status: ('A' for Active; 'I' for Inactive)
REMARK    1  A    between atoms: C_2  and  C_4
REMARK    2  A    between atoms: N_12  and  C_13
REMARK    3  A    between atoms: N_16  and  C_17
REMARK    4  A    between atoms: C_17  and  C_18
REMARK                            x       y       z     vdW  Elec       q    Type
REMARK                         _______ _______ _______ _____ _____    ______ ____
ROOT
ATOM      1  C   UNL     1      -0.349  11.621  19.457  0.00  0.00    +0.000 C 
ATOM      2  C   UNL     1      -0.187  11.323  20.954  0.00  0.00    +0.000 C 
ATOM      3  C   UNL     1       0.868  10.273  21.303  0.00  0.00    +0.000 C 
ATOM      4  N   UNL     1       0.764   9.072  20.454  0.00  0.00    +0.000 NA
ATOM      5  C   UNL     1       0.956   9.459  19.045  0.00  0.00    +0.000 C 
ATOM      6  C   UNL     1      -0.172  10.377  18.586  0.00  0.00    +0.000 C 
ENDROOT
BRANCH   1  15
ATOM      7  C   UNL     1       1.466  16.277  18.586  0.00  0.00    +0.000 A 
ATOM      8  C   UNL     1       2.750  16.708  18.199  0.00  0.00    +0.000 A 
ATOM      9  C   UNL     1       3.791  15.796  17.951  0.00  0.00    +0.000 A 
ATOM     10  C   UNL     1       3.566  14.426  18.069  0.00  0.00    +0.000 A 
ATOM     11  C   UNL     1       2.300  13.999  18.430  0.00  0.00    +0.000 A 
ATOM     12  C   UNL     1       1.264  14.906  18.687  0.00  0.00    +0.000 A 
ATOM     13  C   UNL     1       0.078  14.106  19.047  0.00  0.00    +0.000 C 
ATOM     14  O   UNL     1      -0.984  14.574  19.405  0.00  0.00    +0.000 OA
ATOM     15  N   UNL     1       0.420  12.766  18.948  0.00  0.00    +0.000 N 
ATOM     16  C   UNL     1       1.826  12.599  18.620  0.00  0.00    +0.000 C 
BRANCH   7  18
ATOM     17  N   UNL     1      -0.624  17.440  18.026  0.00  0.00    +0.000 N 
ATOM     18  C   UNL     1       0.462  17.342  18.840  0.00  0.00    +0.000 C 
ATOM     19  O   UNL     1       0.585  18.096  19.799  0.00  0.00    +0.000 OA
ATOM     20  H   UNL     1      -1.212  18.250  18.157  0.00  0.00    +0.000 HD
ATOM     21  H   UNL     1      -0.624  17.046  17.086  0.00  0.00    +0.000 HD
ENDBRANCH   7  18
ENDBRANCH   1  15
BRANCH   4  22
ATOM     22  C   UNL     1       1.806   8.099  20.877  0.00  0.00    +0.000 C 
BRANCH  22  23
ATOM     23  C   UNL     1       1.976   6.908  19.947  0.00  0.00    +0.000 A 
ATOM     24  C   UNL     1       2.705   7.016  18.768  0.00  0.00    +0.000 A 
ATOM     25  C   UNL     1       2.912   5.870  18.006  0.00  0.00    +0.000 A 
ATOM     26  C   UNL     1       2.402   4.640  18.442  0.00  0.00    +0.000 A 
ATOM     27  C   UNL     1       2.622   3.442  17.736  0.00  0.00    +0.000 A 
ATOM     28  C   UNL     1       2.128   2.234  18.227  0.00  0.00    +0.000 A 
ATOM     29  C   UNL     1       1.401   2.219  19.412  0.00  0.00    +0.000 A 
ATOM     30  C   UNL     1       1.169   3.412  20.100  0.00  0.00    +0.000 A 
ATOM     31  C   UNL     1       1.664   4.624  19.643  0.00  0.00    +0.000 A 
ATOM     32  N   UNL     1       1.447   5.730  20.371  0.00  0.00    +0.000 NA
ENDBRANCH  22  23
ENDBRANCH   4  22
TORSDOF 4
ENDMDL
MODEL 8
REMARK VINA RESULT:      -7.9      2.176      3.990
REMARK  Name = 
REMARK  4 active torsions:
REMARK  status: ('A' for Active; 'I' for Inactive)
REMARK    1  A    between atoms: C_2  and  C_4
REMARK    2  A    between atoms: N_12  and  C_13
REMARK    3  A    between atoms: N_16  and  C_17
REMARK    4  A    between atoms: C_17  and  C_18
REMARK                            x       y       z     vdW  Elec       q    Type
REMARK                         _______ _______ _______ _____ _____    ______ ____
ROOT
ATOM      1  C   UNL     1      -0.940  12.098  19.928  0.00  0.00    +0.000 C 
ATOM      2  C   UNL     1      -1.156  10.808  19.125  0.00  0.00    +0.000 C 
ATOM      3  C   UNL     1      -0.539   9.548  19.733  0.00  0.00    +0.000 C 
ATOM      4  N   UNL     1       0.851   9.762  20.173  0.00  0.00    +0.000 NA
ATOM      5  C   UNL     1       0.875  10.818  21.199  0.00  0.00    +0.000 C 
ATOM      6  C   UNL     1       0.432  12.150  20.603  0.00  0.00    +0.000 C 
ENDROOT
BRANCH   1  15
ATOM      7  C   UNL     1      -5.477  12.874  22.060  0.00  0.00    +0.000 A 
ATOM      8  C   UNL     1      -5.872  12.879  23.412  0.00  0.00    +0.000 A 
ATOM      9  C   UNL     1      -4.946  12.678  24.451  0.00  0.00    +0.000 A 
ATOM     10  C   UNL     1      -3.598  12.482  24.160  0.00  0.00    +0.000 A 
ATOM     11  C   UNL     1      -3.204  12.496  22.833  0.00  0.00    +0.000 A 
ATOM     12  C   UNL     1      -4.126  12.686  21.796  0.00  0.00    +0.000 A 
ATOM     13  C   UNL     1      -3.363  12.633  20.535  0.00  0.00    +0.000 C 
ATOM     14  O   UNL     1      -3.861  12.687  19.428  0.00  0.00    +0.000 OA
ATOM     15  N   UNL     1      -2.024  12.464  20.852  0.00  0.00    +0.000 N 
ATOM     16  C   UNL     1      -1.832  12.307  22.284  0.00  0.00    +0.000 C 
BRANCH   7  18
ATOM     17  N   UNL     1      -6.563  14.210  20.307  0.00  0.00    +0.000 N 
ATOM     18  C   UNL     1      -6.556  13.075  21.057  0.00  0.00    +0.000 C 
ATOM     19  O   UNL     1      -7.405  12.208  20.876  0.00  0.00    +0.000 OA
ATOM     20  H   UNL     1      -7.378  14.363  19.731  0.00  0.00    +0.000 HD
ATOM     21  H   UNL     1      -6.075  15.053  20.608  0.00  0.00    +0.000 HD
ENDBRANCH   7  18
ENDBRANCH   1  15
BRANCH   4  22
ATOM     22  C   UNL     1       1.377   8.484  20.724  0.00  0.00    +0.000 C 
BRANCH  22  23
ATOM     23  C   UNL     1       2.034   7.573  19.699  0.00  0.00    +0.000 A 
ATOM     24  C   UNL     1       2.541   8.081  18.509  0.00  0.00    +0.000 A 
ATOM     25  C   UNL     1       3.219   7.219  17.653  0.00  0.00    +0.000 A 
ATOM     26  C   UNL     1       3.390   5.873  18.007  0.00  0.00    +0.000 A 
ATOM     27  C   UNL     1       4.109   4.969  17.204  0.00  0.00    +0.000 A 
ATOM     28  C   UNL     1       4.287   3.648  17.615  0.00  0.00    +0.000 A 
ATOM     29  C   UNL     1       3.736   3.223  18.818  0.00  0.00    +0.000 A 
ATOM     30  C   UNL     1       3.008   4.119  19.605  0.00  0.00    +0.000 A 
ATOM     31  C   UNL     1       2.832   5.441  19.228  0.00  0.00    +0.000 A 
ATOM     32  N   UNL     1       2.162   6.266  20.047  0.00  0.00    +0.000 NA
ENDBRANCH  22  23
ENDBRANCH   4  22
TORSDOF 4
ENDMDL
MODEL 9
REMARK VINA RESULT:      -7.8      1.824      2.335
REMARK  Name = 
REMARK  4 active torsions:
REMARK  status: ('A' for Active; 'I' for Inactive)
REMARK    1  A    between atoms: C_2  and  C_4
REMARK    2  A    between atoms: N_12  and  C_13
REMARK    3  A    between atoms: N_16  and  C_17
REMARK    4  A    between atoms: C_17  and  C_18
REMARK                            x       y       z     vdW  Elec       q    Type
REMARK                         _______ _______ _______ _____ _____    ______ ____
ROOT
ATOM      1  C   UNL     1       1.035  10.400  20.671  0.00  0.00    +0.000 C 
ATOM      2  C   UNL     1       1.472   9.869  19.298  0.00  0.00    +0.000 C 
ATOM      3  C   UNL     1       1.371   8.354  19.120  0.00  0.00    +0.000 C 
ATOM      4  N   UNL     1       1.941   7.617  20.263  0.00  0.00    +0.000 NA
ATOM      5  C   UNL     1       1.204   7.980  21.485  0.00  0.00    +0.000 C 
ATOM      6  C   UNL     1       1.409   9.455  21.814  0.00  0.00    +0.000 C 
ENDROOT
BRANCH   1  15
ATOM      7  C   UNL     1      -3.287  12.599  22.157  0.00  0.00    +0.000 A 
ATOM      8  C   UNL     1      -4.390  13.063  21.412  0.00  0.00    +0.000 A 
ATOM      9  C   UNL     1      -4.443  12.929  20.013  0.00  0.00    +0.000 A 
ATOM     10  C   UNL     1      -3.399  12.312  19.327  0.00  0.00    +0.000 A 
ATOM     11  C   UNL     1      -2.323  11.838  20.059  0.00  0.00    +0.000 A 
ATOM     12  C   UNL     1      -2.263  11.979  21.451  0.00  0.00    +0.000 A 
ATOM     13  C   UNL     1      -0.989  11.375  21.885  0.00  0.00    +0.000 C 
ATOM     14  O   UNL     1      -0.576  11.387  23.028  0.00  0.00    +0.000 OA
ATOM     15  N   UNL     1      -0.359  10.856  20.765  0.00  0.00    +0.000 N 
ATOM     16  C   UNL     1      -1.102  11.153  19.551  0.00  0.00    +0.000 C 
BRANCH   7  18
ATOM     17  N   UNL     1      -2.808  13.960  24.145  0.00  0.00    +0.000 N 
ATOM     18  C   UNL     1      -3.343  12.822  23.625  0.00  0.00    +0.000 C 
ATOM     19  O   UNL     1      -3.905  12.013  24.355  0.00  0.00    +0.000 OA
ATOM     20  H   UNL     1      -2.756  14.012  25.152  0.00  0.00    +0.000 HD
ATOM     21  H   UNL     1      -2.104  14.498  23.641  0.00  0.00    +0.000 HD
ENDBRANCH   7  18
ENDBRANCH   1  15
BRANCH   4  22
ATOM     22  C   UNL     1       1.825   6.159  19.994  0.00  0.00    +0.000 C 
BRANCH  22  23
ATOM     23  C   UNL     1       2.930   5.584  19.122  0.00  0.00    +0.000 A 
ATOM     24  C   UNL     1       2.646   5.014  17.887  0.00  0.00    +0.000 A 
ATOM     25  C   UNL     1       3.706   4.594  17.089  0.00  0.00    +0.000 A 
ATOM     26  C   UNL     1       5.025   4.765  17.531  0.00  0.00    +0.000 A 
ATOM     27  C   UNL     1       6.135   4.403  16.745  0.00  0.00    +0.000 A 
ATOM     28  C   UNL     1       7.431   4.627  17.210  0.00  0.00    +0.000 A 
ATOM     29  C   UNL     1       7.622   5.196  18.464  0.00  0.00    +0.000 A 
ATOM     30  C   UNL     1       6.518   5.536  19.249  0.00  0.00    +0.000 A 
ATOM     31  C   UNL     1       5.220   5.342  18.803  0.00  0.00    +0.000 A 
ATOM     32  N   UNL     1       4.200   5.730  19.583  0.00  0.00    +0.000 NA
ENDBRANCH  22  23
ENDBRANCH   4  22
TORSDOF 4
ENDMDL
