MODEL 1
REMARK VINA RESULT:      -8.3      0.000      0.000
REMARK  Name = 
REMARK  4 active torsions:
REMARK  status: ('A' for Active; 'I' for Inactive)
REMARK    1  A    between atoms: C_4  and  C_5
REMARK    2  A    between atoms: C_12  and  O_13
REMARK    3  A    between atoms: O_13  and  C_14
REMARK    4  A    between atoms: C_14  and  C_15
REMARK                            x       y       z     vdW  Elec       q    Type
REMARK                         _______ _______ _______ _____ _____    ______ ____
ROOT
ATOM      1  O   UNL     1       5.193   1.389  21.063  0.00  0.00    +0.000 OA
ATOM      2  C   UNL     1       4.723   2.333  20.442  0.00  0.00    +0.000 A 
ATOM      3  C   UNL     1       3.325   2.735  20.639  0.00  0.00    +0.000 A 
ATOM      4  C   UNL     1       2.722   3.731  19.967  0.00  0.00    +0.000 A 
ATOM      5  C   UNL     1       3.516   4.458  18.964  0.00  0.00    +0.000 A 
ATOM      6  C   UNL     1       3.022   5.480  18.150  0.00  0.00    +0.000 A 
ATOM      7  C   UNL     1       3.840   6.128  17.222  0.00  0.00    +0.000 A 
ATOM      8  C   UNL     1       5.169   5.748  17.061  0.00  0.00    +0.000 A 
ATOM      9  C   UNL     1       5.696   4.752  17.874  0.00  0.00    +0.000 A 
ATOM     10  C   UNL     1       4.865   4.116  18.800  0.00  0.00    +0.000 A 
ATOM     11  O   UNL     1       5.461   3.079  19.545  0.00  0.00    +0.000 OA
ENDROOT
BRANCH   4  12
ATOM     12  C   UNL     1       1.289   4.042  20.289  0.00  0.00    +0.000 C 
ATOM     13  F   UNL     1       1.031   5.311  20.684  0.00  0.00    +0.000 F 
ATOM     14  F   UNL     1       0.490   3.811  19.215  0.00  0.00    +0.000 F 
ATOM     15  F   UNL     1       0.835   3.239  21.288  0.00  0.00    +0.000 F 
ENDBRANCH   4  12
BRANCH   8  16
ATOM     16  O   UNL     1       6.018   6.290  16.138  0.00  0.00    +0.000 OA
BRANCH  16  17
ATOM     17  C   UNL     1       7.060   5.408  15.698  0.00  0.00    +0.000 C 
BRANCH  17  18
ATOM     18  C   UNL     1       6.712   4.734  14.394  0.00  0.00    +0.000 A 
ATOM     19  C   UNL     1       5.590   3.895  14.285  0.00  0.00    +0.000 A 
ATOM     20  C   UNL     1       5.252   3.309  13.067  0.00  0.00    +0.000 A 
ATOM     21  C   UNL     1       6.031   3.546  11.937  0.00  0.00    +0.000 A 
ATOM     22  C   UNL     1       7.157   4.366  12.030  0.00  0.00    +0.000 A 
ATOM     23  C   UNL     1       7.498   4.953  13.250  0.00  0.00    +0.000 A 
ATOM     24 CL   UNL     1       8.904   5.959  13.293  0.00  0.00    +0.000 Cl
ENDBRANCH  17  18
ENDBRANCH  16  17
ENDBRANCH   8  16
TORSDOF 4
ENDMDL
MODEL 2
REMARK VINA RESULT:      -8.1      5.253      7.962
REMARK  Name = 
REMARK  4 active torsions:
REMARK  status: ('A' for Active; 'I' for Inactive)
REMARK    1  A    between atoms: C_4  and  C_5
REMARK    2  A    between atoms: C_12  and  O_13
REMARK    3  A    between atoms: O_13  and  C_14
REMARK    4  A    between atoms: C_14  and  C_15
REMARK                            x       y       z     vdW  Elec       q    Type
REMARK                         _______ _______ _______ _____ _____    ______ ____
ROOT
ATOM      1  O   UNL     1       1.883   2.505  22.202  0.00  0.00    +0.000 OA
ATOM      2  C   UNL     1       2.033   3.274  21.262  0.00  0.00    +0.000 A 
ATOM      3  C   UNL     1       2.509   2.783  19.963  0.00  0.00    +0.000 A 
ATOM      4  C   UNL     1       2.740   3.566  18.896  0.00  0.00    +0.000 A 
ATOM      5  C   UNL     1       2.507   5.011  19.045  0.00  0.00    +0.000 A 
ATOM      6  C   UNL     1       2.748   5.960  18.049  0.00  0.00    +0.000 A 
ATOM      7  C   UNL     1       2.496   7.317  18.264  0.00  0.00    +0.000 A 
ATOM      8  C   UNL     1       2.025   7.765  19.495  0.00  0.00    +0.000 A 
ATOM      9  C   UNL     1       1.752   6.842  20.496  0.00  0.00    +0.000 A 
ATOM     10  C   UNL     1       2.007   5.487  20.264  0.00  0.00    +0.000 A 
ATOM     11  O   UNL     1       1.756   4.624  21.349  0.00  0.00    +0.000 OA
ENDROOT
BRANCH   4  12
ATOM     12  C   UNL     1       3.209   2.918  17.625  0.00  0.00    +0.000 C 
ATOM     13  F   UNL     1       2.447   3.141  16.529  0.00  0.00    +0.000 F 
ATOM     14  F   UNL     1       4.463   3.332  17.304  0.00  0.00    +0.000 F 
ATOM     15  F   UNL     1       3.274   1.568  17.768  0.00  0.00    +0.000 F 
ENDBRANCH   4  12
BRANCH   8  16
ATOM     16  O   UNL     1       1.809   9.078  19.804  0.00  0.00    +0.000 OA
BRANCH  16  17
ATOM     17  C   UNL     1       0.483   9.545  19.521  0.00  0.00    +0.000 C 
BRANCH  17  18
ATOM     18  C   UNL     1      -0.175  10.140  20.742  0.00  0.00    +0.000 A 
ATOM     19  C   UNL     1      -0.154   9.473  21.978  0.00  0.00    +0.000 A 
ATOM     20  C   UNL     1      -0.728  10.049  23.110  0.00  0.00    +0.000 A 
ATOM     21  C   UNL     1      -1.338  11.299  23.026  0.00  0.00    +0.000 A 
ATOM     22  C   UNL     1      -1.380  11.969  21.804  0.00  0.00    +0.000 A 
ATOM     23  C   UNL     1      -0.806  11.394  20.668  0.00  0.00    +0.000 A 
ATOM     24 CL   UNL     1      -0.892  12.281  19.186  0.00  0.00    +0.000 Cl
ENDBRANCH  17  18
ENDBRANCH  16  17
ENDBRANCH   8  16
TORSDOF 4
ENDMDL
MODEL 3
REMARK VINA RESULT:      -8.1      5.349      7.217
REMARK  Name = 
REMARK  4 active torsions:
REMARK  status: ('A' for Active; 'I' for Inactive)
REMARK    1  A    between atoms: C_4  and  C_5
REMARK    2  A    between atoms: C_12  and  O_13
REMARK    3  A    between atoms: O_13  and  C_14
REMARK    4  A    between atoms: C_14  and  C_15
REMARK                            x       y       z     vdW  Elec       q    Type
REMARK                         _______ _______ _______ _____ _____    ______ ____
ROOT
ATOM      1  O   UNL     1       0.041   9.742  23.753  0.00  0.00    +0.000 OA
ATOM      2  C   UNL     1       0.234   9.764  22.544  0.00  0.00    +0.000 A 
ATOM      3  C   UNL     1      -0.429  10.764  21.700  0.00  0.00    +0.000 A 
ATOM      4  C   UNL     1      -0.304  10.829  20.363  0.00  0.00    +0.000 A 
ATOM      5  C   UNL     1       0.548   9.826  19.707  0.00  0.00    +0.000 A 
ATOM      6  C   UNL     1       0.739   9.728  18.327  0.00  0.00    +0.000 A 
ATOM      7  C   UNL     1       1.570   8.749  17.776  0.00  0.00    +0.000 A 
ATOM      8  C   UNL     1       2.208   7.820  18.593  0.00  0.00    +0.000 A 
ATOM      9  C   UNL     1       2.058   7.908  19.972  0.00  0.00    +0.000 A 
ATOM     10  C   UNL     1       1.225   8.895  20.506  0.00  0.00    +0.000 A 
ATOM     11  O   UNL     1       1.082   8.881  21.907  0.00  0.00    +0.000 OA
ENDROOT
BRANCH   4  12
ATOM     12  C   UNL     1      -1.030  11.922  19.632  0.00  0.00    +0.000 C 
ATOM     13  F   UNL     1      -1.907  11.520  18.682  0.00  0.00    +0.000 F 
ATOM     14  F   UNL     1      -1.738  12.695  20.497  0.00  0.00    +0.000 F 
ATOM     15  F   UNL     1      -0.152  12.749  19.006  0.00  0.00    +0.000 F 
ENDBRANCH   4  12
BRANCH   8  16
ATOM     16  O   UNL     1       2.988   6.798  18.132  0.00  0.00    +0.000 OA
BRANCH  16  17
ATOM     17  C   UNL     1       3.392   5.858  19.137  0.00  0.00    +0.000 C 
BRANCH  17  18
ATOM     18  C   UNL     1       2.616   4.567  19.042  0.00  0.00    +0.000 A 
ATOM     19  C   UNL     1       1.571   4.279  19.933  0.00  0.00    +0.000 A 
ATOM     20  C   UNL     1       0.832   3.103  19.813  0.00  0.00    +0.000 A 
ATOM     21  C   UNL     1       1.129   2.192  18.802  0.00  0.00    +0.000 A 
ATOM     22  C   UNL     1       2.173   2.455  17.916  0.00  0.00    +0.000 A 
ATOM     23  C   UNL     1       2.915   3.632  18.035  0.00  0.00    +0.000 A 
ATOM     24 CL   UNL     1       4.194   3.896  16.901  0.00  0.00    +0.000 Cl
ENDBRANCH  17  18
ENDBRANCH  16  17
ENDBRANCH   8  16
TORSDOF 4
ENDMDL
MODEL 4
REMARK VINA RESULT:      -8.1      4.851      6.369
REMARK  Name = 
REMARK  4 active torsions:
REMARK  status: ('A' for Active; 'I' for Inactive)
REMARK    1  A    between atoms: C_4  and  C_5
REMARK    2  A    between atoms: C_12  and  O_13
REMARK    3  A    between atoms: O_13  and  C_14
REMARK    4  A    between atoms: C_14  and  C_15
REMARK                            x       y       z     vdW  Elec       q    Type
REMARK                         _______ _______ _______ _____ _____    ______ ____
ROOT
ATOM      1  O   UNL     1       0.169   9.833  23.535  0.00  0.00    +0.000 OA
ATOM      2  C   UNL     1       0.553   9.606  22.394  0.00  0.00    +0.000 A 
ATOM      3  C   UNL     1       0.395  10.614  21.339  0.00  0.00    +0.000 A 
ATOM      4  C   UNL     1       0.750  10.428  20.055  0.00  0.00    +0.000 A 
ATOM      5  C   UNL     1       1.326   9.126  19.688  0.00  0.00    +0.000 A 
ATOM      6  C   UNL     1       1.697   8.760  18.392  0.00  0.00    +0.000 A 
ATOM      7  C   UNL     1       2.244   7.504  18.121  0.00  0.00    +0.000 A 
ATOM      8  C   UNL     1       2.406   6.567  19.137  0.00  0.00    +0.000 A 
ATOM      9  C   UNL     1       2.070   6.910  20.440  0.00  0.00    +0.000 A 
ATOM     10  C   UNL     1       1.527   8.172  20.695  0.00  0.00    +0.000 A 
ATOM     11  O   UNL     1       1.161   8.422  22.033  0.00  0.00    +0.000 OA
ENDROOT
BRANCH   4  12
ATOM     12  C   UNL     1       0.545  11.559  19.089  0.00  0.00    +0.000 C 
ATOM     13  F   UNL     1       0.184  12.745  19.631  0.00  0.00    +0.000 F 
ATOM     14  F   UNL     1       1.678  11.798  18.377  0.00  0.00    +0.000 F 
ATOM     15  F   UNL     1      -0.421  11.250  18.184  0.00  0.00    +0.000 F 
ENDBRANCH   4  12
BRANCH   8  16
ATOM     16  O   UNL     1       2.878   5.299  18.946  0.00  0.00    +0.000 OA
BRANCH  16  17
ATOM     17  C   UNL     1       3.702   5.140  17.782  0.00  0.00    +0.000 C 
BRANCH  17  18
ATOM     18  C   UNL     1       5.120   5.591  18.032  0.00  0.00    +0.000 A 
ATOM     19  C   UNL     1       5.805   5.223  19.201  0.00  0.00    +0.000 A 
ATOM     20  C   UNL     1       7.129   5.610  19.404  0.00  0.00    +0.000 A 
ATOM     21  C   UNL     1       7.790   6.374  18.445  0.00  0.00    +0.000 A 
ATOM     22  C   UNL     1       7.119   6.760  17.284  0.00  0.00    +0.000 A 
ATOM     23  C   UNL     1       5.793   6.375  17.079  0.00  0.00    +0.000 A 
ATOM     24 CL   UNL     1       5.024   6.885  15.616  0.00  0.00    +0.000 Cl
ENDBRANCH  17  18
ENDBRANCH  16  17
ENDBRANCH   8  16
TORSDOF 4
ENDMDL
MODEL 5
REMARK VINA RESULT:      -8.1      3.977      7.429
REMARK  Name = 
REMARK  4 active torsions:
REMARK  status: ('A' for Active; 'I' for Inactive)
REMARK    1  A    between atoms: C_4  and  C_5
REMARK    2  A    between atoms: C_12  and  O_13
REMARK    3  A    between atoms: O_13  and  C_14
REMARK    4  A    between atoms: C_14  and  C_15
REMARK                            x       y       z     vdW  Elec       q    Type
REMARK                         _______ _______ _______ _____ _____    ______ ____
ROOT
ATOM      1  O   UNL     1       9.273   6.068  12.941  0.00  0.00    +0.000 OA
ATOM      2  C   UNL     1       8.296   5.516  13.430  0.00  0.00    +0.000 A 
ATOM      3  C   UNL     1       7.410   4.691  12.600  0.00  0.00    +0.000 A 
ATOM      4  C   UNL     1       6.297   4.087  13.049  0.00  0.00    +0.000 A 
ATOM      5  C   UNL     1       5.942   4.274  14.464  0.00  0.00    +0.000 A 
ATOM      6  C   UNL     1       4.793   3.757  15.068  0.00  0.00    +0.000 A 
ATOM      7  C   UNL     1       4.526   3.973  16.422  0.00  0.00    +0.000 A 
ATOM      8  C   UNL     1       5.386   4.741  17.201  0.00  0.00    +0.000 A 
ATOM      9  C   UNL     1       6.549   5.248  16.634  0.00  0.00    +0.000 A 
ATOM     10  C   UNL     1       6.803   5.020  15.279  0.00  0.00    +0.000 A 
ATOM     11  O   UNL     1       7.974   5.615  14.768  0.00  0.00    +0.000 OA
ENDROOT
BRANCH   4  12
ATOM     12  C   UNL     1       5.498   3.258  12.085  0.00  0.00    +0.000 C 
ATOM     13  F   UNL     1       4.162   3.471  12.083  0.00  0.00    +0.000 F 
ATOM     14  F   UNL     1       5.915   3.464  10.809  0.00  0.00    +0.000 F 
ATOM     15  F   UNL     1       5.667   1.932  12.336  0.00  0.00    +0.000 F 
ENDBRANCH   4  12
BRANCH   8  16
ATOM     16  O   UNL     1       5.168   5.048  18.514  0.00  0.00    +0.000 OA
BRANCH  16  17
ATOM     17  C   UNL     1       4.943   3.912  19.361  0.00  0.00    +0.000 C 
BRANCH  17  18
ATOM     18  C   UNL     1       3.482   3.744  19.699  0.00  0.00    +0.000 A 
ATOM     19  C   UNL     1       2.767   4.756  20.361  0.00  0.00    +0.000 A 
ATOM     20  C   UNL     1       1.408   4.609  20.633  0.00  0.00    +0.000 A 
ATOM     21  C   UNL     1       0.740   3.447  20.253  0.00  0.00    +0.000 A 
ATOM     22  C   UNL     1       1.438   2.426  19.607  0.00  0.00    +0.000 A 
ATOM     23  C   UNL     1       2.800   2.570  19.335  0.00  0.00    +0.000 A 
ATOM     24 CL   UNL     1       3.602   1.267  18.529  0.00  0.00    +0.000 Cl
ENDBRANCH  17  18
ENDBRANCH  16  17
ENDBRANCH   8  16
TORSDOF 4
ENDMDL
MODEL 6
REMARK VINA RESULT:      -8.0      5.342      7.575
REMARK  Name = 
REMARK  4 active torsions:
REMARK  status: ('A' for Active; 'I' for Inactive)
REMARK    1  A    between atoms: C_4  and  C_5
REMARK    2  A    between atoms: C_12  and  O_13
REMARK    3  A    between atoms: O_13  and  C_14
REMARK    4  A    between atoms: C_14  and  C_15
REMARK                            x       y       z     vdW  Elec       q    Type
REMARK                         _______ _______ _______ _____ _____    ______ ____
ROOT
ATOM      1  O   UNL     1       1.695   2.523  22.244  0.00  0.00    +0.000 OA
ATOM      2  C   UNL     1       1.926   3.256  21.291  0.00  0.00    +0.000 A 
ATOM      3  C   UNL     1       2.506   2.715  20.056  0.00  0.00    +0.000 A 
ATOM      4  C   UNL     1       2.828   3.457  18.982  0.00  0.00    +0.000 A 
ATOM      5  C   UNL     1       2.589   4.906  19.057  0.00  0.00    +0.000 A 
ATOM      6  C   UNL     1       2.916   5.816  18.049  0.00  0.00    +0.000 A 
ATOM      7  C   UNL     1       2.653   7.181  18.191  0.00  0.00    +0.000 A 
ATOM      8  C   UNL     1       2.084   7.676  19.360  0.00  0.00    +0.000 A 
ATOM      9  C   UNL     1       1.724   6.792  20.370  0.00  0.00    +0.000 A 
ATOM     10  C   UNL     1       1.992   5.429  20.211  0.00  0.00    +0.000 A 
ATOM     11  O   UNL     1       1.649   4.608  21.303  0.00  0.00    +0.000 OA
ENDROOT
BRANCH   4  12
ATOM     12  C   UNL     1       3.398   2.760  17.780  0.00  0.00    +0.000 C 
ATOM     13  F   UNL     1       4.627   3.167  17.385  0.00  0.00    +0.000 F 
ATOM     14  F   UNL     1       3.494   1.422  17.997  0.00  0.00    +0.000 F 
ATOM     15  F   UNL     1       2.585   2.919  16.701  0.00  0.00    +0.000 F 
ENDBRANCH   4  12
BRANCH   8  16
ATOM     16  O   UNL     1       1.848   9.000  19.601  0.00  0.00    +0.000 OA
BRANCH  16  17
ATOM     17  C   UNL     1       0.729   9.258  20.460  0.00  0.00    +0.000 C 
BRANCH  17  18
ATOM     18  C   UNL     1      -0.276  10.178  19.812  0.00  0.00    +0.000 A 
ATOM     19  C   UNL     1      -0.658  10.009  18.471  0.00  0.00    +0.000 A 
ATOM     20  C   UNL     1      -1.618  10.838  17.891  0.00  0.00    +0.000 A 
ATOM     21  C   UNL     1      -2.209  11.853  18.640  0.00  0.00    +0.000 A 
ATOM     22  C   UNL     1      -1.832  12.043  19.970  0.00  0.00    +0.000 A 
ATOM     23  C   UNL     1      -0.870  11.215  20.552  0.00  0.00    +0.000 A 
ATOM     24 CL   UNL     1      -0.452  11.505  22.205  0.00  0.00    +0.000 Cl
ENDBRANCH  17  18
ENDBRANCH  16  17
ENDBRANCH   8  16
TORSDOF 4
ENDMDL
MODEL 7
REMARK VINA RESULT:      -8.0      5.541      7.725
REMARK  Name = 
REMARK  4 active torsions:
REMARK  status: ('A' for Active; 'I' for Inactive)
REMARK    1  A    between atoms: C_4  and  C_5
REMARK    2  A    between atoms: C_12  and  O_13
REMARK    3  A    between atoms: O_13  and  C_14
REMARK    4  A    between atoms: C_14  and  C_15
REMARK                            x       y       z     vdW  Elec       q    Type
REMARK                         _______ _______ _______ _____ _____    ______ ____
ROOT
ATOM      1  O   UNL     1      -0.699  10.396  23.359  0.00  0.00    +0.000 OA
ATOM      2  C   UNL     1      -0.311  10.259  22.206  0.00  0.00    +0.000 A 
ATOM      3  C   UNL     1      -0.799  11.147  21.144  0.00  0.00    +0.000 A 
ATOM      4  C   UNL     1      -0.456  11.037  19.849  0.00  0.00    +0.000 A 
ATOM      5  C   UNL     1       0.461   9.950  19.475  0.00  0.00    +0.000 A 
ATOM      6  C   UNL     1       0.870   9.673  18.168  0.00  0.00    +0.000 A 
ATOM      7  C   UNL     1       1.750   8.623  17.891  0.00  0.00    +0.000 A 
ATOM      8  C   UNL     1       2.218   7.802  18.912  0.00  0.00    +0.000 A 
ATOM      9  C   UNL     1       1.849   8.069  20.224  0.00  0.00    +0.000 A 
ATOM     10  C   UNL     1       0.971   9.124  20.485  0.00  0.00    +0.000 A 
ATOM     11  O   UNL     1       0.601   9.293  21.834  0.00  0.00    +0.000 OA
ENDROOT
BRANCH   4  12
ATOM     12  C   UNL     1      -1.020  12.033  18.876  0.00  0.00    +0.000 C 
ATOM     13  F   UNL     1      -1.725  11.518  17.841  0.00  0.00    +0.000 F 
ATOM     14  F   UNL     1      -1.853  12.904  19.504  0.00  0.00    +0.000 F 
ATOM     15  F   UNL     1      -0.029  12.779  18.321  0.00  0.00    +0.000 F 
ENDBRANCH   4  12
BRANCH   8  16
ATOM     16  O   UNL     1       3.032   6.722  18.719  0.00  0.00    +0.000 OA
BRANCH  16  17
ATOM     17  C   UNL     1       2.351   5.530  18.303  0.00  0.00    +0.000 C 
BRANCH  17  18
ATOM     18  C   UNL     1       2.357   4.475  19.381  0.00  0.00    +0.000 A 
ATOM     19  C   UNL     1       1.239   4.270  20.206  0.00  0.00    +0.000 A 
ATOM     20  C   UNL     1       1.238   3.266  21.172  0.00  0.00    +0.000 A 
ATOM     21  C   UNL     1       2.356   2.451  21.335  0.00  0.00    +0.000 A 
ATOM     22  C   UNL     1       3.481   2.649  20.534  0.00  0.00    +0.000 A 
ATOM     23  C   UNL     1       3.484   3.656  19.566  0.00  0.00    +0.000 A 
ATOM     24 CL   UNL     1       4.911   3.844  18.606  0.00  0.00    +0.000 Cl
ENDBRANCH  17  18
ENDBRANCH  16  17
ENDBRANCH   8  16
TORSDOF 4
ENDMDL
MODEL 8
REMARK VINA RESULT:      -8.0      5.027      6.206
REMARK  Name = 
REMARK  4 active torsions:
REMARK  status: ('A' for Active; 'I' for Inactive)
REMARK    1  A    between atoms: C_4  and  C_5
REMARK    2  A    between atoms: C_12  and  O_13
REMARK    3  A    between atoms: O_13  and  C_14
REMARK    4  A    between atoms: C_14  and  C_15
REMARK                            x       y       z     vdW  Elec       q    Type
REMARK                         _______ _______ _______ _____ _____    ______ ____
ROOT
ATOM      1  O   UNL     1       0.005   9.923  23.501  0.00  0.00    +0.000 OA
ATOM      2  C   UNL     1       0.391   9.738  22.353  0.00  0.00    +0.000 A 
ATOM      3  C   UNL     1       0.144  10.742  21.312  0.00  0.00    +0.000 A 
ATOM      4  C   UNL     1       0.496  10.598  20.022  0.00  0.00    +0.000 A 
ATOM      5  C   UNL     1       1.165   9.347  19.633  0.00  0.00    +0.000 A 
ATOM      6  C   UNL     1       1.545   9.025  18.328  0.00  0.00    +0.000 A 
ATOM      7  C   UNL     1       2.182   7.816  18.035  0.00  0.00    +0.000 A 
ATOM      8  C   UNL     1       2.426   6.883  19.038  0.00  0.00    +0.000 A 
ATOM      9  C   UNL     1       2.082   7.186  20.350  0.00  0.00    +0.000 A 
ATOM     10  C   UNL     1       1.448   8.400  20.626  0.00  0.00    +0.000 A 
ATOM     11  O   UNL     1       1.081   8.606  21.970  0.00  0.00    +0.000 OA
ENDROOT
BRANCH   4  12
ATOM     12  C   UNL     1       0.196  11.721  19.072  0.00  0.00    +0.000 C 
ATOM     13  F   UNL     1       1.257  12.237  18.408  0.00  0.00    +0.000 F 
ATOM     14  F   UNL     1      -0.689  11.325  18.120  0.00  0.00    +0.000 F 
ATOM     15  F   UNL     1      -0.382  12.764  19.726  0.00  0.00    +0.000 F 
ENDBRANCH   4  12
BRANCH   8  16
ATOM     16  O   UNL     1       2.990   5.656  18.827  0.00  0.00    +0.000 OA
BRANCH  16  17
ATOM     17  C   UNL     1       4.390   5.585  19.130  0.00  0.00    +0.000 C 
BRANCH  17  18
ATOM     18  C   UNL     1       5.195   5.089  17.954  0.00  0.00    +0.000 A 
ATOM     19  C   UNL     1       4.567   4.618  16.790  0.00  0.00    +0.000 A 
ATOM     20  C   UNL     1       5.318   4.200  15.692  0.00  0.00    +0.000 A 
ATOM     21  C   UNL     1       6.710   4.241  15.741  0.00  0.00    +0.000 A 
ATOM     22  C   UNL     1       7.350   4.693  16.895  0.00  0.00    +0.000 A 
ATOM     23  C   UNL     1       6.600   5.111  17.996  0.00  0.00    +0.000 A 
ATOM     24 CL   UNL     1       7.458   5.662  19.392  0.00  0.00    +0.000 Cl
ENDBRANCH  17  18
ENDBRANCH  16  17
ENDBRANCH   8  16
TORSDOF 4
ENDMDL
MODEL 9
REMARK VINA RESULT:      -7.9      3.933      7.506
REMARK  Name = 
REMARK  4 active torsions:
REMARK  status: ('A' for Active; 'I' for Inactive)
REMARK    1  A    between atoms: C_4  and  C_5
REMARK    2  A    between atoms: C_12  and  O_13
REMARK    3  A    between atoms: O_13  and  C_14
REMARK    4  A    between atoms: C_14  and  C_15
REMARK                            x       y       z     vdW  Elec       q    Type
REMARK                         _______ _______ _______ _____ _____    ______ ____
ROOT
ATOM      1  O   UNL     1       9.064   6.179  12.729  0.00  0.00    +0.000 OA
ATOM      2  C   UNL     1       8.177   5.543  13.285  0.00  0.00    +0.000 A 
ATOM      3  C   UNL     1       7.226   4.746  12.502  0.00  0.00    +0.000 A 
ATOM      4  C   UNL     1       6.201   4.055  13.030  0.00  0.00    +0.000 A 
ATOM      5  C   UNL     1       6.019   4.112  14.489  0.00  0.00    +0.000 A 
ATOM      6  C   UNL     1       4.976   3.493  15.182  0.00  0.00    +0.000 A 
ATOM      7  C   UNL     1       4.872   3.588  16.572  0.00  0.00    +0.000 A 
ATOM      8  C   UNL     1       5.794   4.332  17.303  0.00  0.00    +0.000 A 
ATOM      9  C   UNL     1       6.857   4.938  16.644  0.00  0.00    +0.000 A 
ATOM     10  C   UNL     1       6.947   4.831  15.253  0.00  0.00    +0.000 A 
ATOM     11  O   UNL     1       8.022   5.520  14.656  0.00  0.00    +0.000 OA
ENDROOT
BRANCH   4  12
ATOM     12  C   UNL     1       5.320   3.268  12.104  0.00  0.00    +0.000 C 
ATOM     13  F   UNL     1       5.628   1.957  11.963  0.00  0.00    +0.000 F 
ATOM     14  F   UNL     1       4.026   3.309  12.515  0.00  0.00    +0.000 F 
ATOM     15  F   UNL     1       5.343   3.796  10.851  0.00  0.00    +0.000 F 
ENDBRANCH   4  12
BRANCH   8  16
ATOM     16  O   UNL     1       5.731   4.522  18.654  0.00  0.00    +0.000 OA
BRANCH  16  17
ATOM     17  C   UNL     1       4.716   5.443  19.079  0.00  0.00    +0.000 C 
BRANCH  17  18
ATOM     18  C   UNL     1       3.532   4.732  19.688  0.00  0.00    +0.000 A 
ATOM     19  C   UNL     1       3.563   3.351  19.937  0.00  0.00    +0.000 A 
ATOM     20  C   UNL     1       2.481   2.709  20.538  0.00  0.00    +0.000 A 
ATOM     21  C   UNL     1       1.348   3.436  20.897  0.00  0.00    +0.000 A 
ATOM     22  C   UNL     1       1.295   4.807  20.644  0.00  0.00    +0.000 A 
ATOM     23  C   UNL     1       2.377   5.452  20.041  0.00  0.00    +0.000 A 
ATOM     24 CL   UNL     1       2.246   7.153  19.760  0.00  0.00    +0.000 Cl
ENDBRANCH  17  18
ENDBRANCH  16  17
ENDBRANCH   8  16
TORSDOF 4
ENDMDL
