MODEL 1
REMARK VINA RESULT:      -6.7      0.000      0.000
REMARK  Name = 
REMARK  7 active torsions:
REMARK  status: ('A' for Active; 'I' for Inactive)
REMARK    1  A    between atoms: N_2  and  O_4
REMARK    2  A    between atoms: O_4  and  C_5
REMARK    3  A    between atoms: C_5  and  C_6
REMARK    4  A    between atoms: C_6  and  C_7
REMARK    5  A    between atoms: C_6  and  O_14
REMARK    6  A    between atoms: C_7  and  C_8
REMARK    7  A    between atoms: O_14  and  N_15
REMARK                            x       y       z     vdW  Elec       q    Type
REMARK                         _______ _______ _______ _____ _____    ______ ____
ROOT
ATOM      1  C   UNL     1       4.736   5.883  17.843  0.00  0.00    +0.000 C 
ENDROOT
BRANCH   1   2
ATOM      2  C   UNL     1       5.252   4.814  18.826  0.00  0.00    +0.000 C 
BRANCH   2   3
ATOM      3  O   UNL     1       6.639   4.580  18.569  0.00  0.00    +0.000 OA
BRANCH   3   5
ATOM      4  O   UNL     1       7.901   6.387  18.450  0.00  0.00    +0.000 OA
ATOM      5  N   UNL     1       7.475   5.525  19.215  0.00  0.00    +0.000 N 
ATOM      6  O   UNL     1       7.666   5.375  20.424  0.00  0.00    +0.000 OA
ENDBRANCH   3   5
ENDBRANCH   2   3
ENDBRANCH   1   2
BRANCH   1   7
ATOM      7  C   UNL     1       3.268   6.246  18.144  0.00  0.00    +0.000 C 
BRANCH   7   8
ATOM      8  C   UNL     1       2.395   5.153  18.697  0.00  0.00    +0.000 A 
ATOM      9  C   UNL     1       1.992   4.071  17.904  0.00  0.00    +0.000 A 
ATOM     10  C   UNL     1       1.243   3.033  18.459  0.00  0.00    +0.000 A 
ATOM     11  C   UNL     1       0.896   3.063  19.811  0.00  0.00    +0.000 A 
ATOM     12  C   UNL     1       1.292   4.135  20.606  0.00  0.00    +0.000 A 
ATOM     13  C   UNL     1       2.037   5.176  20.053  0.00  0.00    +0.000 A 
ENDBRANCH   7   8
ENDBRANCH   1   7
BRANCH   1  14
ATOM     14  O   UNL     1       4.783   5.282  16.535  0.00  0.00    +0.000 OA
BRANCH  14  15
ATOM     15  N   UNL     1       5.592   5.989  15.612  0.00  0.00    +0.000 N 
ATOM     16  O   UNL     1       6.715   5.538  15.388  0.00  0.00    +0.000 OA
ATOM     17  O   UNL     1       5.040   6.995  15.171  0.00  0.00    +0.000 OA
ENDBRANCH  14  15
ENDBRANCH   1  14
TORSDOF 7
ENDMDL
MODEL 2
REMARK VINA RESULT:      -6.7      0.589      1.559
REMARK  Name = 
REMARK  7 active torsions:
REMARK  status: ('A' for Active; 'I' for Inactive)
REMARK    1  A    between atoms: N_2  and  O_4
REMARK    2  A    between atoms: O_4  and  C_5
REMARK    3  A    between atoms: C_5  and  C_6
REMARK    4  A    between atoms: C_6  and  C_7
REMARK    5  A    between atoms: C_6  and  O_14
REMARK    6  A    between atoms: C_7  and  C_8
REMARK    7  A    between atoms: O_14  and  N_15
REMARK                            x       y       z     vdW  Elec       q    Type
REMARK                         _______ _______ _______ _____ _____    ______ ____
ROOT
ATOM      1  C   UNL     1       4.652   5.849  17.904  0.00  0.00    +0.000 C 
ENDROOT
BRANCH   1   2
ATOM      2  C   UNL     1       5.319   4.889  18.908  0.00  0.00    +0.000 C 
BRANCH   2   3
ATOM      3  O   UNL     1       6.384   5.578  19.570  0.00  0.00    +0.000 OA
BRANCH   3   5
ATOM      4  O   UNL     1       8.075   6.712  18.719  0.00  0.00    +0.000 OA
ATOM      5  N   UNL     1       7.576   5.592  18.805  0.00  0.00    +0.000 N 
ATOM      6  O   UNL     1       7.958   4.517  18.337  0.00  0.00    +0.000 OA
ENDBRANCH   3   5
ENDBRANCH   2   3
ENDBRANCH   1   2
BRANCH   1   7
ATOM      7  C   UNL     1       3.194   6.145  18.310  0.00  0.00    +0.000 C 
BRANCH   7   8
ATOM      8  C   UNL     1       2.400   5.002  18.878  0.00  0.00    +0.000 A 
ATOM      9  C   UNL     1       2.065   4.951  20.238  0.00  0.00    +0.000 A 
ATOM     10  C   UNL     1       1.266   3.917  20.727  0.00  0.00    +0.000 A 
ATOM     11  C   UNL     1       0.790   2.929  19.863  0.00  0.00    +0.000 A 
ATOM     12  C   UNL     1       1.118   2.971  18.511  0.00  0.00    +0.000 A 
ATOM     13  C   UNL     1       1.920   4.002  18.020  0.00  0.00    +0.000 A 
ENDBRANCH   7   8
ENDBRANCH   1   7
BRANCH   1  14
ATOM     14  O   UNL     1       4.628   5.157  16.641  0.00  0.00    +0.000 OA
BRANCH  14  15
ATOM     15  N   UNL     1       5.550   5.668  15.695  0.00  0.00    +0.000 N 
ATOM     16  O   UNL     1       5.395   6.834  15.333  0.00  0.00    +0.000 OA
ATOM     17  O   UNL     1       6.386   4.836  15.351  0.00  0.00    +0.000 OA
ENDBRANCH  14  15
ENDBRANCH   1  14
TORSDOF 7
ENDMDL
MODEL 3
REMARK VINA RESULT:      -6.6      1.429      3.369
REMARK  Name = 
REMARK  7 active torsions:
REMARK  status: ('A' for Active; 'I' for Inactive)
REMARK    1  A    between atoms: N_2  and  O_4
REMARK    2  A    between atoms: O_4  and  C_5
REMARK    3  A    between atoms: C_5  and  C_6
REMARK    4  A    between atoms: C_6  and  C_7
REMARK    5  A    between atoms: C_6  and  O_14
REMARK    6  A    between atoms: C_7  and  C_8
REMARK    7  A    between atoms: O_14  and  N_15
REMARK                            x       y       z     vdW  Elec       q    Type
REMARK                         _______ _______ _______ _____ _____    ______ ____
ROOT
ATOM      1  C   UNL     1       5.223   4.717  17.259  0.00  0.00    +0.000 C 
ENDROOT
BRANCH   1   2
ATOM      2  C   UNL     1       5.499   4.286  15.804  0.00  0.00    +0.000 C 
BRANCH   2   3
ATOM      3  O   UNL     1       6.091   5.382  15.102  0.00  0.00    +0.000 OA
BRANCH   3   5
ATOM      4  O   UNL     1       7.993   5.572  13.997  0.00  0.00    +0.000 OA
ATOM      5  N   UNL     1       6.931   4.955  14.043  0.00  0.00    +0.000 N 
ATOM      6  O   UNL     1       6.511   4.047  13.322  0.00  0.00    +0.000 OA
ENDBRANCH   3   5
ENDBRANCH   2   3
ENDBRANCH   1   2
BRANCH   1   7
ATOM      7  C   UNL     1       3.897   5.499  17.360  0.00  0.00    +0.000 C 
BRANCH   7   8
ATOM      8  C   UNL     1       2.901   5.022  18.380  0.00  0.00    +0.000 A 
ATOM      9  C   UNL     1       1.969   4.022  18.076  0.00  0.00    +0.000 A 
ATOM     10  C   UNL     1       1.102   3.545  19.060  0.00  0.00    +0.000 A 
ATOM     11  C   UNL     1       1.164   4.058  20.358  0.00  0.00    +0.000 A 
ATOM     12  C   UNL     1       2.087   5.053  20.668  0.00  0.00    +0.000 A 
ATOM     13  C   UNL     1       2.952   5.534  19.685  0.00  0.00    +0.000 A 
ENDBRANCH   7   8
ENDBRANCH   1   7
BRANCH   1  14
ATOM     14  O   UNL     1       6.292   5.609  17.623  0.00  0.00    +0.000 OA
BRANCH  14  15
ATOM     15  N   UNL     1       7.121   5.112  18.659  0.00  0.00    +0.000 N 
ATOM     16  O   UNL     1       6.834   5.435  19.811  0.00  0.00    +0.000 OA
ATOM     17  O   UNL     1       8.045   4.421  18.236  0.00  0.00    +0.000 OA
ENDBRANCH  14  15
ENDBRANCH   1  14
TORSDOF 7
ENDMDL
MODEL 4
REMARK VINA RESULT:      -6.6      0.779      1.143
REMARK  Name = 
REMARK  7 active torsions:
REMARK  status: ('A' for Active; 'I' for Inactive)
REMARK    1  A    between atoms: N_2  and  O_4
REMARK    2  A    between atoms: O_4  and  C_5
REMARK    3  A    between atoms: C_5  and  C_6
REMARK    4  A    between atoms: C_6  and  C_7
REMARK    5  A    between atoms: C_6  and  O_14
REMARK    6  A    between atoms: C_7  and  C_8
REMARK    7  A    between atoms: O_14  and  N_15
REMARK                            x       y       z     vdW  Elec       q    Type
REMARK                         _______ _______ _______ _____ _____    ______ ____
ROOT
ATOM      1  C   UNL     1       4.840   5.402  17.593  0.00  0.00    +0.000 C 
ENDROOT
BRANCH   1   2
ATOM      2  C   UNL     1       5.328   4.499  18.744  0.00  0.00    +0.000 C 
BRANCH   2   3
ATOM      3  O   UNL     1       6.364   5.178  19.457  0.00  0.00    +0.000 OA
BRANCH   3   5
ATOM      4  O   UNL     1       7.926   6.516  18.655  0.00  0.00    +0.000 OA
ATOM      5  N   UNL     1       7.534   5.351  18.676  0.00  0.00    +0.000 N 
ATOM      6  O   UNL     1       8.003   4.348  18.133  0.00  0.00    +0.000 OA
ENDBRANCH   3   5
ENDBRANCH   2   3
ENDBRANCH   1   2
BRANCH   1   7
ATOM      7  C   UNL     1       3.409   5.911  17.861  0.00  0.00    +0.000 C 
BRANCH   7   8
ATOM      8  C   UNL     1       2.467   4.964  18.550  0.00  0.00    +0.000 A 
ATOM      9  C   UNL     1       1.938   3.849  17.885  0.00  0.00    +0.000 A 
ATOM     10  C   UNL     1       1.124   2.945  18.567  0.00  0.00    +0.000 A 
ATOM     11  C   UNL     1       0.835   3.141  19.919  0.00  0.00    +0.000 A 
ATOM     12  C   UNL     1       1.355   4.246  20.587  0.00  0.00    +0.000 A 
ATOM     13  C   UNL     1       2.167   5.154  19.907  0.00  0.00    +0.000 A 
ENDBRANCH   7   8
ENDBRANCH   1   7
BRANCH   1  14
ATOM     14  O   UNL     1       4.801   4.571  16.418  0.00  0.00    +0.000 OA
BRANCH  14  15
ATOM     15  N   UNL     1       5.830   4.853  15.487  0.00  0.00    +0.000 N 
ATOM     16  O   UNL     1       6.271   6.001  15.468  0.00  0.00    +0.000 OA
ATOM     17  O   UNL     1       6.128   3.877  14.801  0.00  0.00    +0.000 OA
ENDBRANCH  14  15
ENDBRANCH   1  14
TORSDOF 7
ENDMDL
MODEL 5
REMARK VINA RESULT:      -6.6      1.372      3.408
REMARK  Name = 
REMARK  7 active torsions:
REMARK  status: ('A' for Active; 'I' for Inactive)
REMARK    1  A    between atoms: N_2  and  O_4
REMARK    2  A    between atoms: O_4  and  C_5
REMARK    3  A    between atoms: C_5  and  C_6
REMARK    4  A    between atoms: C_6  and  C_7
REMARK    5  A    between atoms: C_6  and  O_14
REMARK    6  A    between atoms: C_7  and  C_8
REMARK    7  A    between atoms: O_14  and  N_15
REMARK                            x       y       z     vdW  Elec       q    Type
REMARK                         _______ _______ _______ _____ _____    ______ ____
ROOT
ATOM      1  C   UNL     1       5.632   5.717  17.386  0.00  0.00    +0.000 C 
ENDROOT
BRANCH   1   2
ATOM      2  C   UNL     1       5.597   6.608  16.128  0.00  0.00    +0.000 C 
BRANCH   2   3
ATOM      3  O   UNL     1       5.490   5.772  14.973  0.00  0.00    +0.000 OA
BRANCH   3   5
ATOM      4  O   UNL     1       6.343   3.754  14.705  0.00  0.00    +0.000 OA
ATOM      5  N   UNL     1       6.628   4.946  14.795  0.00  0.00    +0.000 N 
ATOM      6  O   UNL     1       7.727   5.503  14.751  0.00  0.00    +0.000 OA
ENDBRANCH   3   5
ENDBRANCH   2   3
ENDBRANCH   1   2
BRANCH   1   7
ATOM      7  C   UNL     1       4.288   5.777  18.141  0.00  0.00    +0.000 C 
BRANCH   7   8
ATOM      8  C   UNL     1       3.433   4.541  18.109  0.00  0.00    +0.000 A 
ATOM      9  C   UNL     1       3.994   3.271  17.918  0.00  0.00    +0.000 A 
ATOM     10  C   UNL     1       3.189   2.133  17.965  0.00  0.00    +0.000 A 
ATOM     11  C   UNL     1       1.819   2.251  18.209  0.00  0.00    +0.000 A 
ATOM     12  C   UNL     1       1.253   3.509  18.399  0.00  0.00    +0.000 A 
ATOM     13  C   UNL     1       2.056   4.649  18.349  0.00  0.00    +0.000 A 
ENDBRANCH   7   8
ENDBRANCH   1   7
BRANCH   1  14
ATOM     14  O   UNL     1       6.647   6.272  18.244  0.00  0.00    +0.000 OA
BRANCH  14  15
ATOM     15  N   UNL     1       7.418   5.294  18.920  0.00  0.00    +0.000 N 
ATOM     16  O   UNL     1       7.517   5.403  20.141  0.00  0.00    +0.000 OA
ATOM     17  O   UNL     1       7.904   4.463  18.156  0.00  0.00    +0.000 OA
ENDBRANCH  14  15
ENDBRANCH   1  14
TORSDOF 7
ENDMDL
MODEL 6
REMARK VINA RESULT:      -6.6      0.735      1.607
REMARK  Name = 
REMARK  7 active torsions:
REMARK  status: ('A' for Active; 'I' for Inactive)
REMARK    1  A    between atoms: N_2  and  O_4
REMARK    2  A    between atoms: O_4  and  C_5
REMARK    3  A    between atoms: C_5  and  C_6
REMARK    4  A    between atoms: C_6  and  C_7
REMARK    5  A    between atoms: C_6  and  O_14
REMARK    6  A    between atoms: C_7  and  C_8
REMARK    7  A    between atoms: O_14  and  N_15
REMARK                            x       y       z     vdW  Elec       q    Type
REMARK                         _______ _______ _______ _____ _____    ______ ____
ROOT
ATOM      1  C   UNL     1       4.889   5.379  17.341  0.00  0.00    +0.000 C 
ENDROOT
BRANCH   1   2
ATOM      2  C   UNL     1       5.490   4.565  18.505  0.00  0.00    +0.000 C 
BRANCH   2   3
ATOM      3  O   UNL     1       6.914   4.554  18.375  0.00  0.00    +0.000 OA
BRANCH   3   5
ATOM      4  O   UNL     1       7.642   5.373  20.291  0.00  0.00    +0.000 OA
ATOM      5  N   UNL     1       7.531   5.611  19.090  0.00  0.00    +0.000 N 
ATOM      6  O   UNL     1       7.871   6.605  18.444  0.00  0.00    +0.000 OA
ENDBRANCH   3   5
ENDBRANCH   2   3
ENDBRANCH   1   2
BRANCH   1   7
ATOM      7  C   UNL     1       3.464   5.858  17.682  0.00  0.00    +0.000 C 
BRANCH   7   8
ATOM      8  C   UNL     1       2.605   4.924  18.487  0.00  0.00    +0.000 A 
ATOM      9  C   UNL     1       2.347   5.158  19.845  0.00  0.00    +0.000 A 
ATOM     10  C   UNL     1       1.489   4.316  20.553  0.00  0.00    +0.000 A 
ATOM     11  C   UNL     1       0.876   3.238  19.911  0.00  0.00    +0.000 A 
ATOM     12  C   UNL     1       1.127   2.998  18.563  0.00  0.00    +0.000 A 
ATOM     13  C   UNL     1       1.988   3.835  17.854  0.00  0.00    +0.000 A 
ENDBRANCH   7   8
ENDBRANCH   1   7
BRANCH   1  14
ATOM     14  O   UNL     1       4.797   4.474  16.224  0.00  0.00    +0.000 OA
BRANCH  14  15
ATOM     15  N   UNL     1       5.715   4.759  15.184  0.00  0.00    +0.000 N 
ATOM     16  O   UNL     1       5.991   3.842  14.411  0.00  0.00    +0.000 OA
ATOM     17  O   UNL     1       6.127   5.916  15.219  0.00  0.00    +0.000 OA
ENDBRANCH  14  15
ENDBRANCH   1  14
TORSDOF 7
ENDMDL
MODEL 7
REMARK VINA RESULT:      -6.6      1.232      1.654
REMARK  Name = 
REMARK  7 active torsions:
REMARK  status: ('A' for Active; 'I' for Inactive)
REMARK    1  A    between atoms: N_2  and  O_4
REMARK    2  A    between atoms: O_4  and  C_5
REMARK    3  A    between atoms: C_5  and  C_6
REMARK    4  A    between atoms: C_6  and  C_7
REMARK    5  A    between atoms: C_6  and  O_14
REMARK    6  A    between atoms: C_7  and  C_8
REMARK    7  A    between atoms: O_14  and  N_15
REMARK                            x       y       z     vdW  Elec       q    Type
REMARK                         _______ _______ _______ _____ _____    ______ ____
ROOT
ATOM      1  C   UNL     1       4.669   4.825  17.306  0.00  0.00    +0.000 C 
ENDROOT
BRANCH   1   2
ATOM      2  C   UNL     1       5.199   5.322  18.666  0.00  0.00    +0.000 C 
BRANCH   2   3
ATOM      3  O   UNL     1       6.427   4.649  18.957  0.00  0.00    +0.000 OA
BRANCH   3   5
ATOM      4  O   UNL     1       7.683   6.424  18.578  0.00  0.00    +0.000 OA
ATOM      5  N   UNL     1       7.440   5.538  19.395  0.00  0.00    +0.000 N 
ATOM      6  O   UNL     1       7.936   5.325  20.504  0.00  0.00    +0.000 OA
ENDBRANCH   3   5
ENDBRANCH   2   3
ENDBRANCH   1   2
BRANCH   1   7
ATOM      7  C   UNL     1       3.693   3.646  17.492  0.00  0.00    +0.000 C 
BRANCH   7   8
ATOM      8  C   UNL     1       2.944   3.581  18.794  0.00  0.00    +0.000 A 
ATOM      9  C   UNL     1       1.709   4.223  18.957  0.00  0.00    +0.000 A 
ATOM     10  C   UNL     1       0.998   4.089  20.150  0.00  0.00    +0.000 A 
ATOM     11  C   UNL     1       1.511   3.307  21.188  0.00  0.00    +0.000 A 
ATOM     12  C   UNL     1       2.737   2.666  21.035  0.00  0.00    +0.000 A 
ATOM     13  C   UNL     1       3.451   2.802  19.844  0.00  0.00    +0.000 A 
ENDBRANCH   7   8
ENDBRANCH   1   7
BRANCH   1  14
ATOM     14  O   UNL     1       5.815   4.341  16.580  0.00  0.00    +0.000 OA
BRANCH  14  15
ATOM     15  N   UNL     1       6.344   5.280  15.661  0.00  0.00    +0.000 N 
ATOM     16  O   UNL     1       5.569   6.121  15.208  0.00  0.00    +0.000 OA
ATOM     17  O   UNL     1       7.538   5.097  15.432  0.00  0.00    +0.000 OA
ENDBRANCH  14  15
ENDBRANCH   1  14
TORSDOF 7
ENDMDL
MODEL 8
REMARK VINA RESULT:      -6.6      1.642      3.611
REMARK  Name = 
REMARK  7 active torsions:
REMARK  status: ('A' for Active; 'I' for Inactive)
REMARK    1  A    between atoms: N_2  and  O_4
REMARK    2  A    between atoms: O_4  and  C_5
REMARK    3  A    between atoms: C_5  and  C_6
REMARK    4  A    between atoms: C_6  and  C_7
REMARK    5  A    between atoms: C_6  and  O_14
REMARK    6  A    between atoms: C_7  and  C_8
REMARK    7  A    between atoms: O_14  and  N_15
REMARK                            x       y       z     vdW  Elec       q    Type
REMARK                         _______ _______ _______ _____ _____    ______ ____
ROOT
ATOM      1  C   UNL     1       5.597   5.290  17.103  0.00  0.00    +0.000 C 
ENDROOT
BRANCH   1   2
ATOM      2  C   UNL     1       5.632   5.961  15.715  0.00  0.00    +0.000 C 
BRANCH   2   3
ATOM      3  O   UNL     1       5.466   4.955  14.712  0.00  0.00    +0.000 OA
BRANCH   3   5
ATOM      4  O   UNL     1       6.571   3.729  13.246  0.00  0.00    +0.000 OA
ATOM      5  N   UNL     1       6.669   4.684  14.013  0.00  0.00    +0.000 N 
ATOM      6  O   UNL     1       7.634   5.415  14.249  0.00  0.00    +0.000 OA
ENDBRANCH   3   5
ENDBRANCH   2   3
ENDBRANCH   1   2
BRANCH   1   7
ATOM      7  C   UNL     1       4.260   5.572  17.818  0.00  0.00    +0.000 C 
BRANCH   7   8
ATOM      8  C   UNL     1       3.364   4.393  18.077  0.00  0.00    +0.000 A 
ATOM      9  C   UNL     1       2.029   4.564  18.468  0.00  0.00    +0.000 A 
ATOM     10  C   UNL     1       1.198   3.456  18.632  0.00  0.00    +0.000 A 
ATOM     11  C   UNL     1       1.689   2.169  18.401  0.00  0.00    +0.000 A 
ATOM     12  C   UNL     1       3.013   1.990  18.012  0.00  0.00    +0.000 A 
ATOM     13  C   UNL     1       3.848   3.096  17.851  0.00  0.00    +0.000 A 
ENDBRANCH   7   8
ENDBRANCH   1   7
BRANCH   1  14
ATOM     14  O   UNL     1       6.648   5.905  17.872  0.00  0.00    +0.000 OA
BRANCH  14  15
ATOM     15  N   UNL     1       7.687   5.011  18.231  0.00  0.00    +0.000 N 
ATOM     16  O   UNL     1       8.077   4.228  17.366  0.00  0.00    +0.000 OA
ATOM     17  O   UNL     1       8.046   5.146  19.399  0.00  0.00    +0.000 OA
ENDBRANCH  14  15
ENDBRANCH   1  14
TORSDOF 7
ENDMDL
MODEL 9
REMARK VINA RESULT:      -6.6      1.253      3.366
REMARK  Name = 
REMARK  7 active torsions:
REMARK  status: ('A' for Active; 'I' for Inactive)
REMARK    1  A    between atoms: N_2  and  O_4
REMARK    2  A    between atoms: O_4  and  C_5
REMARK    3  A    between atoms: C_5  and  C_6
REMARK    4  A    between atoms: C_6  and  C_7
REMARK    5  A    between atoms: C_6  and  O_14
REMARK    6  A    between atoms: C_7  and  C_8
REMARK    7  A    between atoms: O_14  and  N_15
REMARK                            x       y       z     vdW  Elec       q    Type
REMARK                         _______ _______ _______ _____ _____    ______ ____
ROOT
ATOM      1  C   UNL     1       5.081   5.473  17.338  0.00  0.00    +0.000 C 
ENDROOT
BRANCH   1   2
ATOM      2  C   UNL     1       5.281   5.342  15.815  0.00  0.00    +0.000 C 
BRANCH   2   3
ATOM      3  O   UNL     1       6.639   5.661  15.498  0.00  0.00    +0.000 OA
BRANCH   3   5
ATOM      4  O   UNL     1       8.047   5.573  13.801  0.00  0.00    +0.000 OA
ATOM      5  N   UNL     1       7.085   5.012  14.320  0.00  0.00    +0.000 N 
ATOM      6  O   UNL     1       6.478   3.996  13.972  0.00  0.00    +0.000 OA
ENDBRANCH   3   5
ENDBRANCH   2   3
ENDBRANCH   1   2
BRANCH   1   7
ATOM      7  C   UNL     1       3.697   6.070  17.663  0.00  0.00    +0.000 C 
BRANCH   7   8
ATOM      8  C   UNL     1       2.778   5.238  18.514  0.00  0.00    +0.000 A 
ATOM      9  C   UNL     1       2.555   5.545  19.862  0.00  0.00    +0.000 A 
ATOM     10  C   UNL     1       1.642   4.802  20.612  0.00  0.00    +0.000 A 
ATOM     11  C   UNL     1       0.941   3.750  20.020  0.00  0.00    +0.000 A 
ATOM     12  C   UNL     1       1.157   3.437  18.681  0.00  0.00    +0.000 A 
ATOM     13  C   UNL     1       2.071   4.176  17.931  0.00  0.00    +0.000 A 
ENDBRANCH   7   8
ENDBRANCH   1   7
BRANCH   1  14
ATOM     14  O   UNL     1       6.082   6.400  17.797  0.00  0.00    +0.000 OA
BRANCH  14  15
ATOM     15  N   UNL     1       6.938   5.868  18.793  0.00  0.00    +0.000 N 
ATOM     16  O   UNL     1       8.055   6.371  18.902  0.00  0.00    +0.000 OA
ATOM     17  O   UNL     1       6.424   4.937  19.411  0.00  0.00    +0.000 OA
ENDBRANCH  14  15
ENDBRANCH   1  14
TORSDOF 7
ENDMDL
