MODEL 1
REMARK VINA RESULT:      -7.6      0.000      0.000
REMARK  Name = 
REMARK  6 active torsions:
REMARK  status: ('A' for Active; 'I' for Inactive)
REMARK    1  A    between atoms: C_1  and  C_2
REMARK    2  A    between atoms: C_3  and  C_4
REMARK    3  A    between atoms: C_4  and  O_6
REMARK    4  A    between atoms: N_12  and  C_13
REMARK    5  A    between atoms: C_13  and  C_14
REMARK    6  A    between atoms: N_22  and  C_23
REMARK                            x       y       z     vdW  Elec       q    Type
REMARK                         _______ _______ _______ _____ _____    ______ ____
ROOT
ATOM      1  C   UNL     1       4.619   2.351  19.971  0.00  0.00    +0.000 C 
ATOM      2  C   UNL     1       3.939   3.651  19.647  0.00  0.00    +0.000 A 
ATOM      3  C   UNL     1       2.728   4.093  20.196  0.00  0.00    +0.000 A 
ATOM      4  S   UNL     1       2.282   5.621  19.554  0.00  0.00    +0.000 S 
ATOM      5  C   UNL     1       3.623   5.677  18.538  0.00  0.00    +0.000 A 
ATOM      6  C   UNL     1       4.463   4.611  18.686  0.00  0.00    +0.000 A 
ATOM      7  C   UNL     1       5.676   4.573  17.882  0.00  0.00    +0.000 A 
ATOM      8  O   UNL     1       6.475   3.643  17.970  0.00  0.00    +0.000 OA
ATOM      9  N   UNL     1       5.826   5.644  16.990  0.00  0.00    +0.000 N 
ATOM     10  C   UNL     1       4.872   6.644  16.764  0.00  0.00    +0.000 A 
ATOM     11  O   UNL     1       4.969   7.426  15.814  0.00  0.00    +0.000 OA
ATOM     12  N   UNL     1       3.785   6.712  17.642  0.00  0.00    +0.000 N 
ATOM     13  C   UNL     1       2.835   7.809  17.488  0.00  0.00    +0.000 C 
ENDROOT
BRANCH   3  14
ATOM     14  C   UNL     1       1.859   3.444  21.174  0.00  0.00    +0.000 C 
ATOM     15  O   UNL     1       2.152   3.149  22.325  0.00  0.00    +0.000 OA
BRANCH  14  16
ATOM     16  O   UNL     1       0.617   3.164  20.683  0.00  0.00    +0.000 OA
ATOM     17  H   UNL     1      -0.087   3.587  21.213  0.00  0.00    +0.000 HD
ENDBRANCH  14  16
ENDBRANCH   3  14
BRANCH   9  18
ATOM     18  C   UNL     1       6.973   5.617  16.090  0.00  0.00    +0.000 C 
BRANCH  18  19
ATOM     19  C   UNL     1       6.705   5.021  14.721  0.00  0.00    +0.000 A 
ATOM     20  C   UNL     1       7.605   5.233  13.666  0.00  0.00    +0.000 A 
ATOM     21  C   UNL     1       7.454   4.561  12.449  0.00  0.00    +0.000 A 
ATOM     22  C   UNL     1       6.391   3.680  12.265  0.00  0.00    +0.000 A 
ATOM     23  C   UNL     1       5.459   3.495  13.284  0.00  0.00    +0.000 A 
ATOM     24  C   UNL     1       5.609   4.168  14.502  0.00  0.00    +0.000 A 
ENDBRANCH  18  19
ENDBRANCH   9  18
TORSDOF 4
ENDMDL
MODEL 2
REMARK VINA RESULT:      -7.5      0.088      1.009
REMARK  Name = 
REMARK  6 active torsions:
REMARK  status: ('A' for Active; 'I' for Inactive)
REMARK    1  A    between atoms: C_1  and  C_2
REMARK    2  A    between atoms: C_3  and  C_4
REMARK    3  A    between atoms: C_4  and  O_6
REMARK    4  A    between atoms: N_12  and  C_13
REMARK    5  A    between atoms: C_13  and  C_14
REMARK    6  A    between atoms: N_22  and  C_23
REMARK                            x       y       z     vdW  Elec       q    Type
REMARK                         _______ _______ _______ _____ _____    ______ ____
ROOT
ATOM      1  C   UNL     1       4.623   2.378  20.018  0.00  0.00    +0.000 C 
ATOM      2  C   UNL     1       3.930   3.666  19.678  0.00  0.00    +0.000 A 
ATOM      3  C   UNL     1       2.707   4.097  20.210  0.00  0.00    +0.000 A 
ATOM      4  S   UNL     1       2.249   5.615  19.552  0.00  0.00    +0.000 S 
ATOM      5  C   UNL     1       3.601   5.680  18.551  0.00  0.00    +0.000 A 
ATOM      6  C   UNL     1       4.453   4.626  18.716  0.00  0.00    +0.000 A 
ATOM      7  C   UNL     1       5.675   4.598  17.925  0.00  0.00    +0.000 A 
ATOM      8  O   UNL     1       6.485   3.679  18.029  0.00  0.00    +0.000 OA
ATOM      9  N   UNL     1       5.821   5.665  17.027  0.00  0.00    +0.000 N 
ATOM     10  C   UNL     1       4.857   6.651  16.783  0.00  0.00    +0.000 A 
ATOM     11  O   UNL     1       4.955   7.427  15.829  0.00  0.00    +0.000 OA
ATOM     12  N   UNL     1       3.760   6.711  17.649  0.00  0.00    +0.000 N 
ATOM     13  C   UNL     1       2.797   7.795  17.476  0.00  0.00    +0.000 C 
ENDROOT
BRANCH   3  14
ATOM     14  C   UNL     1       1.836   3.444  21.183  0.00  0.00    +0.000 C 
ATOM     15  O   UNL     1       2.124   3.149  22.335  0.00  0.00    +0.000 OA
BRANCH  14  16
ATOM     16  O   UNL     1       0.597   3.160  20.685  0.00  0.00    +0.000 OA
ATOM     17  H   UNL     1       0.507   2.215  20.455  0.00  0.00    +0.000 HD
ENDBRANCH  14  16
ENDBRANCH   3  14
BRANCH   9  18
ATOM     18  C   UNL     1       6.978   5.646  16.140  0.00  0.00    +0.000 C 
BRANCH  18  19
ATOM     19  C   UNL     1       6.773   4.915  14.826  0.00  0.00    +0.000 A 
ATOM     20  C   UNL     1       5.633   4.122  14.625  0.00  0.00    +0.000 A 
ATOM     21  C   UNL     1       5.354   3.575  13.369  0.00  0.00    +0.000 A 
ATOM     22  C   UNL     1       6.219   3.800  12.301  0.00  0.00    +0.000 A 
ATOM     23  C   UNL     1       7.382   4.543  12.495  0.00  0.00    +0.000 A 
ATOM     24  C   UNL     1       7.662   5.091  13.752  0.00  0.00    +0.000 A 
ENDBRANCH  18  19
ENDBRANCH   9  18
TORSDOF 4
ENDMDL
MODEL 3
REMARK VINA RESULT:      -7.0      1.080      1.136
REMARK  Name = 
REMARK  6 active torsions:
REMARK  status: ('A' for Active; 'I' for Inactive)
REMARK    1  A    between atoms: C_1  and  C_2
REMARK    2  A    between atoms: C_3  and  C_4
REMARK    3  A    between atoms: C_4  and  O_6
REMARK    4  A    between atoms: N_12  and  C_13
REMARK    5  A    between atoms: C_13  and  C_14
REMARK    6  A    between atoms: N_22  and  C_23
REMARK                            x       y       z     vdW  Elec       q    Type
REMARK                         _______ _______ _______ _____ _____    ______ ____
ROOT
ATOM      1  C   UNL     1       3.472   1.570  18.389  0.00  0.00    +0.000 C 
ATOM      2  C   UNL     1       3.164   3.037  18.479  0.00  0.00    +0.000 A 
ATOM      3  C   UNL     1       2.094   3.601  19.187  0.00  0.00    +0.000 A 
ATOM      4  S   UNL     1       2.081   5.310  19.026  0.00  0.00    +0.000 S 
ATOM      5  C   UNL     1       3.420   5.305  18.006  0.00  0.00    +0.000 A 
ATOM      6  C   UNL     1       3.949   4.062  17.806  0.00  0.00    +0.000 A 
ATOM      7  C   UNL     1       5.133   3.944  16.968  0.00  0.00    +0.000 A 
ATOM      8  O   UNL     1       5.659   2.855  16.751  0.00  0.00    +0.000 OA
ATOM      9  N   UNL     1       5.584   5.149  16.411  0.00  0.00    +0.000 N 
ATOM     10  C   UNL     1       4.930   6.383  16.522  0.00  0.00    +0.000 A 
ATOM     11  O   UNL     1       5.257   7.351  15.829  0.00  0.00    +0.000 OA
ATOM     12  N   UNL     1       3.873   6.475  17.434  0.00  0.00    +0.000 N 
ATOM     13  C   UNL     1       3.247   7.777  17.642  0.00  0.00    +0.000 C 
ENDROOT
BRANCH   3  14
ATOM     14  C   UNL     1       1.058   2.947  19.981  0.00  0.00    +0.000 C 
ATOM     15  O   UNL     1       1.050   2.810  21.197  0.00  0.00    +0.000 OA
BRANCH  14  16
ATOM     16  O   UNL     1       0.031   2.461  19.224  0.00  0.00    +0.000 OA
ATOM     17  H   UNL     1       0.244   2.478  18.270  0.00  0.00    +0.000 HD
ENDBRANCH  14  16
ENDBRANCH   3  14
BRANCH   9  18
ATOM     18  C   UNL     1       6.710   5.085  15.487  0.00  0.00    +0.000 C 
BRANCH  18  19
ATOM     19  C   UNL     1       6.378   4.570  14.099  0.00  0.00    +0.000 A 
ATOM     20  C   UNL     1       7.373   4.496  13.112  0.00  0.00    +0.000 A 
ATOM     21  C   UNL     1       7.120   3.876  11.885  0.00  0.00    +0.000 A 
ATOM     22  C   UNL     1       5.864   3.336  11.620  0.00  0.00    +0.000 A 
ATOM     23  C   UNL     1       4.848   3.446  12.569  0.00  0.00    +0.000 A 
ATOM     24  C   UNL     1       5.101   4.066  13.798  0.00  0.00    +0.000 A 
ENDBRANCH  18  19
ENDBRANCH   9  18
TORSDOF 4
ENDMDL
MODEL 4
REMARK VINA RESULT:      -6.7      1.063      1.493
REMARK  Name = 
REMARK  6 active torsions:
REMARK  status: ('A' for Active; 'I' for Inactive)
REMARK    1  A    between atoms: C_1  and  C_2
REMARK    2  A    between atoms: C_3  and  C_4
REMARK    3  A    between atoms: C_4  and  O_6
REMARK    4  A    between atoms: N_12  and  C_13
REMARK    5  A    between atoms: C_13  and  C_14
REMARK    6  A    between atoms: N_22  and  C_23
REMARK                            x       y       z     vdW  Elec       q    Type
REMARK                         _______ _______ _______ _____ _____    ______ ____
ROOT
ATOM      1  C   UNL     1       3.526   1.582  18.433  0.00  0.00    +0.000 C 
ATOM      2  C   UNL     1       3.210   3.049  18.510  0.00  0.00    +0.000 A 
ATOM      3  C   UNL     1       2.149   3.615  19.229  0.00  0.00    +0.000 A 
ATOM      4  S   UNL     1       2.122   5.322  19.046  0.00  0.00    +0.000 S 
ATOM      5  C   UNL     1       3.442   5.312  18.002  0.00  0.00    +0.000 A 
ATOM      6  C   UNL     1       3.975   4.070  17.809  0.00  0.00    +0.000 A 
ATOM      7  C   UNL     1       5.145   3.949  16.952  0.00  0.00    +0.000 A 
ATOM      8  O   UNL     1       5.675   2.860  16.740  0.00  0.00    +0.000 OA
ATOM      9  N   UNL     1       5.578   5.149  16.370  0.00  0.00    +0.000 N 
ATOM     10  C   UNL     1       4.918   6.380  16.478  0.00  0.00    +0.000 A 
ATOM     11  O   UNL     1       5.225   7.341  15.766  0.00  0.00    +0.000 OA
ATOM     12  N   UNL     1       3.877   6.478  17.406  0.00  0.00    +0.000 N 
ATOM     13  C   UNL     1       3.246   7.777  17.609  0.00  0.00    +0.000 C 
ENDROOT
BRANCH   3  14
ATOM     14  C   UNL     1       1.131   2.965  20.050  0.00  0.00    +0.000 C 
ATOM     15  O   UNL     1       1.181   2.778  21.258  0.00  0.00    +0.000 OA
BRANCH  14  16
ATOM     16  O   UNL     1       0.050   2.547  19.329  0.00  0.00    +0.000 OA
ATOM     17  H   UNL     1       0.313   2.168  18.468  0.00  0.00    +0.000 HD
ENDBRANCH  14  16
ENDBRANCH   3  14
BRANCH   9  18
ATOM     18  C   UNL     1       6.687   5.080  15.427  0.00  0.00    +0.000 C 
BRANCH  18  19
ATOM     19  C   UNL     1       6.375   4.392  14.111  0.00  0.00    +0.000 A 
ATOM     20  C   UNL     1       5.075   3.943  13.835  0.00  0.00    +0.000 A 
ATOM     21  C   UNL     1       4.741   3.454  12.569  0.00  0.00    +0.000 A 
ATOM     22  C   UNL     1       5.704   3.394  11.565  0.00  0.00    +0.000 A 
ATOM     23  C   UNL     1       7.013   3.789  11.837  0.00  0.00    +0.000 A 
ATOM     24  C   UNL     1       7.350   4.277  13.105  0.00  0.00    +0.000 A 
ENDBRANCH  18  19
ENDBRANCH   9  18
TORSDOF 4
ENDMDL
MODEL 5
REMARK VINA RESULT:      -6.5      6.946      9.479
REMARK  Name = 
REMARK  6 active torsions:
REMARK  status: ('A' for Active; 'I' for Inactive)
REMARK    1  A    between atoms: C_1  and  C_2
REMARK    2  A    between atoms: C_3  and  C_4
REMARK    3  A    between atoms: C_4  and  O_6
REMARK    4  A    between atoms: N_12  and  C_13
REMARK    5  A    between atoms: C_13  and  C_14
REMARK    6  A    between atoms: N_22  and  C_23
REMARK                            x       y       z     vdW  Elec       q    Type
REMARK                         _______ _______ _______ _____ _____    ______ ____
ROOT
ATOM      1  C   UNL     1      -4.026  10.761  17.081  0.00  0.00    +0.000 C 
ATOM      2  C   UNL     1      -3.587  11.447  18.343  0.00  0.00    +0.000 A 
ATOM      3  C   UNL     1      -4.405  12.223  19.174  0.00  0.00    +0.000 A 
ATOM      4  S   UNL     1      -3.518  12.845  20.506  0.00  0.00    +0.000 S 
ATOM      5  C   UNL     1      -2.078  12.154  19.974  0.00  0.00    +0.000 A 
ATOM      6  C   UNL     1      -2.220  11.400  18.844  0.00  0.00    +0.000 A 
ATOM      7  C   UNL     1      -1.044  10.725  18.314  0.00  0.00    +0.000 A 
ATOM      8  O   UNL     1      -1.105  10.029  17.303  0.00  0.00    +0.000 OA
ATOM      9  N   UNL     1       0.143  10.967  19.020  0.00  0.00    +0.000 N 
ATOM     10  C   UNL     1       0.276  11.862  20.090  0.00  0.00    +0.000 A 
ATOM     11  O   UNL     1       1.385  12.192  20.519  0.00  0.00    +0.000 OA
ATOM     12  N   UNL     1      -0.895  12.389  20.642  0.00  0.00    +0.000 N 
ATOM     13  C   UNL     1      -0.785  13.241  21.822  0.00  0.00    +0.000 C 
ENDROOT
BRANCH   3  14
ATOM     14  C   UNL     1      -5.823  12.548  19.041  0.00  0.00    +0.000 C 
ATOM     15  O   UNL     1      -6.758  11.948  19.554  0.00  0.00    +0.000 OA
BRANCH  14  16
ATOM     16  O   UNL     1      -6.050  13.635  18.248  0.00  0.00    +0.000 OA
ATOM     17  H   UNL     1      -5.342  13.756  17.586  0.00  0.00    +0.000 HD
ENDBRANCH  14  16
ENDBRANCH   3  14
BRANCH   9  18
ATOM     18  C   UNL     1       1.373  10.396  18.486  0.00  0.00    +0.000 C 
BRANCH  18  19
ATOM     19  C   UNL     1       1.631   8.949  18.863  0.00  0.00    +0.000 A 
ATOM     20  C   UNL     1       2.147   8.050  17.918  0.00  0.00    +0.000 A 
ATOM     21  C   UNL     1       2.538   6.761  18.295  0.00  0.00    +0.000 A 
ATOM     22  C   UNL     1       2.403   6.348  19.618  0.00  0.00    +0.000 A 
ATOM     23  C   UNL     1       1.845   7.211  20.560  0.00  0.00    +0.000 A 
ATOM     24  C   UNL     1       1.453   8.501  20.184  0.00  0.00    +0.000 A 
ENDBRANCH  18  19
ENDBRANCH   9  18
TORSDOF 4
ENDMDL
MODEL 6
REMARK VINA RESULT:      -6.4      6.877      9.450
REMARK  Name = 
REMARK  6 active torsions:
REMARK  status: ('A' for Active; 'I' for Inactive)
REMARK    1  A    between atoms: C_1  and  C_2
REMARK    2  A    between atoms: C_3  and  C_4
REMARK    3  A    between atoms: C_4  and  O_6
REMARK    4  A    between atoms: N_12  and  C_13
REMARK    5  A    between atoms: C_13  and  C_14
REMARK    6  A    between atoms: N_22  and  C_23
REMARK                            x       y       z     vdW  Elec       q    Type
REMARK                         _______ _______ _______ _____ _____    ______ ____
ROOT
ATOM      1  C   UNL     1      -4.074  10.736  17.264  0.00  0.00    +0.000 C 
ATOM      2  C   UNL     1      -3.526  11.451  18.465  0.00  0.00    +0.000 A 
ATOM      3  C   UNL     1      -4.260  12.282  19.322  0.00  0.00    +0.000 A 
ATOM      4  S   UNL     1      -3.264  12.922  20.564  0.00  0.00    +0.000 S 
ATOM      5  C   UNL     1      -1.885  12.168  19.959  0.00  0.00    +0.000 A 
ATOM      6  C   UNL     1      -2.129  11.380  18.871  0.00  0.00    +0.000 A 
ATOM      7  C   UNL     1      -1.014  10.651  18.286  0.00  0.00    +0.000 A 
ATOM      8  O   UNL     1      -1.166   9.922  17.308  0.00  0.00    +0.000 OA
ATOM      9  N   UNL     1       0.227  10.881  18.897  0.00  0.00    +0.000 N 
ATOM     10  C   UNL     1       0.462  11.808  19.920  0.00  0.00    +0.000 A 
ATOM     11  O   UNL     1       1.608  12.119  20.258  0.00  0.00    +0.000 OA
ATOM     12  N   UNL     1      -0.651  12.391  20.533  0.00  0.00    +0.000 N 
ATOM     13  C   UNL     1      -0.433  13.280  21.670  0.00  0.00    +0.000 C 
ENDROOT
BRANCH   3  14
ATOM     14  C   UNL     1      -5.674  12.645  19.277  0.00  0.00    +0.000 C 
ATOM     15  O   UNL     1      -6.593  12.066  19.840  0.00  0.00    +0.000 OA
BRANCH  14  16
ATOM     16  O   UNL     1      -5.918  13.746  18.508  0.00  0.00    +0.000 OA
ATOM     17  H   UNL     1      -5.145  14.342  18.471  0.00  0.00    +0.000 HD
ENDBRANCH  14  16
ENDBRANCH   3  14
BRANCH   9  18
ATOM     18  C   UNL     1       1.399  10.253  18.300  0.00  0.00    +0.000 C 
BRANCH  18  19
ATOM     19  C   UNL     1       1.771   8.898  18.874  0.00  0.00    +0.000 A 
ATOM     20  C   UNL     1       1.416   8.563  20.189  0.00  0.00    +0.000 A 
ATOM     21  C   UNL     1       1.609   7.266  20.674  0.00  0.00    +0.000 A 
ATOM     22  C   UNL     1       2.175   6.291  19.857  0.00  0.00    +0.000 A 
ATOM     23  C   UNL     1       2.580   6.619  18.564  0.00  0.00    +0.000 A 
ATOM     24  C   UNL     1       2.387   7.918  18.078  0.00  0.00    +0.000 A 
ENDBRANCH  18  19
ENDBRANCH   9  18
TORSDOF 4
ENDMDL
MODEL 7
REMARK VINA RESULT:      -6.3      7.825     10.432
REMARK  Name = 
REMARK  6 active torsions:
REMARK  status: ('A' for Active; 'I' for Inactive)
REMARK    1  A    between atoms: C_1  and  C_2
REMARK    2  A    between atoms: C_3  and  C_4
REMARK    3  A    between atoms: C_4  and  O_6
REMARK    4  A    between atoms: N_12  and  C_13
REMARK    5  A    between atoms: C_13  and  C_14
REMARK    6  A    between atoms: N_22  and  C_23
REMARK                            x       y       z     vdW  Elec       q    Type
REMARK                         _______ _______ _______ _____ _____    ______ ____
ROOT
ATOM      1  C   UNL     1      -4.678  11.387  16.923  0.00  0.00    +0.000 C 
ATOM      2  C   UNL     1      -4.490  11.877  18.330  0.00  0.00    +0.000 A 
ATOM      3  C   UNL     1      -5.509  12.346  19.171  0.00  0.00    +0.000 A 
ATOM      4  S   UNL     1      -4.880  12.829  20.692  0.00  0.00    +0.000 S 
ATOM      5  C   UNL     1      -3.296  12.481  20.239  0.00  0.00    +0.000 A 
ATOM      6  C   UNL     1      -3.193  11.945  18.988  0.00  0.00    +0.000 A 
ATOM      7  C   UNL     1      -1.871  11.572  18.505  0.00  0.00    +0.000 A 
ATOM      8  O   UNL     1      -1.711  11.081  17.390  0.00  0.00    +0.000 OA
ATOM      9  N   UNL     1      -0.820  11.853  19.389  0.00  0.00    +0.000 N 
ATOM     10  C   UNL     1      -0.949  12.536  20.605  0.00  0.00    +0.000 A 
ATOM     11  O   UNL     1       0.037  12.944  21.224  0.00  0.00    +0.000 OA
ATOM     12  N   UNL     1      -2.243  12.763  21.085  0.00  0.00    +0.000 N 
ATOM     13  C   UNL     1      -2.399  13.379  22.398  0.00  0.00    +0.000 C 
ENDROOT
BRANCH   3  14
ATOM     14  C   UNL     1      -6.942  12.470  18.915  0.00  0.00    +0.000 C 
ATOM     15  O   UNL     1      -7.518  13.449  18.460  0.00  0.00    +0.000 OA
BRANCH  14  16
ATOM     16  O   UNL     1      -7.642  11.346  19.245  0.00  0.00    +0.000 OA
ATOM     17  H   UNL     1      -7.257  10.894  20.021  0.00  0.00    +0.000 HD
ENDBRANCH  14  16
ENDBRANCH   3  14
BRANCH   9  18
ATOM     18  C   UNL     1       0.538  11.589  18.927  0.00  0.00    +0.000 C 
BRANCH  18  19
ATOM     19  C   UNL     1       0.997  10.149  19.059  0.00  0.00    +0.000 A 
ATOM     20  C   UNL     1       1.627   9.503  17.985  0.00  0.00    +0.000 A 
ATOM     21  C   UNL     1       2.196   8.236  18.145  0.00  0.00    +0.000 A 
ATOM     22  C   UNL     1       2.129   7.590  19.377  0.00  0.00    +0.000 A 
ATOM     23  C   UNL     1       1.463   8.195  20.442  0.00  0.00    +0.000 A 
ATOM     24  C   UNL     1       0.893   9.464  20.282  0.00  0.00    +0.000 A 
ENDBRANCH  18  19
ENDBRANCH   9  18
TORSDOF 4
ENDMDL
MODEL 8
REMARK VINA RESULT:      -6.3      7.145      9.780
REMARK  Name = 
REMARK  6 active torsions:
REMARK  status: ('A' for Active; 'I' for Inactive)
REMARK    1  A    between atoms: C_1  and  C_2
REMARK    2  A    between atoms: C_3  and  C_4
REMARK    3  A    between atoms: C_4  and  O_6
REMARK    4  A    between atoms: N_12  and  C_13
REMARK    5  A    between atoms: C_13  and  C_14
REMARK    6  A    between atoms: N_22  and  C_23
REMARK                            x       y       z     vdW  Elec       q    Type
REMARK                         _______ _______ _______ _____ _____    ______ ____
ROOT
ATOM      1  C   UNL     1      -4.157  10.058  16.538  0.00  0.00    +0.000 C 
ATOM      2  C   UNL     1      -4.030  10.884  17.786  0.00  0.00    +0.000 A 
ATOM      3  C   UNL     1      -5.088  11.512  18.456  0.00  0.00    +0.000 A 
ATOM      4  S   UNL     1      -4.524  12.374  19.829  0.00  0.00    +0.000 S 
ATOM      5  C   UNL     1      -2.918  11.976  19.520  0.00  0.00    +0.000 A 
ATOM      6  C   UNL     1      -2.758  11.152  18.442  0.00  0.00    +0.000 A 
ATOM      7  C   UNL     1      -1.412  10.714  18.104  0.00  0.00    +0.000 A 
ATOM      8  O   UNL     1      -1.201   9.970  17.148  0.00  0.00    +0.000 OA
ATOM      9  N   UNL     1      -0.399  11.237  18.920  0.00  0.00    +0.000 N 
ATOM     10  C   UNL     1      -0.587  12.193  19.926  0.00  0.00    +0.000 A 
ATOM     11  O   UNL     1       0.367  12.771  20.453  0.00  0.00    +0.000 OA
ATOM     12  N   UNL     1      -1.902  12.489  20.299  0.00  0.00    +0.000 N 
ATOM     13  C   UNL     1      -2.118  13.404  21.415  0.00  0.00    +0.000 C 
ENDROOT
BRANCH   3  14
ATOM     14  C   UNL     1      -6.514  11.524  18.138  0.00  0.00    +0.000 C 
ATOM     15  O   UNL     1      -7.122  12.411  17.555  0.00  0.00    +0.000 OA
BRANCH  14  16
ATOM     16  O   UNL     1      -7.166  10.406  18.569  0.00  0.00    +0.000 OA
ATOM     17  H   UNL     1      -6.838  10.107  19.439  0.00  0.00    +0.000 HD
ENDBRANCH  14  16
ENDBRANCH   3  14
BRANCH   9  18
ATOM     18  C   UNL     1       0.980  10.911  18.575  0.00  0.00    +0.000 C 
BRANCH  18  19
ATOM     19  C   UNL     1       1.463   9.555  19.057  0.00  0.00    +0.000 A 
ATOM     20  C   UNL     1       1.158   9.111  20.352  0.00  0.00    +0.000 A 
ATOM     21  C   UNL     1       1.458   7.805  20.750  0.00  0.00    +0.000 A 
ATOM     22  C   UNL     1       2.083   6.930  19.865  0.00  0.00    +0.000 A 
ATOM     23  C   UNL     1       2.439   7.370  18.591  0.00  0.00    +0.000 A 
ATOM     24  C   UNL     1       2.139   8.678  18.192  0.00  0.00    +0.000 A 
ENDBRANCH  18  19
ENDBRANCH   9  18
TORSDOF 4
ENDMDL
MODEL 9
REMARK VINA RESULT:      -6.2      9.098     11.555
REMARK  Name = 
REMARK  6 active torsions:
REMARK  status: ('A' for Active; 'I' for Inactive)
REMARK    1  A    between atoms: C_1  and  C_2
REMARK    2  A    between atoms: C_3  and  C_4
REMARK    3  A    between atoms: C_4  and  O_6
REMARK    4  A    between atoms: N_12  and  C_13
REMARK    5  A    between atoms: C_13  and  C_14
REMARK    6  A    between atoms: N_22  and  C_23
REMARK                            x       y       z     vdW  Elec       q    Type
REMARK                         _______ _______ _______ _____ _____    ______ ____
ROOT
ATOM      1  C   UNL     1      -3.895  13.192  24.567  0.00  0.00    +0.000 C 
ATOM      2  C   UNL     1      -4.501  13.006  23.206  0.00  0.00    +0.000 A 
ATOM      3  C   UNL     1      -5.874  12.988  22.922  0.00  0.00    +0.000 A 
ATOM      4  S   UNL     1      -6.154  12.735  21.248  0.00  0.00    +0.000 S 
ATOM      5  C   UNL     1      -4.510  12.597  20.910  0.00  0.00    +0.000 A 
ATOM      6  C   UNL     1      -3.712  12.795  22.000  0.00  0.00    +0.000 A 
ATOM      7  C   UNL     1      -2.269  12.735  21.817  0.00  0.00    +0.000 A 
ATOM      8  O   UNL     1      -1.496  12.907  22.757  0.00  0.00    +0.000 OA
ATOM      9  N   UNL     1      -1.852  12.429  20.514  0.00  0.00    +0.000 N 
ATOM     10  C   UNL     1      -2.704  12.091  19.454  0.00  0.00    +0.000 A 
ATOM     11  O   UNL     1      -2.266  11.620  18.400  0.00  0.00    +0.000 OA
ATOM     12  N   UNL     1      -4.076  12.283  19.640  0.00  0.00    +0.000 N 
ATOM     13  C   UNL     1      -4.971  12.035  18.514  0.00  0.00    +0.000 C 
ENDROOT
BRANCH   3  14
ATOM     14  C   UNL     1      -7.011  13.142  23.825  0.00  0.00    +0.000 C 
ATOM     15  O   UNL     1      -7.916  12.336  23.999  0.00  0.00    +0.000 OA
BRANCH  14  16
ATOM     16  O   UNL     1      -7.000  14.326  24.503  0.00  0.00    +0.000 OA
ATOM     17  H   UNL     1      -6.157  14.465  24.977  0.00  0.00    +0.000 HD
ENDBRANCH  14  16
ENDBRANCH   3  14
BRANCH   9  18
ATOM     18  C   UNL     1      -0.423  12.262  20.285  0.00  0.00    +0.000 C 
BRANCH  18  19
ATOM     19  C   UNL     1       0.082  10.834  20.365  0.00  0.00    +0.000 A 
ATOM     20  C   UNL     1       0.776  10.264  19.287  0.00  0.00    +0.000 A 
ATOM     21  C   UNL     1       1.383   9.010  19.409  0.00  0.00    +0.000 A 
ATOM     22  C   UNL     1       1.292   8.302  20.604  0.00  0.00    +0.000 A 
ATOM     23  C   UNL     1       0.564   8.830  21.669  0.00  0.00    +0.000 A 
ATOM     24  C   UNL     1      -0.045  10.085  21.548  0.00  0.00    +0.000 A 
ENDBRANCH  18  19
ENDBRANCH   9  18
TORSDOF 4
ENDMDL
