MODEL 1
REMARK VINA RESULT:      -7.9      0.000      0.000
REMARK  Name = 
REMARK  9 active torsions:
REMARK  status: ('A' for Active; 'I' for Inactive)
REMARK    1  A    between atoms: C_1  and  N_2
REMARK    2  A    between atoms: N_2  and  C_3
REMARK    3  A    between atoms: N_2  and  C_4
REMARK    4  A    between atoms: C_7  and  C_8
REMARK    5  A    between atoms: C_9  and  S_10
REMARK    6  A    between atoms: C_9  and  C_19
REMARK    7  A    between atoms: S_10  and  C_11
REMARK    8  A    between atoms: C_11  and  C_12
REMARK    9  A    between atoms: C_19  and  C_21
REMARK                            x       y       z     vdW  Elec       q    Type
REMARK                         _______ _______ _______ _____ _____    ______ ____
ROOT
ATOM      1  C   UNL     1       5.820   6.496  18.578  0.00  0.00    +0.000 C 
ATOM      2  C   UNL     1       6.907   6.429  17.770  0.00  0.00    +0.000 C 
ENDROOT
BRANCH   1   6
ATOM      3  C   UNL     1       2.803   3.506  19.340  0.00  0.00    +0.000 A 
ATOM      4  C   UNL     1       2.496   4.722  18.711  0.00  0.00    +0.000 A 
ATOM      5  C   UNL     1       3.461   5.712  18.477  0.00  0.00    +0.000 A 
ATOM      6  C   UNL     1       4.788   5.491  18.828  0.00  0.00    +0.000 A 
ATOM      7  C   UNL     1       5.144   4.243  19.342  0.00  0.00    +0.000 A 
ATOM      8  C   UNL     1       4.164   3.275  19.610  0.00  0.00    +0.000 A 
BRANCH   3  10
ATOM      9  C   UNL     1       0.770   2.276  18.702  0.00  0.00    +0.000 C 
ATOM     10  N   UNL     1       1.820   2.558  19.680  0.00  0.00    +0.000 N 
ATOM     11  C   UNL     1       1.379   2.602  21.077  0.00  0.00    +0.000 C 
ENDBRANCH   3  10
ENDBRANCH   1   6
BRANCH   2  12
ATOM     12  C   UNL     1       7.309   5.140  17.020  0.00  0.00    +0.000 C 
ATOM     13  O   UNL     1       8.105   4.334  17.486  0.00  0.00    +0.000 OA
BRANCH  12  14
ATOM     14  C   UNL     1       6.681   4.794  15.695  0.00  0.00    +0.000 A 
ATOM     15  C   UNL     1       5.412   4.222  15.576  0.00  0.00    +0.000 A 
ATOM     16  C   UNL     1       4.978   3.685  14.362  0.00  0.00    +0.000 A 
ATOM     17  C   UNL     1       5.764   3.834  13.224  0.00  0.00    +0.000 A 
ATOM     18 CL   UNL     1       5.256   3.124  11.744  0.00  0.00    +0.000 Cl
ATOM     19  C   UNL     1       6.958   4.551  13.291  0.00  0.00    +0.000 A 
ATOM     20  C   UNL     1       7.420   5.028  14.525  0.00  0.00    +0.000 A 
ENDBRANCH  12  14
ENDBRANCH   2  12
BRANCH   2  21
ATOM     21  S   UNL     1       7.735   7.928  17.393  0.00  0.00    +0.000 S 
BRANCH  21  22
ATOM     22  C   UNL     1       8.702   8.373  18.860  0.00  0.00    +0.000 C 
BRANCH  22  23
ATOM     23  C   UNL     1       8.952   9.867  18.862  0.00  0.00    +0.000 A 
ATOM     24  C   UNL     1       9.456  10.490  20.018  0.00  0.00    +0.000 A 
ATOM     25  C   UNL     1       9.616  11.874  20.073  0.00  0.00    +0.000 A 
ATOM     26  C   UNL     1       9.274  12.653  18.969  0.00  0.00    +0.000 A 
ATOM     27 CL   UNL     1       9.447  14.364  19.046  0.00  0.00    +0.000 Cl
ATOM     28  C   UNL     1       8.778  12.057  17.813  0.00  0.00    +0.000 A 
ATOM     29  C   UNL     1       8.617  10.665  17.754  0.00  0.00    +0.000 A 
ENDBRANCH  22  23
ENDBRANCH  21  22
ENDBRANCH   2  21
TORSDOF 7
ENDMDL
MODEL 2
REMARK VINA RESULT:      -7.7      0.676      1.528
REMARK  Name = 
REMARK  9 active torsions:
REMARK  status: ('A' for Active; 'I' for Inactive)
REMARK    1  A    between atoms: C_1  and  N_2
REMARK    2  A    between atoms: N_2  and  C_3
REMARK    3  A    between atoms: N_2  and  C_4
REMARK    4  A    between atoms: C_7  and  C_8
REMARK    5  A    between atoms: C_9  and  S_10
REMARK    6  A    between atoms: C_9  and  C_19
REMARK    7  A    between atoms: S_10  and  C_11
REMARK    8  A    between atoms: C_11  and  C_12
REMARK    9  A    between atoms: C_19  and  C_21
REMARK                            x       y       z     vdW  Elec       q    Type
REMARK                         _______ _______ _______ _____ _____    ______ ____
ROOT
ATOM      1  C   UNL     1       5.591   6.861  18.348  0.00  0.00    +0.000 C 
ATOM      2  C   UNL     1       6.787   6.615  17.758  0.00  0.00    +0.000 C 
ENDROOT
BRANCH   1   6
ATOM      3  C   UNL     1       2.326   4.150  19.136  0.00  0.00    +0.000 A 
ATOM      4  C   UNL     1       2.282   5.072  18.078  0.00  0.00    +0.000 A 
ATOM      5  C   UNL     1       3.326   5.974  17.824  0.00  0.00    +0.000 A 
ATOM      6  C   UNL     1       4.478   5.946  18.602  0.00  0.00    +0.000 A 
ATOM      7  C   UNL     1       4.600   4.959  19.580  0.00  0.00    +0.000 A 
ATOM      8  C   UNL     1       3.534   4.088  19.853  0.00  0.00    +0.000 A 
BRANCH   3  10
ATOM      9  C   UNL     1       1.032   2.983  20.873  0.00  0.00    +0.000 C 
ATOM     10  N   UNL     1       1.237   3.321  19.465  0.00  0.00    +0.000 N 
ATOM     11  C   UNL     1       0.982   2.234  18.515  0.00  0.00    +0.000 C 
ENDBRANCH   3  10
ENDBRANCH   1   6
BRANCH   2  12
ATOM     12  C   UNL     1       7.232   5.198  17.336  0.00  0.00    +0.000 C 
ATOM     13  O   UNL     1       7.874   4.466  18.079  0.00  0.00    +0.000 OA
BRANCH  12  14
ATOM     14  C   UNL     1       6.834   4.635  15.997  0.00  0.00    +0.000 A 
ATOM     15  C   UNL     1       7.499   4.945  14.807  0.00  0.00    +0.000 A 
ATOM     16  C   UNL     1       6.947   4.611  13.569  0.00  0.00    +0.000 A 
ATOM     17  C   UNL     1       5.787   3.847  13.516  0.00  0.00    +0.000 A 
ATOM     18 CL   UNL     1       5.078   3.483  11.994  0.00  0.00    +0.000 Cl
ATOM     19  C   UNL     1       5.203   3.385  14.695  0.00  0.00    +0.000 A 
ATOM     20  C   UNL     1       5.722   3.780  15.936  0.00  0.00    +0.000 A 
ENDBRANCH  12  14
ENDBRANCH   2  12
BRANCH   2  21
ATOM     21  S   UNL     1       7.746   7.994  17.257  0.00  0.00    +0.000 S 
BRANCH  21  22
ATOM     22  C   UNL     1       8.622   8.585  18.730  0.00  0.00    +0.000 C 
BRANCH  22  23
ATOM     23  C   UNL     1       8.907  10.065  18.584  0.00  0.00    +0.000 A 
ATOM     24  C   UNL     1       8.098  10.854  17.747  0.00  0.00    +0.000 A 
ATOM     25  C   UNL     1       8.390  12.200  17.532  0.00  0.00    +0.000 A 
ATOM     26  C   UNL     1       9.497  12.775  18.154  0.00  0.00    +0.000 A 
ATOM     27 CL   UNL     1       9.872  14.431  17.868  0.00  0.00    +0.000 Cl
ATOM     28  C   UNL     1      10.309  12.014  18.991  0.00  0.00    +0.000 A 
ATOM     29  C   UNL     1      10.016  10.661  19.211  0.00  0.00    +0.000 A 
ENDBRANCH  22  23
ENDBRANCH  21  22
ENDBRANCH   2  21
TORSDOF 7
ENDMDL
MODEL 3
REMARK VINA RESULT:      -7.5      1.212      1.680
REMARK  Name = 
REMARK  9 active torsions:
REMARK  status: ('A' for Active; 'I' for Inactive)
REMARK    1  A    between atoms: C_1  and  N_2
REMARK    2  A    between atoms: N_2  and  C_3
REMARK    3  A    between atoms: N_2  and  C_4
REMARK    4  A    between atoms: C_7  and  C_8
REMARK    5  A    between atoms: C_9  and  S_10
REMARK    6  A    between atoms: C_9  and  C_19
REMARK    7  A    between atoms: S_10  and  C_11
REMARK    8  A    between atoms: C_11  and  C_12
REMARK    9  A    between atoms: C_19  and  C_21
REMARK                            x       y       z     vdW  Elec       q    Type
REMARK                         _______ _______ _______ _____ _____    ______ ____
ROOT
ATOM      1  C   UNL     1       6.311   5.643  19.179  0.00  0.00    +0.000 C 
ATOM      2  C   UNL     1       6.748   6.321  18.089  0.00  0.00    +0.000 C 
ENDROOT
BRANCH   1   6
ATOM      3  C   UNL     1       2.531   3.673  19.856  0.00  0.00    +0.000 A 
ATOM      4  C   UNL     1       2.639   5.072  19.817  0.00  0.00    +0.000 A 
ATOM      5  C   UNL     1       3.863   5.726  19.621  0.00  0.00    +0.000 A 
ATOM      6  C   UNL     1       5.023   4.988  19.406  0.00  0.00    +0.000 A 
ATOM      7  C   UNL     1       4.924   3.600  19.317  0.00  0.00    +0.000 A 
ATOM      8  C   UNL     1       3.701   2.953  19.556  0.00  0.00    +0.000 A 
BRANCH   3  10
ATOM      9  C   UNL     1       1.189   2.422  21.496  0.00  0.00    +0.000 C 
ATOM     10  N   UNL     1       1.327   3.013  20.166  0.00  0.00    +0.000 N 
ATOM     11  C   UNL     1       0.757   2.225  19.068  0.00  0.00    +0.000 C 
ENDBRANCH   3  10
ENDBRANCH   1   6
BRANCH   2  12
ATOM     12  C   UNL     1       5.930   6.415  16.782  0.00  0.00    +0.000 C 
ATOM     13  O   UNL     1       5.104   7.299  16.589  0.00  0.00    +0.000 OA
BRANCH  12  14
ATOM     14  C   UNL     1       6.167   5.442  15.656  0.00  0.00    +0.000 A 
ATOM     15  C   UNL     1       7.265   5.519  14.796  0.00  0.00    +0.000 A 
ATOM     16  C   UNL     1       7.310   4.765  13.621  0.00  0.00    +0.000 A 
ATOM     17  C   UNL     1       6.315   3.829  13.366  0.00  0.00    +0.000 A 
ATOM     18 CL   UNL     1       6.341   2.941  11.895  0.00  0.00    +0.000 Cl
ATOM     19  C   UNL     1       5.300   3.620  14.299  0.00  0.00    +0.000 A 
ATOM     20  C   UNL     1       5.222   4.426  15.442  0.00  0.00    +0.000 A 
ENDBRANCH  12  14
ENDBRANCH   2  12
BRANCH   2  21
ATOM     21  S   UNL     1       8.183   7.312  18.268  0.00  0.00    +0.000 S 
BRANCH  21  22
ATOM     22  C   UNL     1       7.805   8.919  17.519  0.00  0.00    +0.000 C 
BRANCH  22  23
ATOM     23  C   UNL     1       8.573  10.004  18.244  0.00  0.00    +0.000 A 
ATOM     24  C   UNL     1       9.154   9.732  19.495  0.00  0.00    +0.000 A 
ATOM     25  C   UNL     1       9.795  10.736  20.220  0.00  0.00    +0.000 A 
ATOM     26  C   UNL     1       9.864  12.027  19.700  0.00  0.00    +0.000 A 
ATOM     27 CL   UNL     1      10.632  13.273  20.606  0.00  0.00    +0.000 Cl
ATOM     28  C   UNL     1       9.300  12.318  18.460  0.00  0.00    +0.000 A 
ATOM     29  C   UNL     1       8.657  11.309  17.729  0.00  0.00    +0.000 A 
ENDBRANCH  22  23
ENDBRANCH  21  22
ENDBRANCH   2  21
TORSDOF 7
ENDMDL
MODEL 4
REMARK VINA RESULT:      -7.5      3.787      5.968
REMARK  Name = 
REMARK  9 active torsions:
REMARK  status: ('A' for Active; 'I' for Inactive)
REMARK    1  A    between atoms: C_1  and  N_2
REMARK    2  A    between atoms: N_2  and  C_3
REMARK    3  A    between atoms: N_2  and  C_4
REMARK    4  A    between atoms: C_7  and  C_8
REMARK    5  A    between atoms: C_9  and  S_10
REMARK    6  A    between atoms: C_9  and  C_19
REMARK    7  A    between atoms: S_10  and  C_11
REMARK    8  A    between atoms: C_11  and  C_12
REMARK    9  A    between atoms: C_19  and  C_21
REMARK                            x       y       z     vdW  Elec       q    Type
REMARK                         _______ _______ _______ _____ _____    ______ ____
ROOT
ATOM      1  C   UNL     1       4.158   6.307  17.542  0.00  0.00    +0.000 C 
ATOM      2  C   UNL     1       4.083   5.038  17.072  0.00  0.00    +0.000 C 
ENDROOT
BRANCH   1   6
ATOM      3  C   UNL     1       1.224   8.584  19.739  0.00  0.00    +0.000 A 
ATOM      4  C   UNL     1       1.429   8.776  18.364  0.00  0.00    +0.000 A 
ATOM      5  C   UNL     1       2.395   8.059  17.642  0.00  0.00    +0.000 A 
ATOM      6  C   UNL     1       3.158   7.084  18.274  0.00  0.00    +0.000 A 
ATOM      7  C   UNL     1       2.890   6.787  19.610  0.00  0.00    +0.000 A 
ATOM      8  C   UNL     1       1.950   7.538  20.334  0.00  0.00    +0.000 A 
BRANCH   3  10
ATOM      9  C   UNL     1      -0.291   8.782  21.669  0.00  0.00    +0.000 C 
ATOM     10  N   UNL     1       0.338   9.379  20.491  0.00  0.00    +0.000 N 
ATOM     11  C   UNL     1      -0.527  10.256  19.696  0.00  0.00    +0.000 C 
ENDBRANCH   3  10
ENDBRANCH   1   6
BRANCH   2  12
ATOM     12  C   UNL     1       2.881   4.112  17.359  0.00  0.00    +0.000 C 
ATOM     13  O   UNL     1       2.223   3.598  16.463  0.00  0.00    +0.000 OA
BRANCH  12  14
ATOM     14  C   UNL     1       2.506   3.756  18.774  0.00  0.00    +0.000 A 
ATOM     15  C   UNL     1       3.433   3.325  19.727  0.00  0.00    +0.000 A 
ATOM     16  C   UNL     1       3.013   2.764  20.935  0.00  0.00    +0.000 A 
ATOM     17  C   UNL     1       1.660   2.751  21.253  0.00  0.00    +0.000 A 
ATOM     18 CL   UNL     1       1.138   2.011  22.713  0.00  0.00    +0.000 Cl
ATOM     19  C   UNL     1       0.734   3.331  20.386  0.00  0.00    +0.000 A 
ATOM     20  C   UNL     1       1.154   3.830  19.145  0.00  0.00    +0.000 A 
ENDBRANCH  12  14
ENDBRANCH   2  12
BRANCH   2  21
ATOM     21  S   UNL     1       5.292   4.527  15.909  0.00  0.00    +0.000 S 
BRANCH  21  22
ATOM     22  C   UNL     1       6.823   4.241  16.839  0.00  0.00    +0.000 C 
BRANCH  22  23
ATOM     23  C   UNL     1       7.291   5.547  17.447  0.00  0.00    +0.000 A 
ATOM     24  C   UNL     1       7.255   6.727  16.683  0.00  0.00    +0.000 A 
ATOM     25  C   UNL     1       7.758   7.924  17.191  0.00  0.00    +0.000 A 
ATOM     26  C   UNL     1       8.302   7.955  18.474  0.00  0.00    +0.000 A 
ATOM     27 CL   UNL     1       8.946   9.427  19.091  0.00  0.00    +0.000 Cl
ATOM     28  C   UNL     1       8.343   6.800  19.250  0.00  0.00    +0.000 A 
ATOM     29  C   UNL     1       7.837   5.595  18.741  0.00  0.00    +0.000 A 
ENDBRANCH  22  23
ENDBRANCH  21  22
ENDBRANCH   2  21
TORSDOF 7
ENDMDL
MODEL 5
REMARK VINA RESULT:      -7.5      3.947      6.145
REMARK  Name = 
REMARK  9 active torsions:
REMARK  status: ('A' for Active; 'I' for Inactive)
REMARK    1  A    between atoms: C_1  and  N_2
REMARK    2  A    between atoms: N_2  and  C_3
REMARK    3  A    between atoms: N_2  and  C_4
REMARK    4  A    between atoms: C_7  and  C_8
REMARK    5  A    between atoms: C_9  and  S_10
REMARK    6  A    between atoms: C_9  and  C_19
REMARK    7  A    between atoms: S_10  and  C_11
REMARK    8  A    between atoms: C_11  and  C_12
REMARK    9  A    between atoms: C_19  and  C_21
REMARK                            x       y       z     vdW  Elec       q    Type
REMARK                         _______ _______ _______ _____ _____    ______ ____
ROOT
ATOM      1  C   UNL     1       3.951   6.533  17.712  0.00  0.00    +0.000 C 
ATOM      2  C   UNL     1       3.866   5.240  17.313  0.00  0.00    +0.000 C 
ENDROOT
BRANCH   1   6
ATOM      3  C   UNL     1       0.956   9.027  19.567  0.00  0.00    +0.000 A 
ATOM      4  C   UNL     1       1.604   8.001  20.273  0.00  0.00    +0.000 A 
ATOM      5  C   UNL     1       2.563   7.169  19.677  0.00  0.00    +0.000 A 
ATOM      6  C   UNL     1       2.940   7.372  18.354  0.00  0.00    +0.000 A 
ATOM      7  C   UNL     1       2.403   8.461  17.667  0.00  0.00    +0.000 A 
ATOM      8  C   UNL     1       1.414   9.263  18.258  0.00  0.00    +0.000 A 
BRANCH   3  10
ATOM      9  C   UNL     1      -0.448  11.045  19.468  0.00  0.00    +0.000 C 
ATOM     10  N   UNL     1      -0.086   9.790  20.125  0.00  0.00    +0.000 N 
ATOM     11  C   UNL     1      -0.109   9.821  21.591  0.00  0.00    +0.000 C 
ENDBRANCH   3  10
ENDBRANCH   1   6
BRANCH   2  12
ATOM     12  C   UNL     1       2.630   4.359  17.600  0.00  0.00    +0.000 C 
ATOM     13  O   UNL     1       1.885   3.968  16.710  0.00  0.00    +0.000 OA
BRANCH  12  14
ATOM     14  C   UNL     1       2.327   3.892  19.000  0.00  0.00    +0.000 A 
ATOM     15  C   UNL     1       3.315   3.503  19.908  0.00  0.00    +0.000 A 
ATOM     16  C   UNL     1       2.982   2.840  21.092  0.00  0.00    +0.000 A 
ATOM     17  C   UNL     1       1.645   2.678  21.435  0.00  0.00    +0.000 A 
ATOM     18 CL   UNL     1       1.235   1.814  22.863  0.00  0.00    +0.000 Cl
ATOM     19  C   UNL     1       0.646   3.211  20.621  0.00  0.00    +0.000 A 
ATOM     20  C   UNL     1       0.984   3.815  19.402  0.00  0.00    +0.000 A 
ENDBRANCH  12  14
ENDBRANCH   2  12
BRANCH   2  21
ATOM     21  S   UNL     1       5.110   4.636  16.236  0.00  0.00    +0.000 S 
BRANCH  21  22
ATOM     22  C   UNL     1       6.564   4.287  17.261  0.00  0.00    +0.000 C 
BRANCH  22  23
ATOM     23  C   UNL     1       7.231   5.591  17.645  0.00  0.00    +0.000 A 
ATOM     24  C   UNL     1       7.859   5.713  18.898  0.00  0.00    +0.000 A 
ATOM     25  C   UNL     1       8.407   6.927  19.309  0.00  0.00    +0.000 A 
ATOM     26  C   UNL     1       8.336   8.036  18.468  0.00  0.00    +0.000 A 
ATOM     27 CL   UNL     1       8.991   9.542  18.986  0.00  0.00    +0.000 Cl
ATOM     28  C   UNL     1       7.725   7.938  17.221  0.00  0.00    +0.000 A 
ATOM     29  C   UNL     1       7.173   6.717  16.805  0.00  0.00    +0.000 A 
ENDBRANCH  22  23
ENDBRANCH  21  22
ENDBRANCH   2  21
TORSDOF 7
ENDMDL
MODEL 6
REMARK VINA RESULT:      -7.5      0.617      1.468
REMARK  Name = 
REMARK  9 active torsions:
REMARK  status: ('A' for Active; 'I' for Inactive)
REMARK    1  A    between atoms: C_1  and  N_2
REMARK    2  A    between atoms: N_2  and  C_3
REMARK    3  A    between atoms: N_2  and  C_4
REMARK    4  A    between atoms: C_7  and  C_8
REMARK    5  A    between atoms: C_9  and  S_10
REMARK    6  A    between atoms: C_9  and  C_19
REMARK    7  A    between atoms: S_10  and  C_11
REMARK    8  A    between atoms: C_11  and  C_12
REMARK    9  A    between atoms: C_19  and  C_21
REMARK                            x       y       z     vdW  Elec       q    Type
REMARK                         _______ _______ _______ _____ _____    ______ ____
ROOT
ATOM      1  C   UNL     1       5.606   6.868  18.351  0.00  0.00    +0.000 C 
ATOM      2  C   UNL     1       6.836   6.681  17.812  0.00  0.00    +0.000 C 
ENDROOT
BRANCH   1   6
ATOM      3  C   UNL     1       2.377   4.047  18.847  0.00  0.00    +0.000 A 
ATOM      4  C   UNL     1       3.570   3.942  19.580  0.00  0.00    +0.000 A 
ATOM      5  C   UNL     1       4.636   4.838  19.413  0.00  0.00    +0.000 A 
ATOM      6  C   UNL     1       4.519   5.907  18.531  0.00  0.00    +0.000 A 
ATOM      7  C   UNL     1       3.300   6.106  17.882  0.00  0.00    +0.000 A 
ATOM      8  C   UNL     1       2.254   5.181  18.024  0.00  0.00    +0.000 A 
BRANCH   3  10
ATOM      9  C   UNL     1       0.485   3.103  20.104  0.00  0.00    +0.000 C 
ATOM     10  N   UNL     1       1.351   3.087  18.927  0.00  0.00    +0.000 N 
ATOM     11  C   UNL     1       1.715   1.755  18.435  0.00  0.00    +0.000 C 
ENDBRANCH   3  10
ENDBRANCH   1   6
BRANCH   2  12
ATOM     12  C   UNL     1       7.354   5.292  17.378  0.00  0.00    +0.000 C 
ATOM     13  O   UNL     1       8.036   4.589  18.113  0.00  0.00    +0.000 OA
BRANCH  12  14
ATOM     14  C   UNL     1       6.981   4.719  16.036  0.00  0.00    +0.000 A 
ATOM     15  C   UNL     1       7.585   5.114  14.839  0.00  0.00    +0.000 A 
ATOM     16  C   UNL     1       7.039   4.751  13.606  0.00  0.00    +0.000 A 
ATOM     17  C   UNL     1       5.957   3.881  13.562  0.00  0.00    +0.000 A 
ATOM     18 CL   UNL     1       5.251   3.479  12.048  0.00  0.00    +0.000 Cl
ATOM     19  C   UNL     1       5.447   3.343  14.743  0.00  0.00    +0.000 A 
ATOM     20  C   UNL     1       5.955   3.762  15.980  0.00  0.00    +0.000 A 
ENDBRANCH  12  14
ENDBRANCH   2  12
BRANCH   2  21
ATOM     21  S   UNL     1       7.764   8.107  17.389  0.00  0.00    +0.000 S 
BRANCH  21  22
ATOM     22  C   UNL     1       8.778   8.519  18.835  0.00  0.00    +0.000 C 
BRANCH  22  23
ATOM     23  C   UNL     1       9.019  10.014  18.869  0.00  0.00    +0.000 A 
ATOM     24  C   UNL     1       9.435  10.627  20.064  0.00  0.00    +0.000 A 
ATOM     25  C   UNL     1       9.583  12.011  20.144  0.00  0.00    +0.000 A 
ATOM     26  C   UNL     1       9.317  12.800  19.026  0.00  0.00    +0.000 A 
ATOM     27 CL   UNL     1       9.475  14.511  19.131  0.00  0.00    +0.000 Cl
ATOM     28  C   UNL     1       8.909  12.213  17.831  0.00  0.00    +0.000 A 
ATOM     29  C   UNL     1       8.761  10.821  17.748  0.00  0.00    +0.000 A 
ENDBRANCH  22  23
ENDBRANCH  21  22
ENDBRANCH   2  21
TORSDOF 7
ENDMDL
MODEL 7
REMARK VINA RESULT:      -7.3      0.247      1.275
REMARK  Name = 
REMARK  9 active torsions:
REMARK  status: ('A' for Active; 'I' for Inactive)
REMARK    1  A    between atoms: C_1  and  N_2
REMARK    2  A    between atoms: N_2  and  C_3
REMARK    3  A    between atoms: N_2  and  C_4
REMARK    4  A    between atoms: C_7  and  C_8
REMARK    5  A    between atoms: C_9  and  S_10
REMARK    6  A    between atoms: C_9  and  C_19
REMARK    7  A    between atoms: S_10  and  C_11
REMARK    8  A    between atoms: C_11  and  C_12
REMARK    9  A    between atoms: C_19  and  C_21
REMARK                            x       y       z     vdW  Elec       q    Type
REMARK                         _______ _______ _______ _____ _____    ______ ____
ROOT
ATOM      1  C   UNL     1       5.724   6.606  18.495  0.00  0.00    +0.000 C 
ATOM      2  C   UNL     1       6.839   6.525  17.727  0.00  0.00    +0.000 C 
ENDROOT
BRANCH   1   6
ATOM      3  C   UNL     1       2.685   3.629  19.221  0.00  0.00    +0.000 A 
ATOM      4  C   UNL     1       3.930   3.587  19.867  0.00  0.00    +0.000 A 
ATOM      5  C   UNL     1       4.935   4.534  19.624  0.00  0.00    +0.000 A 
ATOM      6  C   UNL     1       4.702   5.592  18.753  0.00  0.00    +0.000 A 
ATOM      7  C   UNL     1       3.432   5.729  18.192  0.00  0.00    +0.000 A 
ATOM      8  C   UNL     1       2.447   4.752  18.409  0.00  0.00    +0.000 A 
BRANCH   3  10
ATOM      9  C   UNL     1       0.529   2.670  18.522  0.00  0.00    +0.000 C 
ATOM     10  N   UNL     1       1.716   2.620  19.374  0.00  0.00    +0.000 N 
ATOM     11  C   UNL     1       1.475   2.204  20.759  0.00  0.00    +0.000 C 
ENDBRANCH   3  10
ENDBRANCH   1   6
BRANCH   2  12
ATOM     12  C   UNL     1       7.289   5.214  17.047  0.00  0.00    +0.000 C 
ATOM     13  O   UNL     1       8.079   4.441  17.575  0.00  0.00    +0.000 OA
BRANCH  12  14
ATOM     14  C   UNL     1       6.717   4.803  15.716  0.00  0.00    +0.000 A 
ATOM     15  C   UNL     1       5.506   4.119  15.580  0.00  0.00    +0.000 A 
ATOM     16  C   UNL     1       5.143   3.536  14.364  0.00  0.00    +0.000 A 
ATOM     17  C   UNL     1       5.931   3.747  13.238  0.00  0.00    +0.000 A 
ATOM     18 CL   UNL     1       5.514   2.984  11.756  0.00  0.00    +0.000 Cl
ATOM     19  C   UNL     1       7.054   4.568  13.318  0.00  0.00    +0.000 A 
ATOM     20  C   UNL     1       7.451   5.094  14.555  0.00  0.00    +0.000 A 
ENDBRANCH  12  14
ENDBRANCH   2  12
BRANCH   2  21
ATOM     21  S   UNL     1       7.654   8.022  17.314  0.00  0.00    +0.000 S 
BRANCH  21  22
ATOM     22  C   UNL     1       8.734   8.430  18.712  0.00  0.00    +0.000 C 
BRANCH  22  23
ATOM     23  C   UNL     1       8.890   9.934  18.803  0.00  0.00    +0.000 A 
ATOM     24  C   UNL     1       8.503  10.744  17.720  0.00  0.00    +0.000 A 
ATOM     25  C   UNL     1       8.712  12.122  17.747  0.00  0.00    +0.000 A 
ATOM     26  C   UNL     1       9.311  12.708  18.860  0.00  0.00    +0.000 A 
ATOM     27 CL   UNL     1       9.594  14.406  18.882  0.00  0.00    +0.000 Cl
ATOM     28  C   UNL     1       9.698  11.927  19.945  0.00  0.00    +0.000 A 
ATOM     29  C   UNL     1       9.487  10.540  19.922  0.00  0.00    +0.000 A 
ENDBRANCH  22  23
ENDBRANCH  21  22
ENDBRANCH   2  21
TORSDOF 7
ENDMDL
MODEL 8
REMARK VINA RESULT:      -7.3      4.907     11.301
REMARK  Name = 
REMARK  9 active torsions:
REMARK  status: ('A' for Active; 'I' for Inactive)
REMARK    1  A    between atoms: C_1  and  N_2
REMARK    2  A    between atoms: N_2  and  C_3
REMARK    3  A    between atoms: N_2  and  C_4
REMARK    4  A    between atoms: C_7  and  C_8
REMARK    5  A    between atoms: C_9  and  S_10
REMARK    6  A    between atoms: C_9  and  C_19
REMARK    7  A    between atoms: S_10  and  C_11
REMARK    8  A    between atoms: C_11  and  C_12
REMARK    9  A    between atoms: C_19  and  C_21
REMARK                            x       y       z     vdW  Elec       q    Type
REMARK                         _______ _______ _______ _____ _____    ______ ____
ROOT
ATOM      1  C   UNL     1       9.442  11.984  18.057  0.00  0.00    +0.000 C 
ATOM      2  C   UNL     1       9.789  11.225  19.126  0.00  0.00    +0.000 C 
ENDROOT
BRANCH   1   6
ATOM      3  C   UNL     1       9.984  16.219  17.432  0.00  0.00    +0.000 A 
ATOM      4  C   UNL     1      10.958  15.285  17.046  0.00  0.00    +0.000 A 
ATOM      5  C   UNL     1      10.805  13.908  17.264  0.00  0.00    +0.000 A 
ATOM      6  C   UNL     1       9.637  13.416  17.837  0.00  0.00    +0.000 A 
ATOM      7  C   UNL     1       8.603  14.309  18.115  0.00  0.00    +0.000 A 
ATOM      8  C   UNL     1       8.782  15.690  17.932  0.00  0.00    +0.000 A 
BRANCH   3  10
ATOM      9  C   UNL     1      11.553  18.110  17.302  0.00  0.00    +0.000 C 
ATOM     10  N   UNL     1      10.180  17.609  17.320  0.00  0.00    +0.000 N 
ATOM     11  C   UNL     1       9.224  18.428  18.071  0.00  0.00    +0.000 C 
ENDBRANCH   3  10
ENDBRANCH   1   6
BRANCH   2  12
ATOM     12  C   UNL     1      10.606  11.781  20.313  0.00  0.00    +0.000 C 
ATOM     13  O   UNL     1      11.813  11.596  20.419  0.00  0.00    +0.000 OA
BRANCH  12  14
ATOM     14  C   UNL     1       9.949  12.634  21.366  0.00  0.00    +0.000 A 
ATOM     15  C   UNL     1       9.000  12.143  22.267  0.00  0.00    +0.000 A 
ATOM     16  C   UNL     1       8.234  13.012  23.047  0.00  0.00    +0.000 A 
ATOM     17  C   UNL     1       8.506  14.375  23.026  0.00  0.00    +0.000 A 
ATOM     18 CL   UNL     1       7.528  15.449  23.943  0.00  0.00    +0.000 Cl
ATOM     19  C   UNL     1       9.563  14.863  22.258  0.00  0.00    +0.000 A 
ATOM     20  C   UNL     1      10.283  13.996  21.426  0.00  0.00    +0.000 A 
ENDBRANCH  12  14
ENDBRANCH   2  12
BRANCH   2  21
ATOM     21  S   UNL     1       9.080   9.627  19.254  0.00  0.00    +0.000 S 
BRANCH  21  22
ATOM     22  C   UNL     1       8.245   9.298  17.679  0.00  0.00    +0.000 C 
BRANCH  22  23
ATOM     23  C   UNL     1       7.566   7.945  17.744  0.00  0.00    +0.000 A 
ATOM     24  C   UNL     1       6.350   7.740  17.068  0.00  0.00    +0.000 A 
ATOM     25  C   UNL     1       5.664   6.532  17.180  0.00  0.00    +0.000 A 
ATOM     26  C   UNL     1       6.189   5.510  17.969  0.00  0.00    +0.000 A 
ATOM     27 CL   UNL     1       5.330   4.027  18.128  0.00  0.00    +0.000 Cl
ATOM     28  C   UNL     1       7.395   5.689  18.642  0.00  0.00    +0.000 A 
ATOM     29  C   UNL     1       8.087   6.903  18.531  0.00  0.00    +0.000 A 
ENDBRANCH  22  23
ENDBRANCH  21  22
ENDBRANCH   2  21
TORSDOF 7
ENDMDL
MODEL 9
REMARK VINA RESULT:      -7.3      7.196     10.178
REMARK  Name = 
REMARK  9 active torsions:
REMARK  status: ('A' for Active; 'I' for Inactive)
REMARK    1  A    between atoms: C_1  and  N_2
REMARK    2  A    between atoms: N_2  and  C_3
REMARK    3  A    between atoms: N_2  and  C_4
REMARK    4  A    between atoms: C_7  and  C_8
REMARK    5  A    between atoms: C_9  and  S_10
REMARK    6  A    between atoms: C_9  and  C_19
REMARK    7  A    between atoms: S_10  and  C_11
REMARK    8  A    between atoms: C_11  and  C_12
REMARK    9  A    between atoms: C_19  and  C_21
REMARK                            x       y       z     vdW  Elec       q    Type
REMARK                         _______ _______ _______ _____ _____    ______ ____
ROOT
ATOM      1  C   UNL     1       0.112  10.005  17.851  0.00  0.00    +0.000 C 
ATOM      2  C   UNL     1       0.974   9.561  18.799  0.00  0.00    +0.000 C 
ENDROOT
BRANCH   1   6
ATOM      3  C   UNL     1      -3.995  11.264  18.270  0.00  0.00    +0.000 A 
ATOM      4  C   UNL     1      -2.925  12.103  18.621  0.00  0.00    +0.000 A 
ATOM      5  C   UNL     1      -1.587  11.699  18.512  0.00  0.00    +0.000 A 
ATOM      6  C   UNL     1      -1.275  10.446  17.996  0.00  0.00    +0.000 A 
ATOM      7  C   UNL     1      -2.312   9.641  17.524  0.00  0.00    +0.000 A 
ATOM      8  C   UNL     1      -3.650  10.038  17.676  0.00  0.00    +0.000 A 
BRANCH   3  10
ATOM      9  C   UNL     1      -6.060  12.273  17.392  0.00  0.00    +0.000 C 
ATOM     10  N   UNL     1      -5.340  11.621  18.484  0.00  0.00    +0.000 N 
ATOM     11  C   UNL     1      -5.633  12.136  19.825  0.00  0.00    +0.000 C 
ENDBRANCH   3  10
ENDBRANCH   1   6
BRANCH   2  12
ATOM     12  C   UNL     1       0.631   9.560  20.304  0.00  0.00    +0.000 C 
ATOM     13  O   UNL     1       0.581   8.529  20.963  0.00  0.00    +0.000 OA
BRANCH  12  14
ATOM     14  C   UNL     1       0.400  10.854  21.041  0.00  0.00    +0.000 A 
ATOM     15  C   UNL     1      -0.567  11.005  22.038  0.00  0.00    +0.000 A 
ATOM     16  C   UNL     1      -0.920  12.272  22.509  0.00  0.00    +0.000 A 
ATOM     17  C   UNL     1      -0.212  13.388  22.077  0.00  0.00    +0.000 A 
ATOM     18 CL   UNL     1      -0.682  14.951  22.614  0.00  0.00    +0.000 Cl
ATOM     19  C   UNL     1       0.869  13.234  21.210  0.00  0.00    +0.000 A 
ATOM     20  C   UNL     1       1.174  11.970  20.688  0.00  0.00    +0.000 A 
ENDBRANCH  12  14
ENDBRANCH   2  12
BRANCH   2  21
ATOM     21  S   UNL     1       2.431   8.749  18.257  0.00  0.00    +0.000 S 
BRANCH  21  22
ATOM     22  C   UNL     1       2.239   6.997  18.678  0.00  0.00    +0.000 C 
BRANCH  22  23
ATOM     23  C   UNL     1       3.245   6.179  17.894  0.00  0.00    +0.000 A 
ATOM     24  C   UNL     1       4.286   6.826  17.205  0.00  0.00    +0.000 A 
ATOM     25  C   UNL     1       5.175   6.104  16.410  0.00  0.00    +0.000 A 
ATOM     26  C   UNL     1       5.033   4.722  16.296  0.00  0.00    +0.000 A 
ATOM     27 CL   UNL     1       6.115   3.833  15.294  0.00  0.00    +0.000 Cl
ATOM     28  C   UNL     1       4.013   4.060  16.974  0.00  0.00    +0.000 A 
ATOM     29  C   UNL     1       3.119   4.784  17.775  0.00  0.00    +0.000 A 
ENDBRANCH  22  23
ENDBRANCH  21  22
ENDBRANCH   2  21
TORSDOF 7
ENDMDL
