MODEL 1
REMARK VINA RESULT:      -8.2      0.000      0.000
REMARK  Name = 
REMARK  8 active torsions:
REMARK  status: ('A' for Active; 'I' for Inactive)
REMARK    1  A    between atoms: C_1  and  C_2
REMARK    2  A    between atoms: C_2  and  C_3
REMARK    3  A    between atoms: C_3  and  C_4
REMARK    4  A    between atoms: C_4  and  C_5
REMARK    5  A    between atoms: C_9  and  C_10
REMARK    6  A    between atoms: N_19  and  C_20
REMARK    7  A    between atoms: C_20  and  C_21
REMARK    8  A    between atoms: C_25  and  C_26
REMARK                            x       y       z     vdW  Elec       q    Type
REMARK                         _______ _______ _______ _____ _____    ______ ____
ROOT
ATOM      1  C   UNL     1       6.091   4.779  15.727  0.00  0.00    +0.000 A 
ATOM      2  N   UNL     1       6.976   5.711  16.016  0.00  0.00    +0.000 NA
ATOM      3  C   UNL     1       6.333   6.609  16.833  0.00  0.00    +0.000 A 
ATOM      4 CL   UNL     1       7.133   7.992  17.423  0.00  0.00    +0.000 Cl
ATOM      5  C   UNL     1       5.029   6.219  17.064  0.00  0.00    +0.000 A 
ATOM      6  N   UNL     1       4.910   5.003  16.413  0.00  0.00    +0.000 N 
ENDROOT
BRANCH   5   7
ATOM      7  C   UNL     1       3.976   6.851  17.790  0.00  0.00    +0.000 A 
ATOM      8  N   UNL     1       3.306   7.895  17.372  0.00  0.00    +0.000 NA
ATOM      9  C   UNL     1       2.440   8.221  18.386  0.00  0.00    +0.000 A 
ATOM     10  C   UNL     1       1.524   9.279  18.477  0.00  0.00    +0.000 A 
ATOM     11  C   UNL     1       0.774   9.417  19.649  0.00  0.00    +0.000 A 
ATOM     12  C   UNL     1       0.899   8.494  20.691  0.00  0.00    +0.000 A 
ATOM     13  C   UNL     1       1.801   7.425  20.613  0.00  0.00    +0.000 A 
ATOM     14  C   UNL     1       2.569   7.337  19.450  0.00  0.00    +0.000 A 
ATOM     15  N   UNL     1       3.572   6.487  19.056  0.00  0.00    +0.000 N 
ATOM     16  H   UNL     1       3.986   5.757  19.617  0.00  0.00    +0.000 HD
ENDBRANCH   5   7
BRANCH   1  17
ATOM     17  C   UNL     1       6.343   3.635  14.790  0.00  0.00    +0.000 C 
BRANCH  17  18
ATOM     18  C   UNL     1       6.446   4.071  13.325  0.00  0.00    +0.000 C 
BRANCH  18  20
ATOM     19  C   UNL     1       5.967   2.178  11.663  0.00  0.00    +0.000 C 
ATOM     20  C   UNL     1       5.446   3.426  12.358  0.00  0.00    +0.000 C 
ENDBRANCH  18  20
ENDBRANCH  17  18
ENDBRANCH   1  17
BRANCH   6  21
ATOM     21  C   UNL     1       3.703   4.195  16.336  0.00  0.00    +0.000 C 
BRANCH  21  22
ATOM     22  C   UNL     1       3.330   3.479  17.615  0.00  0.00    +0.000 A 
ATOM     23  C   UNL     1       4.330   2.779  18.309  0.00  0.00    +0.000 A 
ATOM     24  C   UNL     1       4.109   2.314  19.605  0.00  0.00    +0.000 A 
ATOM     25  C   UNL     1       2.898   2.579  20.243  0.00  0.00    +0.000 A 
ATOM     26  C   UNL     1       1.884   3.263  19.568  0.00  0.00    +0.000 A 
ATOM     27  C   UNL     1       0.639   3.705  20.279  0.00  0.00    +0.000 C 
ATOM     28  C   UNL     1       2.086   3.654  18.237  0.00  0.00    +0.000 A 
ENDBRANCH  21  22
ENDBRANCH   6  21
TORSDOF 6
ENDMDL
MODEL 2
REMARK VINA RESULT:      -7.9      0.362      1.174
REMARK  Name = 
REMARK  8 active torsions:
REMARK  status: ('A' for Active; 'I' for Inactive)
REMARK    1  A    between atoms: C_1  and  C_2
REMARK    2  A    between atoms: C_2  and  C_3
REMARK    3  A    between atoms: C_3  and  C_4
REMARK    4  A    between atoms: C_4  and  C_5
REMARK    5  A    between atoms: C_9  and  C_10
REMARK    6  A    between atoms: N_19  and  C_20
REMARK    7  A    between atoms: C_20  and  C_21
REMARK    8  A    between atoms: C_25  and  C_26
REMARK                            x       y       z     vdW  Elec       q    Type
REMARK                         _______ _______ _______ _____ _____    ______ ____
ROOT
ATOM      1  C   UNL     1       6.224   4.799  15.917  0.00  0.00    +0.000 A 
ATOM      2  N   UNL     1       7.116   5.732  16.183  0.00  0.00    +0.000 NA
ATOM      3  C   UNL     1       6.474   6.666  16.959  0.00  0.00    +0.000 A 
ATOM      4 CL   UNL     1       7.282   8.061  17.508  0.00  0.00    +0.000 Cl
ATOM      5  C   UNL     1       5.163   6.299  17.189  0.00  0.00    +0.000 A 
ATOM      6  N   UNL     1       5.038   5.061  16.581  0.00  0.00    +0.000 N 
ENDROOT
BRANCH   5   7
ATOM      7  C   UNL     1       4.109   6.968  17.879  0.00  0.00    +0.000 A 
ATOM      8  N   UNL     1       3.684   6.651  19.076  0.00  0.00    +0.000 NA
ATOM      9  C   UNL     1       2.629   7.488  19.338  0.00  0.00    +0.000 A 
ATOM     10  C   UNL     1       1.788   7.548  20.458  0.00  0.00    +0.000 A 
ATOM     11  C   UNL     1       0.747   8.481  20.467  0.00  0.00    +0.000 A 
ATOM     12  C   UNL     1       0.573   9.368  19.401  0.00  0.00    +0.000 A 
ATOM     13  C   UNL     1       1.409   9.331  18.278  0.00  0.00    +0.000 A 
ATOM     14  C   UNL     1       2.413   8.360  18.277  0.00  0.00    +0.000 A 
ATOM     15  N   UNL     1       3.355   7.991  17.348  0.00  0.00    +0.000 N 
ATOM     16  H   UNL     1       3.445   8.364  16.415  0.00  0.00    +0.000 HD
ENDBRANCH   5   7
BRANCH   1  17
ATOM     17  C   UNL     1       6.474   3.620  15.025  0.00  0.00    +0.000 C 
BRANCH  17  18
ATOM     18  C   UNL     1       6.346   3.956  13.536  0.00  0.00    +0.000 C 
BRANCH  18  20
ATOM     19  C   UNL     1       5.006   3.003  11.569  0.00  0.00    +0.000 C 
ATOM     20  C   UNL     1       4.967   3.724  12.908  0.00  0.00    +0.000 C 
ENDBRANCH  18  20
ENDBRANCH  17  18
ENDBRANCH   1  17
BRANCH   6  21
ATOM     21  C   UNL     1       3.823   4.264  16.518  0.00  0.00    +0.000 C 
BRANCH  21  22
ATOM     22  C   UNL     1       3.459   3.551  17.802  0.00  0.00    +0.000 A 
ATOM     23  C   UNL     1       4.487   2.964  18.558  0.00  0.00    +0.000 A 
ATOM     24  C   UNL     1       4.252   2.515  19.857  0.00  0.00    +0.000 A 
ATOM     25  C   UNL     1       2.995   2.686  20.436  0.00  0.00    +0.000 A 
ATOM     26  C   UNL     1       1.954   3.256  19.699  0.00  0.00    +0.000 A 
ATOM     27  C   UNL     1       0.644   3.601  20.344  0.00  0.00    +0.000 C 
ATOM     28  C   UNL     1       2.178   3.628  18.367  0.00  0.00    +0.000 A 
ENDBRANCH  21  22
ENDBRANCH   6  21
TORSDOF 6
ENDMDL
MODEL 3
REMARK VINA RESULT:      -7.7      0.586      1.341
REMARK  Name = 
REMARK  8 active torsions:
REMARK  status: ('A' for Active; 'I' for Inactive)
REMARK    1  A    between atoms: C_1  and  C_2
REMARK    2  A    between atoms: C_2  and  C_3
REMARK    3  A    between atoms: C_3  and  C_4
REMARK    4  A    between atoms: C_4  and  C_5
REMARK    5  A    between atoms: C_9  and  C_10
REMARK    6  A    between atoms: N_19  and  C_20
REMARK    7  A    between atoms: C_20  and  C_21
REMARK    8  A    between atoms: C_25  and  C_26
REMARK                            x       y       z     vdW  Elec       q    Type
REMARK                         _______ _______ _______ _____ _____    ______ ____
ROOT
ATOM      1  C   UNL     1       6.175   4.917  15.750  0.00  0.00    +0.000 A 
ATOM      2  N   UNL     1       7.055   5.848  16.058  0.00  0.00    +0.000 NA
ATOM      3  C   UNL     1       6.386   6.768  16.829  0.00  0.00    +0.000 A 
ATOM      4 CL   UNL     1       7.172   8.157  17.424  0.00  0.00    +0.000 Cl
ATOM      5  C   UNL     1       5.070   6.393  17.012  0.00  0.00    +0.000 A 
ATOM      6  N   UNL     1       4.968   5.165  16.381  0.00  0.00    +0.000 N 
ENDROOT
BRANCH   5   7
ATOM      7  C   UNL     1       3.993   7.048  17.679  0.00  0.00    +0.000 A 
ATOM      8  N   UNL     1       3.346   8.086  17.209  0.00  0.00    +0.000 NA
ATOM      9  C   UNL     1       2.442   8.441  18.179  0.00  0.00    +0.000 A 
ATOM     10  C   UNL     1       1.531   9.506  18.208  0.00  0.00    +0.000 A 
ATOM     11  C   UNL     1       0.735   9.676  19.345  0.00  0.00    +0.000 A 
ATOM     12  C   UNL     1       0.812   8.778  20.413  0.00  0.00    +0.000 A 
ATOM     13  C   UNL     1       1.709   7.702  20.397  0.00  0.00    +0.000 A 
ATOM     14  C   UNL     1       2.523   7.582  19.269  0.00  0.00    +0.000 A 
ATOM     15  N   UNL     1       3.536   6.717  18.936  0.00  0.00    +0.000 N 
ATOM     16  H   UNL     1       3.921   5.999  19.530  0.00  0.00    +0.000 HD
ENDBRANCH   5   7
BRANCH   1  17
ATOM     17  C   UNL     1       6.456   3.752  14.849  0.00  0.00    +0.000 C 
BRANCH  17  18
ATOM     18  C   UNL     1       6.194   4.061  13.371  0.00  0.00    +0.000 C 
BRANCH  18  20
ATOM     19  C   UNL     1       4.647   3.240  11.498  0.00  0.00    +0.000 C 
ATOM     20  C   UNL     1       5.724   2.882  12.510  0.00  0.00    +0.000 C 
ENDBRANCH  18  20
ENDBRANCH  17  18
ENDBRANCH   1  17
BRANCH   6  21
ATOM     21  C   UNL     1       3.758   4.365  16.268  0.00  0.00    +0.000 C 
BRANCH  21  22
ATOM     22  C   UNL     1       3.240   3.802  17.573  0.00  0.00    +0.000 A 
ATOM     23  C   UNL     1       1.856   3.623  17.724  0.00  0.00    +0.000 A 
ATOM     24  C   UNL     1       1.342   2.887  18.791  0.00  0.00    +0.000 A 
ATOM     25  C   UNL     1       2.209   2.282  19.701  0.00  0.00    +0.000 A 
ATOM     26  C   UNL     1       3.589   2.456  19.578  0.00  0.00    +0.000 A 
ATOM     27  C   UNL     1       4.549   1.688  20.438  0.00  0.00    +0.000 C 
ATOM     28  C   UNL     1       4.091   3.266  18.550  0.00  0.00    +0.000 A 
ENDBRANCH  21  22
ENDBRANCH   6  21
TORSDOF 6
ENDMDL
MODEL 4
REMARK VINA RESULT:      -7.6      2.143      4.293
REMARK  Name = 
REMARK  8 active torsions:
REMARK  status: ('A' for Active; 'I' for Inactive)
REMARK    1  A    between atoms: C_1  and  C_2
REMARK    2  A    between atoms: C_2  and  C_3
REMARK    3  A    between atoms: C_3  and  C_4
REMARK    4  A    between atoms: C_4  and  C_5
REMARK    5  A    between atoms: C_9  and  C_10
REMARK    6  A    between atoms: N_19  and  C_20
REMARK    7  A    between atoms: C_20  and  C_21
REMARK    8  A    between atoms: C_25  and  C_26
REMARK                            x       y       z     vdW  Elec       q    Type
REMARK                         _______ _______ _______ _____ _____    ______ ____
ROOT
ATOM      1  C   UNL     1       4.792   4.116  16.363  0.00  0.00    +0.000 A 
ATOM      2  N   UNL     1       3.899   3.270  16.838  0.00  0.00    +0.000 NA
ATOM      3  C   UNL     1       3.020   4.019  17.582  0.00  0.00    +0.000 A 
ATOM      4 CL   UNL     1       1.711   3.293  18.394  0.00  0.00    +0.000 Cl
ATOM      5  C   UNL     1       3.368   5.356  17.558  0.00  0.00    +0.000 A 
ATOM      6  N   UNL     1       4.459   5.414  16.709  0.00  0.00    +0.000 N 
ENDROOT
BRANCH   5   7
ATOM      7  C   UNL     1       2.799   6.485  18.218  0.00  0.00    +0.000 A 
ATOM      8  N   UNL     1       2.524   6.540  19.497  0.00  0.00    +0.000 NA
ATOM      9  C   UNL     1       1.935   7.761  19.707  0.00  0.00    +0.000 A 
ATOM     10  C   UNL     1       1.412   8.314  20.884  0.00  0.00    +0.000 A 
ATOM     11  C   UNL     1       0.823   9.581  20.827  0.00  0.00    +0.000 A 
ATOM     12  C   UNL     1       0.796  10.302  19.630  0.00  0.00    +0.000 A 
ATOM     13  C   UNL     1       1.322   9.771  18.446  0.00  0.00    +0.000 A 
ATOM     14  C   UNL     1       1.865   8.486  18.524  0.00  0.00    +0.000 A 
ATOM     15  N   UNL     1       2.400   7.641  17.584  0.00  0.00    +0.000 N 
ATOM     16  H   UNL     1       2.442   7.809  16.590  0.00  0.00    +0.000 HD
ENDBRANCH   5   7
BRANCH   1  17
ATOM     17  C   UNL     1       5.989   3.715  15.555  0.00  0.00    +0.000 C 
BRANCH  17  18
ATOM     18  C   UNL     1       6.016   4.357  14.164  0.00  0.00    +0.000 C 
BRANCH  18  20
ATOM     19  C   UNL     1       7.051   3.912  11.861  0.00  0.00    +0.000 C 
ATOM     20  C   UNL     1       6.161   3.394  12.980  0.00  0.00    +0.000 C 
ENDBRANCH  18  20
ENDBRANCH  17  18
ENDBRANCH   1  17
BRANCH   6  21
ATOM     21  C   UNL     1       5.215   6.612  16.377  0.00  0.00    +0.000 C 
BRANCH  21  22
ATOM     22  C   UNL     1       6.261   7.011  17.394  0.00  0.00    +0.000 A 
ATOM     23  C   UNL     1       6.838   6.009  18.191  0.00  0.00    +0.000 A 
ATOM     24  C   UNL     1       7.970   6.272  18.961  0.00  0.00    +0.000 A 
ATOM     25  C   UNL     1       8.568   7.530  18.914  0.00  0.00    +0.000 A 
ATOM     26  C   UNL     1       8.005   8.546  18.137  0.00  0.00    +0.000 A 
ATOM     27  C   UNL     1       8.713   9.854  17.938  0.00  0.00    +0.000 C 
ATOM     28  C   UNL     1       6.821   8.296  17.432  0.00  0.00    +0.000 A 
ENDBRANCH  21  22
ENDBRANCH   6  21
TORSDOF 6
ENDMDL
MODEL 5
REMARK VINA RESULT:      -7.6      2.128      4.143
REMARK  Name = 
REMARK  8 active torsions:
REMARK  status: ('A' for Active; 'I' for Inactive)
REMARK    1  A    between atoms: C_1  and  C_2
REMARK    2  A    between atoms: C_2  and  C_3
REMARK    3  A    between atoms: C_3  and  C_4
REMARK    4  A    between atoms: C_4  and  C_5
REMARK    5  A    between atoms: C_9  and  C_10
REMARK    6  A    between atoms: N_19  and  C_20
REMARK    7  A    between atoms: C_20  and  C_21
REMARK    8  A    between atoms: C_25  and  C_26
REMARK                            x       y       z     vdW  Elec       q    Type
REMARK                         _______ _______ _______ _____ _____    ______ ____
ROOT
ATOM      1  C   UNL     1       4.489   4.115  16.615  0.00  0.00    +0.000 A 
ATOM      2  N   UNL     1       3.655   3.269  17.186  0.00  0.00    +0.000 NA
ATOM      3  C   UNL     1       2.840   4.023  17.995  0.00  0.00    +0.000 A 
ATOM      4 CL   UNL     1       1.621   3.297  18.938  0.00  0.00    +0.000 Cl
ATOM      5  C   UNL     1       3.167   5.362  17.915  0.00  0.00    +0.000 A 
ATOM      6  N   UNL     1       4.174   5.416  16.966  0.00  0.00    +0.000 N 
ENDROOT
BRANCH   5   7
ATOM      7  C   UNL     1       2.646   6.497  18.604  0.00  0.00    +0.000 A 
ATOM      8  N   UNL     1       2.411   6.544  19.891  0.00  0.00    +0.000 NA
ATOM      9  C   UNL     1       1.860   7.777  20.132  0.00  0.00    +0.000 A 
ATOM     10  C   UNL     1       1.387   8.329  21.330  0.00  0.00    +0.000 A 
ATOM     11  C   UNL     1       0.829   9.611  21.304  0.00  0.00    +0.000 A 
ATOM     12  C   UNL     1       0.785  10.347  20.117  0.00  0.00    +0.000 A 
ATOM     13  C   UNL     1       1.263   9.817  18.912  0.00  0.00    +0.000 A 
ATOM     14  C   UNL     1       1.774   8.518  18.959  0.00  0.00    +0.000 A 
ATOM     15  N   UNL     1       2.259   7.671  17.994  0.00  0.00    +0.000 N 
ATOM     16  H   UNL     1       2.277   7.850  17.002  0.00  0.00    +0.000 HD
ENDBRANCH   5   7
BRANCH   1  17
ATOM     17  C   UNL     1       5.612   3.712  15.706  0.00  0.00    +0.000 C 
BRANCH  17  18
ATOM     18  C   UNL     1       5.530   4.370  14.324  0.00  0.00    +0.000 C 
BRANCH  18  20
ATOM     19  C   UNL     1       5.717   3.095  12.108  0.00  0.00    +0.000 C 
ATOM     20  C   UNL     1       6.450   3.787  13.246  0.00  0.00    +0.000 C 
ENDBRANCH  18  20
ENDBRANCH  17  18
ENDBRANCH   1  17
BRANCH   6  21
ATOM     21  C   UNL     1       4.879   6.616  16.543  0.00  0.00    +0.000 C 
BRANCH  21  22
ATOM     22  C   UNL     1       6.226   6.830  17.197  0.00  0.00    +0.000 A 
ATOM     23  C   UNL     1       6.852   8.078  17.053  0.00  0.00    +0.000 A 
ATOM     24  C   UNL     1       7.961   8.416  17.827  0.00  0.00    +0.000 A 
ATOM     25  C   UNL     1       8.436   7.526  18.789  0.00  0.00    +0.000 A 
ATOM     26  C   UNL     1       7.837   6.273  18.943  0.00  0.00    +0.000 A 
ATOM     27  C   UNL     1       8.218   5.363  20.073  0.00  0.00    +0.000 C 
ATOM     28  C   UNL     1       6.775   5.911  18.103  0.00  0.00    +0.000 A 
ENDBRANCH  21  22
ENDBRANCH   6  21
TORSDOF 6
ENDMDL
MODEL 6
REMARK VINA RESULT:      -7.5      0.620      1.756
REMARK  Name = 
REMARK  8 active torsions:
REMARK  status: ('A' for Active; 'I' for Inactive)
REMARK    1  A    between atoms: C_1  and  C_2
REMARK    2  A    between atoms: C_2  and  C_3
REMARK    3  A    between atoms: C_3  and  C_4
REMARK    4  A    between atoms: C_4  and  C_5
REMARK    5  A    between atoms: C_9  and  C_10
REMARK    6  A    between atoms: N_19  and  C_20
REMARK    7  A    between atoms: C_20  and  C_21
REMARK    8  A    between atoms: C_25  and  C_26
REMARK                            x       y       z     vdW  Elec       q    Type
REMARK                         _______ _______ _______ _____ _____    ______ ____
ROOT
ATOM      1  C   UNL     1       5.731   4.869  16.040  0.00  0.00    +0.000 A 
ATOM      2  N   UNL     1       6.650   5.795  16.230  0.00  0.00    +0.000 NA
ATOM      3  C   UNL     1       6.053   6.777  16.984  0.00  0.00    +0.000 A 
ATOM      4 CL   UNL     1       6.906   8.180  17.438  0.00  0.00    +0.000 Cl
ATOM      5  C   UNL     1       4.744   6.447  17.277  0.00  0.00    +0.000 A 
ATOM      6  N   UNL     1       4.575   5.186  16.732  0.00  0.00    +0.000 N 
ENDROOT
BRANCH   5   7
ATOM      7  C   UNL     1       3.728   7.169  17.971  0.00  0.00    +0.000 A 
ATOM      8  N   UNL     1       3.343   6.919  19.197  0.00  0.00    +0.000 NA
ATOM      9  C   UNL     1       2.313   7.787  19.456  0.00  0.00    +0.000 A 
ATOM     10  C   UNL     1       1.516   7.917  20.602  0.00  0.00    +0.000 A 
ATOM     11  C   UNL     1       0.491   8.869  20.602  0.00  0.00    +0.000 A 
ATOM     12  C   UNL     1       0.292   9.705  19.500  0.00  0.00    +0.000 A 
ATOM     13  C   UNL     1       1.085   9.597  18.350  0.00  0.00    +0.000 A 
ATOM     14  C   UNL     1       2.072   8.609  18.361  0.00  0.00    +0.000 A 
ATOM     15  N   UNL     1       2.972   8.178  17.418  0.00  0.00    +0.000 N 
ATOM     16  H   UNL     1       3.032   8.503  16.464  0.00  0.00    +0.000 HD
ENDBRANCH   5   7
BRANCH   1  17
ATOM     17  C   UNL     1       5.927   3.645  15.197  0.00  0.00    +0.000 C 
BRANCH  17  18
ATOM     18  C   UNL     1       6.325   3.969  13.753  0.00  0.00    +0.000 C 
BRANCH  18  20
ATOM     19  C   UNL     1       5.673   2.528  11.735  0.00  0.00    +0.000 C 
ATOM     20  C   UNL     1       5.278   3.653  12.679  0.00  0.00    +0.000 C 
ENDBRANCH  18  20
ENDBRANCH  17  18
ENDBRANCH   1  17
BRANCH   6  21
ATOM     21  C   UNL     1       3.344   4.411  16.750  0.00  0.00    +0.000 C 
BRANCH  21  22
ATOM     22  C   UNL     1       2.936   3.890  18.110  0.00  0.00    +0.000 A 
ATOM     23  C   UNL     1       1.567   3.770  18.399  0.00  0.00    +0.000 A 
ATOM     24  C   UNL     1       1.133   3.072  19.526  0.00  0.00    +0.000 A 
ATOM     25  C   UNL     1       2.061   2.447  20.358  0.00  0.00    +0.000 A 
ATOM     26  C   UNL     1       3.428   2.563  20.097  0.00  0.00    +0.000 A 
ATOM     27  C   UNL     1       4.437   1.770  20.874  0.00  0.00    +0.000 C 
ATOM     28  C   UNL     1       3.857   3.335  19.009  0.00  0.00    +0.000 A 
ENDBRANCH  21  22
ENDBRANCH   6  21
TORSDOF 6
ENDMDL
MODEL 7
REMARK VINA RESULT:      -7.3      2.057      6.924
REMARK  Name = 
REMARK  8 active torsions:
REMARK  status: ('A' for Active; 'I' for Inactive)
REMARK    1  A    between atoms: C_1  and  C_2
REMARK    2  A    between atoms: C_2  and  C_3
REMARK    3  A    between atoms: C_3  and  C_4
REMARK    4  A    between atoms: C_4  and  C_5
REMARK    5  A    between atoms: C_9  and  C_10
REMARK    6  A    between atoms: N_19  and  C_20
REMARK    7  A    between atoms: C_20  and  C_21
REMARK    8  A    between atoms: C_25  and  C_26
REMARK                            x       y       z     vdW  Elec       q    Type
REMARK                         _______ _______ _______ _____ _____    ______ ____
ROOT
ATOM      1  C   UNL     1       1.245   7.791  20.722  0.00  0.00    +0.000 A 
ATOM      2  N   UNL     1       1.178   8.707  19.776  0.00  0.00    +0.000 NA
ATOM      3  C   UNL     1       2.038   8.297  18.785  0.00  0.00    +0.000 A 
ATOM      4 CL   UNL     1       2.262   9.225  17.375  0.00  0.00    +0.000 Cl
ATOM      5  C   UNL     1       2.640   7.100  19.118  0.00  0.00    +0.000 A 
ATOM      6  N   UNL     1       2.063   6.747  20.326  0.00  0.00    +0.000 N 
ENDROOT
BRANCH   5   7
ATOM      7  C   UNL     1       3.631   6.329  18.443  0.00  0.00    +0.000 A 
ATOM      8  N   UNL     1       4.901   6.303  18.763  0.00  0.00    +0.000 NA
ATOM      9  C   UNL     1       5.511   5.499  17.833  0.00  0.00    +0.000 A 
ATOM     10  C   UNL     1       6.864   5.165  17.687  0.00  0.00    +0.000 A 
ATOM     11  C   UNL     1       7.241   4.345  16.619  0.00  0.00    +0.000 A 
ATOM     12  C   UNL     1       6.284   3.830  15.741  0.00  0.00    +0.000 A 
ATOM     13  C   UNL     1       4.925   4.144  15.878  0.00  0.00    +0.000 A 
ATOM     14  C   UNL     1       4.583   5.000  16.926  0.00  0.00    +0.000 A 
ATOM     15  N   UNL     1       3.395   5.563  17.322  0.00  0.00    +0.000 N 
ATOM     16  H   UNL     1       2.511   5.481  16.843  0.00  0.00    +0.000 HD
ENDBRANCH   5   7
BRANCH   1  17
ATOM     17  C   UNL     1       0.524   7.876  22.033  0.00  0.00    +0.000 C 
BRANCH  17  18
ATOM     18  C   UNL     1      -0.551   8.969  22.056  0.00  0.00    +0.000 C 
BRANCH  18  20
ATOM     19  C   UNL     1      -1.114  11.315  22.921  0.00  0.00    +0.000 C 
ATOM     20  C   UNL     1      -0.470   9.969  23.215  0.00  0.00    +0.000 C 
ENDBRANCH  18  20
ENDBRANCH  17  18
ENDBRANCH   1  17
BRANCH   6  21
ATOM     21  C   UNL     1       2.389   5.566  21.111  0.00  0.00    +0.000 C 
BRANCH  21  22
ATOM     22  C   UNL     1       2.048   4.247  20.453  0.00  0.00    +0.000 A 
ATOM     23  C   UNL     1       0.720   4.019  20.056  0.00  0.00    +0.000 A 
ATOM     24  C   UNL     1       0.395   2.942  19.232  0.00  0.00    +0.000 A 
ATOM     25  C   UNL     1       1.400   2.101  18.757  0.00  0.00    +0.000 A 
ATOM     26  C   UNL     1       2.727   2.300  19.149  0.00  0.00    +0.000 A 
ATOM     27  C   UNL     1       3.846   1.517  18.529  0.00  0.00    +0.000 C 
ATOM     28  C   UNL     1       3.031   3.335  20.043  0.00  0.00    +0.000 A 
ENDBRANCH  21  22
ENDBRANCH   6  21
TORSDOF 6
ENDMDL
MODEL 8
REMARK VINA RESULT:      -7.2      2.086      3.957
REMARK  Name = 
REMARK  8 active torsions:
REMARK  status: ('A' for Active; 'I' for Inactive)
REMARK    1  A    between atoms: C_1  and  C_2
REMARK    2  A    between atoms: C_2  and  C_3
REMARK    3  A    between atoms: C_3  and  C_4
REMARK    4  A    between atoms: C_4  and  C_5
REMARK    5  A    between atoms: C_9  and  C_10
REMARK    6  A    between atoms: N_19  and  C_20
REMARK    7  A    between atoms: C_20  and  C_21
REMARK    8  A    between atoms: C_25  and  C_26
REMARK                            x       y       z     vdW  Elec       q    Type
REMARK                         _______ _______ _______ _____ _____    ______ ____
ROOT
ATOM      1  C   UNL     1       5.049   4.124  16.186  0.00  0.00    +0.000 A 
ATOM      2  N   UNL     1       4.231   3.182  16.611  0.00  0.00    +0.000 NA
ATOM      3  C   UNL     1       3.297   3.812  17.398  0.00  0.00    +0.000 A 
ATOM      4 CL   UNL     1       2.056   2.934  18.166  0.00  0.00    +0.000 Cl
ATOM      5  C   UNL     1       3.534   5.171  17.450  0.00  0.00    +0.000 A 
ATOM      6  N   UNL     1       4.612   5.369  16.605  0.00  0.00    +0.000 N 
ENDROOT
BRANCH   5   7
ATOM      7  C   UNL     1       2.876   6.210  18.174  0.00  0.00    +0.000 A 
ATOM      8  N   UNL     1       2.483   7.346  17.654  0.00  0.00    +0.000 NA
ATOM      9  C   UNL     1       1.964   8.079  18.692  0.00  0.00    +0.000 A 
ATOM     10  C   UNL     1       1.443   9.380  18.698  0.00  0.00    +0.000 A 
ATOM     11  C   UNL     1       1.004   9.921  19.911  0.00  0.00    +0.000 A 
ATOM     12  C   UNL     1       1.042   9.166  21.086  0.00  0.00    +0.000 A 
ATOM     13  C   UNL     1       1.551   7.860  21.098  0.00  0.00    +0.000 A 
ATOM     14  C   UNL     1       2.021   7.361  19.881  0.00  0.00    +0.000 A 
ATOM     15  N   UNL     1       2.630   6.182  19.529  0.00  0.00    +0.000 N 
ATOM     16  H   UNL     1       2.904   5.444  20.160  0.00  0.00    +0.000 HD
ENDBRANCH   5   7
BRANCH   1  17
ATOM     17  C   UNL     1       6.272   3.871  15.356  0.00  0.00    +0.000 C 
BRANCH  17  18
ATOM     18  C   UNL     1       6.100   4.289  13.891  0.00  0.00    +0.000 C 
BRANCH  18  20
ATOM     19  C   UNL     1       4.715   3.367  11.941  0.00  0.00    +0.000 C 
ATOM     20  C   UNL     1       5.886   3.151  12.886  0.00  0.00    +0.000 C 
ENDBRANCH  18  20
ENDBRANCH  17  18
ENDBRANCH   1  17
BRANCH   6  21
ATOM     21  C   UNL     1       5.264   6.642  16.342  0.00  0.00    +0.000 C 
BRANCH  21  22
ATOM     22  C   UNL     1       6.529   6.889  17.135  0.00  0.00    +0.000 A 
ATOM     23  C   UNL     1       7.112   8.165  17.088  0.00  0.00    +0.000 A 
ATOM     24  C   UNL     1       8.123   8.522  17.980  0.00  0.00    +0.000 A 
ATOM     25  C   UNL     1       8.536   7.623  18.961  0.00  0.00    +0.000 A 
ATOM     26  C   UNL     1       7.978   6.343  19.020  0.00  0.00    +0.000 A 
ATOM     27  C   UNL     1       8.282   5.415  20.159  0.00  0.00    +0.000 C 
ATOM     28  C   UNL     1       7.023   5.965  18.068  0.00  0.00    +0.000 A 
ENDBRANCH  21  22
ENDBRANCH   6  21
TORSDOF 6
ENDMDL
MODEL 9
REMARK VINA RESULT:      -7.1      2.045      6.871
REMARK  Name = 
REMARK  8 active torsions:
REMARK  status: ('A' for Active; 'I' for Inactive)
REMARK    1  A    between atoms: C_1  and  C_2
REMARK    2  A    between atoms: C_2  and  C_3
REMARK    3  A    between atoms: C_3  and  C_4
REMARK    4  A    between atoms: C_4  and  C_5
REMARK    5  A    between atoms: C_9  and  C_10
REMARK    6  A    between atoms: N_19  and  C_20
REMARK    7  A    between atoms: C_20  and  C_21
REMARK    8  A    between atoms: C_25  and  C_26
REMARK                            x       y       z     vdW  Elec       q    Type
REMARK                         _______ _______ _______ _____ _____    ______ ____
ROOT
ATOM      1  C   UNL     1       1.313   7.801  20.668  0.00  0.00    +0.000 A 
ATOM      2  N   UNL     1       1.168   8.733  19.748  0.00  0.00    +0.000 NA
ATOM      3  C   UNL     1       2.002   8.383  18.714  0.00  0.00    +0.000 A 
ATOM      4 CL   UNL     1       2.128   9.351  17.318  0.00  0.00    +0.000 Cl
ATOM      5  C   UNL     1       2.666   7.205  18.993  0.00  0.00    +0.000 A 
ATOM      6  N   UNL     1       2.156   6.801  20.215  0.00  0.00    +0.000 N 
ENDROOT
BRANCH   5   7
ATOM      7  C   UNL     1       3.660   6.492  18.259  0.00  0.00    +0.000 A 
ATOM      8  N   UNL     1       3.407   5.638  17.300  0.00  0.00    +0.000 NA
ATOM      9  C   UNL     1       4.623   5.135  16.910  0.00  0.00    +0.000 A 
ATOM     10  C   UNL     1       4.922   4.159  15.949  0.00  0.00    +0.000 A 
ATOM     11  C   UNL     1       6.258   3.789  15.762  0.00  0.00    +0.000 A 
ATOM     12  C   UNL     1       7.280   4.411  16.486  0.00  0.00    +0.000 A 
ATOM     13  C   UNL     1       7.000   5.395  17.442  0.00  0.00    +0.000 A 
ATOM     14  C   UNL     1       5.655   5.713  17.639  0.00  0.00    +0.000 A 
ATOM     15  N   UNL     1       5.013   6.558  18.510  0.00  0.00    +0.000 N 
ATOM     16  H   UNL     1       5.448   7.092  19.247  0.00  0.00    +0.000 HD
ENDBRANCH   5   7
BRANCH   1  17
ATOM     17  C   UNL     1       0.644   7.826  22.010  0.00  0.00    +0.000 C 
BRANCH  17  18
ATOM     18  C   UNL     1      -0.483   8.861  22.099  0.00  0.00    +0.000 C 
BRANCH  18  20
ATOM     19  C   UNL     1      -1.373  11.039  23.116  0.00  0.00    +0.000 C 
ATOM     20  C   UNL     1      -0.178  10.120  22.919  0.00  0.00    +0.000 C 
ENDBRANCH  18  20
ENDBRANCH  17  18
ENDBRANCH   1  17
BRANCH   6  21
ATOM     21  C   UNL     1       2.563   5.618  20.957  0.00  0.00    +0.000 C 
BRANCH  21  22
ATOM     22  C   UNL     1       2.141   4.302  20.343  0.00  0.00    +0.000 A 
ATOM     23  C   UNL     1       0.784   4.107  20.040  0.00  0.00    +0.000 A 
ATOM     24  C   UNL     1       0.373   3.030  19.256  0.00  0.00    +0.000 A 
ATOM     25  C   UNL     1       1.320   2.154  18.726  0.00  0.00    +0.000 A 
ATOM     26  C   UNL     1       2.675   2.320  19.023  0.00  0.00    +0.000 A 
ATOM     27  C   UNL     1       3.726   1.498  18.339  0.00  0.00    +0.000 C 
ATOM     28  C   UNL     1       3.068   3.357  19.880  0.00  0.00    +0.000 A 
ENDBRANCH  21  22
ENDBRANCH   6  21
TORSDOF 6
ENDMDL
