MODEL 1
REMARK VINA RESULT:      -7.9      0.000      0.000
REMARK  Name = 
REMARK  11 active torsions:
REMARK  status: ('A' for Active; 'I' for Inactive)
REMARK    1  A    between atoms: C_1  and  O_2
REMARK    2  A    between atoms: O_2  and  C_3
REMARK    3  A    between atoms: C_5  and  C_6
REMARK    4  A    between atoms: N_8  and  N_9
REMARK    5  A    between atoms: C_17  and  C_18
REMARK    6  A    between atoms: C_18  and  C_19
REMARK    7  A    between atoms: C_18  and  C_20
REMARK    8  A    between atoms: C_24  and  O_25
REMARK    9  A    between atoms: O_25  and  C_26
REMARK   10  A    between atoms: C_27  and  O_28
REMARK   11  A    between atoms: O_28  and  C_29
REMARK                            x       y       z     vdW  Elec       q    Type
REMARK                         _______ _______ _______ _____ _____    ______ ____
ROOT
ATOM      1  C   UNL     1       2.354   6.378  19.683  0.00  0.00    +0.000 C 
ATOM      2  O   UNL     1       1.855   5.682  20.570  0.00  0.00    +0.000 OA
ATOM      3  N   UNL     1       2.137   7.747  19.491  0.00  0.00    +0.000 N 
ATOM      4  H   UNL     1       2.634   8.189  18.728  0.00  0.00    +0.000 HD
ENDROOT
BRANCH   3   5
ATOM      5  N   UNL     1       1.427   8.650  20.303  0.00  0.00    +0.000 NA
ATOM      6  C   UNL     1       1.077   9.732  19.649  0.00  0.00    +0.000 C 
ATOM      7  C   UNL     1       1.664  10.103  18.261  0.00  0.00    +0.000 C 
ATOM      8  O   UNL     1       2.113   9.326  17.444  0.00  0.00    +0.000 OA
ATOM      9  N   UNL     1       1.436  11.424  18.085  0.00  0.00    +0.000 N 
ATOM     10  C   UNL     1       0.469  11.844  18.978  0.00  0.00    +0.000 A 
ATOM     11  C   UNL     1      -0.274  12.981  18.771  0.00  0.00    +0.000 A 
ATOM     12  C   UNL     1      -1.395  13.152  19.568  0.00  0.00    +0.000 A 
ATOM     13  C   UNL     1      -1.738  12.238  20.600  0.00  0.00    +0.000 A 
ATOM     14  C   UNL     1      -0.904  11.099  20.823  0.00  0.00    +0.000 A 
ATOM     15  C   UNL     1       0.190  10.890  19.972  0.00  0.00    +0.000 A 
ATOM     16  H   UNL     1       1.673  11.890  17.221  0.00  0.00    +0.000 HD
BRANCH  13  17
ATOM     17  C   UNL     1      -3.114  12.459  21.262  0.00  0.00    +0.000 C 
ATOM     18  C   UNL     1      -3.127  12.478  22.790  0.00  0.00    +0.000 C 
ATOM     19  C   UNL     1      -3.877  13.706  20.760  0.00  0.00    +0.000 C 
ENDBRANCH  13  17
ENDBRANCH   3   5
BRANCH   1  22
ATOM     20  C   UNL     1       5.230   5.878  17.109  0.00  0.00    +0.000 A 
ATOM     21  C   UNL     1       4.287   6.492  17.985  0.00  0.00    +0.000 A 
ATOM     22  C   UNL     1       3.305   5.740  18.648  0.00  0.00    +0.000 A 
ATOM     23  C   UNL     1       3.243   4.381  18.323  0.00  0.00    +0.000 A 
ATOM     24  C   UNL     1       4.152   3.758  17.463  0.00  0.00    +0.000 A 
ATOM     25  C   UNL     1       5.165   4.493  16.839  0.00  0.00    +0.000 A 
BRANCH  20  27
ATOM     26  C   UNL     1       7.310   7.036  17.229  0.00  0.00    +0.000 C 
ATOM     27  O   UNL     1       6.199   6.600  16.454  0.00  0.00    +0.000 OA
ENDBRANCH  20  27
BRANCH  24  28
ATOM     28  O   UNL     1       3.876   2.422  17.280  0.00  0.00    +0.000 OA
ATOM     29  C   UNL     1       3.061   1.805  18.269  0.00  0.00    +0.000 C 
ENDBRANCH  24  28
BRANCH  25  30
ATOM     30  O   UNL     1       5.935   3.764  15.981  0.00  0.00    +0.000 OA
ATOM     31  C   UNL     1       5.925   3.993  14.586  0.00  0.00    +0.000 C 
ENDBRANCH  25  30
ENDBRANCH   1  22
TORSDOF 6
ENDMDL
MODEL 2
REMARK VINA RESULT:      -7.8      0.377      2.379
REMARK  Name = 
REMARK  11 active torsions:
REMARK  status: ('A' for Active; 'I' for Inactive)
REMARK    1  A    between atoms: C_1  and  O_2
REMARK    2  A    between atoms: O_2  and  C_3
REMARK    3  A    between atoms: C_5  and  C_6
REMARK    4  A    between atoms: N_8  and  N_9
REMARK    5  A    between atoms: C_17  and  C_18
REMARK    6  A    between atoms: C_18  and  C_19
REMARK    7  A    between atoms: C_18  and  C_20
REMARK    8  A    between atoms: C_24  and  O_25
REMARK    9  A    between atoms: O_25  and  C_26
REMARK   10  A    between atoms: C_27  and  O_28
REMARK   11  A    between atoms: O_28  and  C_29
REMARK                            x       y       z     vdW  Elec       q    Type
REMARK                         _______ _______ _______ _____ _____    ______ ____
ROOT
ATOM      1  C   UNL     1       2.295   6.370  19.774  0.00  0.00    +0.000 C 
ATOM      2  O   UNL     1       1.762   5.706  20.665  0.00  0.00    +0.000 OA
ATOM      3  N   UNL     1       2.116   7.739  19.547  0.00  0.00    +0.000 N 
ATOM      4  H   UNL     1       2.638   8.152  18.785  0.00  0.00    +0.000 HD
ENDROOT
BRANCH   3   5
ATOM      5  N   UNL     1       1.414   8.677  20.325  0.00  0.00    +0.000 NA
ATOM      6  C   UNL     1       1.074   9.738  19.632  0.00  0.00    +0.000 C 
ATOM      7  C   UNL     1       1.665  10.053  18.231  0.00  0.00    +0.000 C 
ATOM      8  O   UNL     1       2.108   9.243  17.444  0.00  0.00    +0.000 OA
ATOM      9  N   UNL     1       1.449  11.368  18.007  0.00  0.00    +0.000 N 
ATOM     10  C   UNL     1       0.485  11.829  18.883  0.00  0.00    +0.000 A 
ATOM     11  C   UNL     1      -0.248  12.964  18.633  0.00  0.00    +0.000 A 
ATOM     12  C   UNL     1      -1.368  13.174  19.422  0.00  0.00    +0.000 A 
ATOM     13  C   UNL     1      -1.720  12.302  20.487  0.00  0.00    +0.000 A 
ATOM     14  C   UNL     1      -0.897  11.164  20.753  0.00  0.00    +0.000 A 
ATOM     15  C   UNL     1       0.197  10.915  19.911  0.00  0.00    +0.000 A 
ATOM     16  H   UNL     1       1.691  11.800  17.126  0.00  0.00    +0.000 HD
BRANCH  13  17
ATOM     17  C   UNL     1      -3.095  12.559  21.138  0.00  0.00    +0.000 C 
ATOM     18  C   UNL     1      -3.132  13.640  22.218  0.00  0.00    +0.000 C 
ATOM     19  C   UNL     1      -4.239  12.839  20.138  0.00  0.00    +0.000 C 
ENDBRANCH  13  17
ENDBRANCH   3   5
BRANCH   1  22
ATOM     20  C   UNL     1       4.007   3.693  17.526  0.00  0.00    +0.000 A 
ATOM     21  C   UNL     1       3.197   4.303  18.528  0.00  0.00    +0.000 A 
ATOM     22  C   UNL     1       3.249   5.685  18.772  0.00  0.00    +0.000 A 
ATOM     23  C   UNL     1       4.208   6.404  18.051  0.00  0.00    +0.000 A 
ATOM     24  C   UNL     1       5.018   5.827  17.069  0.00  0.00    +0.000 A 
ATOM     25  C   UNL     1       4.934   4.461  16.785  0.00  0.00    +0.000 A 
BRANCH  20  27
ATOM     26  C   UNL     1       3.520   1.504  18.332  0.00  0.00    +0.000 C 
ATOM     27  O   UNL     1       3.967   2.343  17.273  0.00  0.00    +0.000 OA
ENDBRANCH  20  27
BRANCH  24  28
ATOM     28  O   UNL     1       5.897   6.728  16.513  0.00  0.00    +0.000 OA
ATOM     29  C   UNL     1       7.026   7.079  17.304  0.00  0.00    +0.000 C 
ENDBRANCH  24  28
BRANCH  25  30
ATOM     30  O   UNL     1       5.827   4.030  15.849  0.00  0.00    +0.000 OA
ATOM     31  C   UNL     1       5.629   4.248  14.465  0.00  0.00    +0.000 C 
ENDBRANCH  25  30
ENDBRANCH   1  22
TORSDOF 6
ENDMDL
MODEL 3
REMARK VINA RESULT:      -7.8      2.116      3.231
REMARK  Name = 
REMARK  11 active torsions:
REMARK  status: ('A' for Active; 'I' for Inactive)
REMARK    1  A    between atoms: C_1  and  O_2
REMARK    2  A    between atoms: O_2  and  C_3
REMARK    3  A    between atoms: C_5  and  C_6
REMARK    4  A    between atoms: N_8  and  N_9
REMARK    5  A    between atoms: C_17  and  C_18
REMARK    6  A    between atoms: C_18  and  C_19
REMARK    7  A    between atoms: C_18  and  C_20
REMARK    8  A    between atoms: C_24  and  O_25
REMARK    9  A    between atoms: O_25  and  C_26
REMARK   10  A    between atoms: C_27  and  O_28
REMARK   11  A    between atoms: O_28  and  C_29
REMARK                            x       y       z     vdW  Elec       q    Type
REMARK                         _______ _______ _______ _____ _____    ______ ____
ROOT
ATOM      1  C   UNL     1       2.701   7.817  18.000  0.00  0.00    +0.000 C 
ATOM      2  O   UNL     1       3.000   8.411  16.963  0.00  0.00    +0.000 OA
ATOM      3  N   UNL     1       1.949   8.336  19.061  0.00  0.00    +0.000 N 
ATOM      4  H   UNL     1       1.767   7.720  19.842  0.00  0.00    +0.000 HD
ENDROOT
BRANCH   3   5
ATOM      5  N   UNL     1       1.274   9.568  19.142  0.00  0.00    +0.000 NA
ATOM      6  C   UNL     1       0.687   9.733  20.304  0.00  0.00    +0.000 C 
ATOM      7  C   UNL     1       0.488   8.576  21.318  0.00  0.00    +0.000 C 
ATOM      8  O   UNL     1       1.174   7.578  21.408  0.00  0.00    +0.000 OA
ATOM      9  N   UNL     1      -0.487   8.968  22.168  0.00  0.00    +0.000 N 
ATOM     10  C   UNL     1      -0.659  10.336  22.067  0.00  0.00    +0.000 A 
ATOM     11  C   UNL     1      -1.240  11.075  23.067  0.00  0.00    +0.000 A 
ATOM     12  C   UNL     1      -1.104  12.453  22.988  0.00  0.00    +0.000 A 
ATOM     13  C   UNL     1      -0.455  13.090  21.897  0.00  0.00    +0.000 A 
ATOM     14  C   UNL     1       0.084  12.286  20.845  0.00  0.00    +0.000 A 
ATOM     15  C   UNL     1       0.007  10.890  20.960  0.00  0.00    +0.000 A 
ATOM     16  H   UNL     1      -0.754   8.404  22.962  0.00  0.00    +0.000 HD
BRANCH  13  17
ATOM     17  C   UNL     1      -0.211  14.605  22.054  0.00  0.00    +0.000 C 
ATOM     18  C   UNL     1      -0.751  15.241  23.334  0.00  0.00    +0.000 C 
ATOM     19  C   UNL     1       1.262  15.041  21.885  0.00  0.00    +0.000 C 
ENDBRANCH  13  17
ENDBRANCH   3   5
BRANCH   1  22
ATOM     20  C   UNL     1       4.980   4.716  18.582  0.00  0.00    +0.000 A 
ATOM     21  C   UNL     1       4.544   6.038  18.274  0.00  0.00    +0.000 A 
ATOM     22  C   UNL     1       3.179   6.366  18.221  0.00  0.00    +0.000 A 
ATOM     23  C   UNL     1       2.282   5.306  18.387  0.00  0.00    +0.000 A 
ATOM     24  C   UNL     1       2.686   4.001  18.683  0.00  0.00    +0.000 A 
ATOM     25  C   UNL     1       4.042   3.679  18.788  0.00  0.00    +0.000 A 
BRANCH  20  27
ATOM     26  C   UNL     1       7.118   4.757  17.529  0.00  0.00    +0.000 C 
ATOM     27  O   UNL     1       6.311   4.379  18.639  0.00  0.00    +0.000 OA
ENDBRANCH  20  27
BRANCH  24  28
ATOM     28  O   UNL     1       1.625   3.129  18.779  0.00  0.00    +0.000 OA
ATOM     29  C   UNL     1       0.929   3.116  20.019  0.00  0.00    +0.000 C 
ENDBRANCH  24  28
BRANCH  25  30
ATOM     30  O   UNL     1       4.285   2.357  19.019  0.00  0.00    +0.000 OA
ATOM     31  C   UNL     1       4.580   1.863  20.312  0.00  0.00    +0.000 C 
ENDBRANCH  25  30
ENDBRANCH   1  22
TORSDOF 6
ENDMDL
MODEL 4
REMARK VINA RESULT:      -7.5      2.084      3.792
REMARK  Name = 
REMARK  11 active torsions:
REMARK  status: ('A' for Active; 'I' for Inactive)
REMARK    1  A    between atoms: C_1  and  O_2
REMARK    2  A    between atoms: O_2  and  C_3
REMARK    3  A    between atoms: C_5  and  C_6
REMARK    4  A    between atoms: N_8  and  N_9
REMARK    5  A    between atoms: C_17  and  C_18
REMARK    6  A    between atoms: C_18  and  C_19
REMARK    7  A    between atoms: C_18  and  C_20
REMARK    8  A    between atoms: C_24  and  O_25
REMARK    9  A    between atoms: O_25  and  C_26
REMARK   10  A    between atoms: C_27  and  O_28
REMARK   11  A    between atoms: O_28  and  C_29
REMARK                            x       y       z     vdW  Elec       q    Type
REMARK                         _______ _______ _______ _____ _____    ______ ____
ROOT
ATOM      1  C   UNL     1       2.504   7.894  17.989  0.00  0.00    +0.000 C 
ATOM      2  O   UNL     1       2.839   8.488  16.962  0.00  0.00    +0.000 OA
ATOM      3  N   UNL     1       1.728   8.418  19.028  0.00  0.00    +0.000 N 
ATOM      4  H   UNL     1       1.517   7.802  19.803  0.00  0.00    +0.000 HD
ENDROOT
BRANCH   3   5
ATOM      5  N   UNL     1       1.062   9.656  19.093  0.00  0.00    +0.000 NA
ATOM      6  C   UNL     1       0.550   9.880  20.280  0.00  0.00    +0.000 C 
ATOM      7  C   UNL     1       0.414   8.773  21.360  0.00  0.00    +0.000 C 
ATOM      8  O   UNL     1       1.102   7.777  21.453  0.00  0.00    +0.000 OA
ATOM      9  N   UNL     1      -0.504   9.211  22.250  0.00  0.00    +0.000 N 
ATOM     10  C   UNL     1      -0.678  10.573  22.095  0.00  0.00    +0.000 A 
ATOM     11  C   UNL     1      -1.193  11.363  23.093  0.00  0.00    +0.000 A 
ATOM     12  C   UNL     1      -1.059  12.734  22.940  0.00  0.00    +0.000 A 
ATOM     13  C   UNL     1      -0.480  13.315  21.780  0.00  0.00    +0.000 A 
ATOM     14  C   UNL     1      -0.011  12.458  20.736  0.00  0.00    +0.000 A 
ATOM     15  C   UNL     1      -0.084  11.071  20.922  0.00  0.00    +0.000 A 
ATOM     16  H   UNL     1      -0.721   8.687  23.086  0.00  0.00    +0.000 HD
BRANCH  13  17
ATOM     17  C   UNL     1      -0.222  14.835  21.847  0.00  0.00    +0.000 C 
ATOM     18  C   UNL     1       1.230  15.259  22.060  0.00  0.00    +0.000 C 
ATOM     19  C   UNL     1      -0.787  15.637  20.653  0.00  0.00    +0.000 C 
ENDBRANCH  13  17
ENDBRANCH   3   5
BRANCH   1  22
ATOM     20  C   UNL     1       2.576   4.003  18.081  0.00  0.00    +0.000 A 
ATOM     21  C   UNL     1       2.114   5.348  17.968  0.00  0.00    +0.000 A 
ATOM     22  C   UNL     1       2.963   6.438  18.219  0.00  0.00    +0.000 A 
ATOM     23  C   UNL     1       4.246   6.128  18.681  0.00  0.00    +0.000 A 
ATOM     24  C   UNL     1       4.719   4.819  18.807  0.00  0.00    +0.000 A 
ATOM     25  C   UNL     1       3.895   3.730  18.508  0.00  0.00    +0.000 A 
BRANCH  20  27
ATOM     26  C   UNL     1       0.827   2.582  18.856  0.00  0.00    +0.000 C 
ATOM     27  O   UNL     1       1.759   2.926  17.837  0.00  0.00    +0.000 OA
ENDBRANCH  20  27
BRANCH  24  28
ATOM     28  O   UNL     1       6.002   4.767  19.300  0.00  0.00    +0.000 OA
ATOM     29  C   UNL     1       7.047   5.033  18.372  0.00  0.00    +0.000 C 
ENDBRANCH  24  28
BRANCH  25  30
ATOM     30  O   UNL     1       4.472   2.515  18.736  0.00  0.00    +0.000 OA
ATOM     31  C   UNL     1       4.424   1.889  20.004  0.00  0.00    +0.000 C 
ENDBRANCH  25  30
ENDBRANCH   1  22
TORSDOF 6
ENDMDL
MODEL 5
REMARK VINA RESULT:      -7.5      1.966      3.753
REMARK  Name = 
REMARK  11 active torsions:
REMARK  status: ('A' for Active; 'I' for Inactive)
REMARK    1  A    between atoms: C_1  and  O_2
REMARK    2  A    between atoms: O_2  and  C_3
REMARK    3  A    between atoms: C_5  and  C_6
REMARK    4  A    between atoms: N_8  and  N_9
REMARK    5  A    between atoms: C_17  and  C_18
REMARK    6  A    between atoms: C_18  and  C_19
REMARK    7  A    between atoms: C_18  and  C_20
REMARK    8  A    between atoms: C_24  and  O_25
REMARK    9  A    between atoms: O_25  and  C_26
REMARK   10  A    between atoms: C_27  and  O_28
REMARK   11  A    between atoms: O_28  and  C_29
REMARK                            x       y       z     vdW  Elec       q    Type
REMARK                         _______ _______ _______ _____ _____    ______ ____
ROOT
ATOM      1  C   UNL     1       2.426   8.027  18.192  0.00  0.00    +0.000 C 
ATOM      2  O   UNL     1       2.693   8.561  17.113  0.00  0.00    +0.000 OA
ATOM      3  N   UNL     1       1.704   8.605  19.242  0.00  0.00    +0.000 N 
ATOM      4  H   UNL     1       1.547   8.035  20.063  0.00  0.00    +0.000 HD
ENDROOT
BRANCH   3   5
ATOM      5  N   UNL     1       1.027   9.838  19.271  0.00  0.00    +0.000 NA
ATOM      6  C   UNL     1       0.487  10.077  20.443  0.00  0.00    +0.000 C 
ATOM      7  C   UNL     1       0.338   8.988  21.538  0.00  0.00    +0.000 C 
ATOM      8  O   UNL     1       1.032   8.000  21.663  0.00  0.00    +0.000 OA
ATOM      9  N   UNL     1      -0.603   9.433  22.401  0.00  0.00    +0.000 N 
ATOM     10  C   UNL     1      -0.786  10.790  22.218  0.00  0.00    +0.000 A 
ATOM     11  C   UNL     1      -1.328  11.592  23.192  0.00  0.00    +0.000 A 
ATOM     12  C   UNL     1      -1.203  12.962  23.018  0.00  0.00    +0.000 A 
ATOM     13  C   UNL     1      -0.603  13.528  21.861  0.00  0.00    +0.000 A 
ATOM     14  C   UNL     1      -0.105  12.658  20.842  0.00  0.00    +0.000 A 
ATOM     15  C   UNL     1      -0.170  11.273  21.051  0.00  0.00    +0.000 A 
ATOM     16  H   UNL     1      -0.834   8.921  23.241  0.00  0.00    +0.000 HD
BRANCH  13  17
ATOM     17  C   UNL     1      -0.361  15.051  21.909  0.00  0.00    +0.000 C 
ATOM     18  C   UNL     1      -0.092  15.728  20.565  0.00  0.00    +0.000 C 
ATOM     19  C   UNL     1      -1.458  15.856  22.641  0.00  0.00    +0.000 C 
ENDBRANCH  13  17
ENDBRANCH   3   5
BRANCH   1  22
ATOM     20  C   UNL     1       2.915   4.546  19.863  0.00  0.00    +0.000 A 
ATOM     21  C   UNL     1       2.546   5.906  19.650  0.00  0.00    +0.000 A 
ATOM     22  C   UNL     1       2.917   6.592  18.482  0.00  0.00    +0.000 A 
ATOM     23  C   UNL     1       3.747   5.898  17.595  0.00  0.00    +0.000 A 
ATOM     24  C   UNL     1       4.127   4.567  17.786  0.00  0.00    +0.000 A 
ATOM     25  C   UNL     1       3.718   3.863  18.922  0.00  0.00    +0.000 A 
BRANCH  20  27
ATOM     26  C   UNL     1       1.289   3.217  20.991  0.00  0.00    +0.000 C 
ATOM     27  O   UNL     1       2.559   3.860  20.999  0.00  0.00    +0.000 OA
ENDBRANCH  20  27
BRANCH  24  28
ATOM     28  O   UNL     1       4.962   4.110  16.793  0.00  0.00    +0.000 OA
ATOM     29  C   UNL     1       5.992   4.997  16.374  0.00  0.00    +0.000 C 
ENDBRANCH  24  28
BRANCH  25  30
ATOM     30  O   UNL     1       4.217   2.595  19.002  0.00  0.00    +0.000 OA
ATOM     31  C   UNL     1       3.509   1.478  18.501  0.00  0.00    +0.000 C 
ENDBRANCH  25  30
ENDBRANCH   1  22
TORSDOF 6
ENDMDL
MODEL 6
REMARK VINA RESULT:      -7.4      1.955      3.263
REMARK  Name = 
REMARK  11 active torsions:
REMARK  status: ('A' for Active; 'I' for Inactive)
REMARK    1  A    between atoms: C_1  and  O_2
REMARK    2  A    between atoms: O_2  and  C_3
REMARK    3  A    between atoms: C_5  and  C_6
REMARK    4  A    between atoms: N_8  and  N_9
REMARK    5  A    between atoms: C_17  and  C_18
REMARK    6  A    between atoms: C_18  and  C_19
REMARK    7  A    between atoms: C_18  and  C_20
REMARK    8  A    between atoms: C_24  and  O_25
REMARK    9  A    between atoms: O_25  and  C_26
REMARK   10  A    between atoms: C_27  and  O_28
REMARK   11  A    between atoms: O_28  and  C_29
REMARK                            x       y       z     vdW  Elec       q    Type
REMARK                         _______ _______ _______ _____ _____    ______ ____
ROOT
ATOM      1  C   UNL     1       2.468   8.078  18.149  0.00  0.00    +0.000 C 
ATOM      2  O   UNL     1       2.646   8.602  17.048  0.00  0.00    +0.000 OA
ATOM      3  N   UNL     1       1.738   8.622  19.212  0.00  0.00    +0.000 N 
ATOM      4  H   UNL     1       1.661   8.064  20.053  0.00  0.00    +0.000 HD
ENDROOT
BRANCH   3   5
ATOM      5  N   UNL     1       0.957   9.792  19.237  0.00  0.00    +0.000 NA
ATOM      6  C   UNL     1       0.448  10.021  20.425  0.00  0.00    +0.000 C 
ATOM      7  C   UNL     1       0.439   8.957  21.555  0.00  0.00    +0.000 C 
ATOM      8  O   UNL     1       1.221   8.037  21.677  0.00  0.00    +0.000 OA
ATOM      9  N   UNL     1      -0.501   9.346  22.445  0.00  0.00    +0.000 N 
ATOM     10  C   UNL     1      -0.808  10.676  22.234  0.00  0.00    +0.000 A 
ATOM     11  C   UNL     1      -1.378  11.459  23.208  0.00  0.00    +0.000 A 
ATOM     12  C   UNL     1      -1.380  12.828  22.991  0.00  0.00    +0.000 A 
ATOM     13  C   UNL     1      -0.880  13.407  21.794  0.00  0.00    +0.000 A 
ATOM     14  C   UNL     1      -0.351  12.552  20.779  0.00  0.00    +0.000 A 
ATOM     15  C   UNL     1      -0.286  11.174  21.027  0.00  0.00    +0.000 A 
ATOM     16  H   UNL     1      -0.651   8.843  23.308  0.00  0.00    +0.000 HD
BRANCH  13  17
ATOM     17  C   UNL     1      -0.770  14.946  21.788  0.00  0.00    +0.000 C 
ATOM     18  C   UNL     1      -1.786  15.687  20.921  0.00  0.00    +0.000 C 
ATOM     19  C   UNL     1      -0.770  15.597  23.190  0.00  0.00    +0.000 C 
ENDBRANCH  13  17
ENDBRANCH   3   5
BRANCH   1  22
ATOM     20  C   UNL     1       4.830   4.985  18.088  0.00  0.00    +0.000 A 
ATOM     21  C   UNL     1       4.192   6.210  17.733  0.00  0.00    +0.000 A 
ATOM     22  C   UNL     1       3.092   6.699  18.456  0.00  0.00    +0.000 A 
ATOM     23  C   UNL     1       2.601   5.872  19.471  0.00  0.00    +0.000 A 
ATOM     24  C   UNL     1       3.205   4.665  19.833  0.00  0.00    +0.000 A 
ATOM     25  C   UNL     1       4.332   4.197  19.151  0.00  0.00    +0.000 A 
BRANCH  20  27
ATOM     26  C   UNL     1       5.669   4.062  16.057  0.00  0.00    +0.000 C 
ATOM     27  O   UNL     1       5.908   4.492  17.392  0.00  0.00    +0.000 OA
ENDBRANCH  20  27
BRANCH  24  28
ATOM     28  O   UNL     1       2.530   4.019  20.843  0.00  0.00    +0.000 OA
ATOM     29  C   UNL     1       1.131   3.845  20.657  0.00  0.00    +0.000 C 
ENDBRANCH  24  28
BRANCH  25  30
ATOM     30  O   UNL     1       4.774   2.977  19.573  0.00  0.00    +0.000 OA
ATOM     31  C   UNL     1       4.148   1.773  19.173  0.00  0.00    +0.000 C 
ENDBRANCH  25  30
ENDBRANCH   1  22
TORSDOF 6
ENDMDL
MODEL 7
REMARK VINA RESULT:      -7.3      1.950      3.831
REMARK  Name = 
REMARK  11 active torsions:
REMARK  status: ('A' for Active; 'I' for Inactive)
REMARK    1  A    between atoms: C_1  and  O_2
REMARK    2  A    between atoms: O_2  and  C_3
REMARK    3  A    between atoms: C_5  and  C_6
REMARK    4  A    between atoms: N_8  and  N_9
REMARK    5  A    between atoms: C_17  and  C_18
REMARK    6  A    between atoms: C_18  and  C_19
REMARK    7  A    between atoms: C_18  and  C_20
REMARK    8  A    between atoms: C_24  and  O_25
REMARK    9  A    between atoms: O_25  and  C_26
REMARK   10  A    between atoms: C_27  and  O_28
REMARK   11  A    between atoms: O_28  and  C_29
REMARK                            x       y       z     vdW  Elec       q    Type
REMARK                         _______ _______ _______ _____ _____    ______ ____
ROOT
ATOM      1  C   UNL     1       1.956   8.674  18.297  0.00  0.00    +0.000 C 
ATOM      2  O   UNL     1       2.320   9.313  17.308  0.00  0.00    +0.000 OA
ATOM      3  N   UNL     1       0.975   9.066  19.215  0.00  0.00    +0.000 N 
ATOM      4  H   UNL     1       0.769   8.425  19.971  0.00  0.00    +0.000 HD
ENDROOT
BRANCH   3   5
ATOM      5  N   UNL     1       0.112  10.176  19.163  0.00  0.00    +0.000 NA
ATOM      6  C   UNL     1      -0.087  10.702  20.349  0.00  0.00    +0.000 C 
ATOM      7  C   UNL     1       0.312   9.984  21.666  0.00  0.00    +0.000 C 
ATOM      8  O   UNL     1       1.189   9.154  21.790  0.00  0.00    +0.000 OA
ATOM      9  N   UNL     1      -0.395  10.572  22.657  0.00  0.00    +0.000 N 
ATOM     10  C   UNL     1      -0.883  11.786  22.213  0.00  0.00    +0.000 A 
ATOM     11  C   UNL     1      -1.253  12.786  23.078  0.00  0.00    +0.000 A 
ATOM     12  C   UNL     1      -1.453  14.045  22.533  0.00  0.00    +0.000 A 
ATOM     13  C   UNL     1      -1.349  14.292  21.138  0.00  0.00    +0.000 A 
ATOM     14  C   UNL     1      -1.020  13.211  20.264  0.00  0.00    +0.000 A 
ATOM     15  C   UNL     1      -0.750  11.953  20.823  0.00  0.00    +0.000 A 
ATOM     16  H   UNL     1      -0.259  10.316  23.625  0.00  0.00    +0.000 HD
BRANCH  13  17
ATOM     17  C   UNL     1      -1.403  15.775  20.714  0.00  0.00    +0.000 C 
ATOM     18  C   UNL     1      -0.694  16.124  19.406  0.00  0.00    +0.000 C 
ATOM     19  C   UNL     1      -2.824  16.380  20.666  0.00  0.00    +0.000 C 
ENDBRANCH  13  17
ENDBRANCH   3   5
BRANCH   1  22
ATOM     20  C   UNL     1       2.768   5.258  19.976  0.00  0.00    +0.000 A 
ATOM     21  C   UNL     1       2.233   6.559  19.741  0.00  0.00    +0.000 A 
ATOM     22  C   UNL     1       2.614   7.315  18.620  0.00  0.00    +0.000 A 
ATOM     23  C   UNL     1       3.613   6.764  17.813  0.00  0.00    +0.000 A 
ATOM     24  C   UNL     1       4.157   5.495  18.027  0.00  0.00    +0.000 A 
ATOM     25  C   UNL     1       3.745   4.714  19.111  0.00  0.00    +0.000 A 
BRANCH  20  27
ATOM     26  C   UNL     1       1.285   3.642  20.908  0.00  0.00    +0.000 C 
ATOM     27  O   UNL     1       2.406   4.504  21.067  0.00  0.00    +0.000 OA
ENDBRANCH  20  27
BRANCH  24  28
ATOM     28  O   UNL     1       5.138   5.180  17.115  0.00  0.00    +0.000 OA
ATOM     29  C   UNL     1       5.353   6.118  16.068  0.00  0.00    +0.000 C 
ENDBRANCH  24  28
BRANCH  25  30
ATOM     30  O   UNL     1       4.406   3.527  19.228  0.00  0.00    +0.000 OA
ATOM     31  C   UNL     1       3.875   2.320  18.718  0.00  0.00    +0.000 C 
ENDBRANCH  25  30
ENDBRANCH   1  22
TORSDOF 6
ENDMDL
MODEL 8
REMARK VINA RESULT:      -7.2      0.854      2.516
REMARK  Name = 
REMARK  11 active torsions:
REMARK  status: ('A' for Active; 'I' for Inactive)
REMARK    1  A    between atoms: C_1  and  O_2
REMARK    2  A    between atoms: O_2  and  C_3
REMARK    3  A    between atoms: C_5  and  C_6
REMARK    4  A    between atoms: N_8  and  N_9
REMARK    5  A    between atoms: C_17  and  C_18
REMARK    6  A    between atoms: C_18  and  C_19
REMARK    7  A    between atoms: C_18  and  C_20
REMARK    8  A    between atoms: C_24  and  O_25
REMARK    9  A    between atoms: O_25  and  C_26
REMARK   10  A    between atoms: C_27  and  O_28
REMARK   11  A    between atoms: O_28  and  C_29
REMARK                            x       y       z     vdW  Elec       q    Type
REMARK                         _______ _______ _______ _____ _____    ______ ____
ROOT
ATOM      1  C   UNL     1       1.989   6.747  20.027  0.00  0.00    +0.000 C 
ATOM      2  O   UNL     1       1.505   6.077  20.941  0.00  0.00    +0.000 OA
ATOM      3  N   UNL     1       1.853   8.129  19.857  0.00  0.00    +0.000 N 
ATOM      4  H   UNL     1       2.325   8.545  19.065  0.00  0.00    +0.000 HD
ENDROOT
BRANCH   3   5
ATOM      5  N   UNL     1       1.264   9.070  20.722  0.00  0.00    +0.000 NA
ATOM      6  C   UNL     1       0.741  10.081  20.070  0.00  0.00    +0.000 C 
ATOM      7  C   UNL     1       1.035  10.358  18.571  0.00  0.00    +0.000 C 
ATOM      8  O   UNL     1       1.361   9.533  17.743  0.00  0.00    +0.000 OA
ATOM      9  N   UNL     1       0.710  11.650  18.345  0.00  0.00    +0.000 N 
ATOM     10  C   UNL     1      -0.091  12.107  19.374  0.00  0.00    +0.000 A 
ATOM     11  C   UNL     1      -0.916  13.195  19.231  0.00  0.00    +0.000 A 
ATOM     12  C   UNL     1      -1.874  13.390  20.214  0.00  0.00    +0.000 A 
ATOM     13  C   UNL     1      -1.968  12.553  21.358  0.00  0.00    +0.000 A 
ATOM     14  C   UNL     1      -1.050  11.467  21.500  0.00  0.00    +0.000 A 
ATOM     15  C   UNL     1      -0.127  11.228  20.471  0.00  0.00    +0.000 A 
ATOM     16  H   UNL     1       0.756  12.052  17.419  0.00  0.00    +0.000 HD
BRANCH  13  17
ATOM     17  C   UNL     1      -3.204  12.778  22.254  0.00  0.00    +0.000 C 
ATOM     18  C   UNL     1      -3.148  12.143  23.643  0.00  0.00    +0.000 C 
ATOM     19  C   UNL     1      -3.619  14.257  22.419  0.00  0.00    +0.000 C 
ENDBRANCH  13  17
ENDBRANCH   3   5
BRANCH   1  22
ATOM     20  C   UNL     1       3.340   4.093  17.520  0.00  0.00    +0.000 A 
ATOM     21  C   UNL     1       2.646   4.699  18.608  0.00  0.00    +0.000 A 
ATOM     22  C   UNL     1       2.820   6.057  18.924  0.00  0.00    +0.000 A 
ATOM     23  C   UNL     1       3.780   6.747  18.177  0.00  0.00    +0.000 A 
ATOM     24  C   UNL     1       4.477   6.173  17.111  0.00  0.00    +0.000 A 
ATOM     25  C   UNL     1       4.271   4.836  16.759  0.00  0.00    +0.000 A 
BRANCH  20  27
ATOM     26  C   UNL     1       2.507   1.951  18.149  0.00  0.00    +0.000 C 
ATOM     27  O   UNL     1       3.181   2.767  17.198  0.00  0.00    +0.000 OA
ENDBRANCH  20  27
BRANCH  24  28
ATOM     28  O   UNL     1       5.383   7.040  16.545  0.00  0.00    +0.000 OA
ATOM     29  C   UNL     1       6.618   7.202  17.232  0.00  0.00    +0.000 C 
ENDBRANCH  24  28
BRANCH  25  30
ATOM     30  O   UNL     1       5.065   4.398  15.740  0.00  0.00    +0.000 OA
ATOM     31  C   UNL     1       6.304   3.756  15.977  0.00  0.00    +0.000 C 
ENDBRANCH  25  30
ENDBRANCH   1  22
TORSDOF 6
ENDMDL
MODEL 9
REMARK VINA RESULT:      -7.1      1.939      3.201
REMARK  Name = 
REMARK  11 active torsions:
REMARK  status: ('A' for Active; 'I' for Inactive)
REMARK    1  A    between atoms: C_1  and  O_2
REMARK    2  A    between atoms: O_2  and  C_3
REMARK    3  A    between atoms: C_5  and  C_6
REMARK    4  A    between atoms: N_8  and  N_9
REMARK    5  A    between atoms: C_17  and  C_18
REMARK    6  A    between atoms: C_18  and  C_19
REMARK    7  A    between atoms: C_18  and  C_20
REMARK    8  A    between atoms: C_24  and  O_25
REMARK    9  A    between atoms: O_25  and  C_26
REMARK   10  A    between atoms: C_27  and  O_28
REMARK   11  A    between atoms: O_28  and  C_29
REMARK                            x       y       z     vdW  Elec       q    Type
REMARK                         _______ _______ _______ _____ _____    ______ ____
ROOT
ATOM      1  C   UNL     1       2.920   7.775  17.670  0.00  0.00    +0.000 C 
ATOM      2  O   UNL     1       3.671   8.451  16.964  0.00  0.00    +0.000 OA
ATOM      3  N   UNL     1       1.689   8.186  18.193  0.00  0.00    +0.000 N 
ATOM      4  H   UNL     1       1.172   7.511  18.742  0.00  0.00    +0.000 HD
ENDROOT
BRANCH   3   5
ATOM      5  N   UNL     1       0.980   9.376  17.946  0.00  0.00    +0.000 NA
ATOM      6  C   UNL     1       0.640   9.988  19.056  0.00  0.00    +0.000 C 
ATOM      7  C   UNL     1       0.722   9.310  20.449  0.00  0.00    +0.000 C 
ATOM      8  O   UNL     1       1.465   8.401  20.759  0.00  0.00    +0.000 OA
ATOM      9  N   UNL     1      -0.074  10.025  21.275  0.00  0.00    +0.000 N 
ATOM     10  C   UNL     1      -0.336  11.256  20.705  0.00  0.00    +0.000 A 
ATOM     11  C   UNL     1      -0.735  12.337  21.451  0.00  0.00    +0.000 A 
ATOM     12  C   UNL     1      -0.693  13.577  20.831  0.00  0.00    +0.000 A 
ATOM     13  C   UNL     1      -0.323  13.731  19.469  0.00  0.00    +0.000 A 
ATOM     14  C   UNL     1       0.026  12.572  18.709  0.00  0.00    +0.000 A 
ATOM     15  C   UNL     1       0.051  11.328  19.356  0.00  0.00    +0.000 A 
ATOM     16  H   UNL     1      -0.137   9.813  22.261  0.00  0.00    +0.000 HD
BRANCH  13  17
ATOM     17  C   UNL     1      -0.134  15.184  18.985  0.00  0.00    +0.000 C 
ATOM     18  C   UNL     1      -0.875  16.256  19.783  0.00  0.00    +0.000 C 
ATOM     19  C   UNL     1       1.339  15.628  18.838  0.00  0.00    +0.000 C 
ENDBRANCH  13  17
ENDBRANCH   3   5
BRANCH   1  22
ATOM     20  C   UNL     1       5.035   4.642  18.598  0.00  0.00    +0.000 A 
ATOM     21  C   UNL     1       4.666   5.939  18.134  0.00  0.00    +0.000 A 
ATOM     22  C   UNL     1       3.322   6.337  18.063  0.00  0.00    +0.000 A 
ATOM     23  C   UNL     1       2.370   5.360  18.375  0.00  0.00    +0.000 A 
ATOM     24  C   UNL     1       2.707   4.082  18.826  0.00  0.00    +0.000 A 
ATOM     25  C   UNL     1       4.045   3.696  18.949  0.00  0.00    +0.000 A 
BRANCH  20  27
ATOM     26  C   UNL     1       7.251   4.808  17.737  0.00  0.00    +0.000 C 
ATOM     27  O   UNL     1       6.346   4.237  18.675  0.00  0.00    +0.000 OA
ENDBRANCH  20  27
BRANCH  24  28
ATOM     28  O   UNL     1       1.602   3.292  19.049  0.00  0.00    +0.000 OA
ATOM     29  C   UNL     1       0.876   3.545  20.246  0.00  0.00    +0.000 C 
ENDBRANCH  24  28
BRANCH  25  30
ATOM     30  O   UNL     1       4.220   2.401  19.340  0.00  0.00    +0.000 OA
ATOM     31  C   UNL     1       4.483   2.053  20.686  0.00  0.00    +0.000 C 
ENDBRANCH  25  30
ENDBRANCH   1  22
TORSDOF 6
ENDMDL
