MODEL 1
REMARK VINA RESULT:      -5.9      0.000      0.000
REMARK  Name = 
REMARK  14 active torsions:
REMARK  status: ('A' for Active; 'I' for Inactive)
REMARK    1  A    between atoms: C_1  and  O_2
REMARK    2  A    between atoms: O_2  and  C_3
REMARK    3  A    between atoms: C_5  and  C_6
REMARK    4  A    between atoms: C_6  and  C_7
REMARK    5  A    between atoms: C_7  and  C_8
REMARK    6  A    between atoms: C_7  and  N_9
REMARK    7  A    between atoms: N_9  and  C_10
REMARK    8  A    between atoms: C_10  and  C_11
REMARK    9  A    between atoms: C_11  and  C_12
REMARK   10  A    between atoms: C_12  and  N_13
REMARK   11  A    between atoms: N_13  and  C_14
REMARK   12  A    between atoms: N_13  and  C_15
REMARK   13  A    between atoms: C_16  and  O_17
REMARK   14  A    between atoms: O_17  and  C_18
REMARK                            x       y       z     vdW  Elec       q    Type
REMARK                         _______ _______ _______ _____ _____    ______ ____
ROOT
ATOM      1  C   UNL     1       2.172   7.627  19.091  0.00  0.00    +0.000 A 
ATOM      2  C   UNL     1       2.494   6.520  18.308  0.00  0.00    +0.000 A 
ATOM      3  C   UNL     1       2.283   5.196  18.734  0.00  0.00    +0.000 A 
ATOM      4  C   UNL     1       1.697   5.000  20.000  0.00  0.00    +0.000 A 
ATOM      5  C   UNL     1       1.406   6.099  20.816  0.00  0.00    +0.000 A 
ATOM      6  C   UNL     1       1.642   7.405  20.364  0.00  0.00    +0.000 A 
ATOM      7  I   UNL     1       1.131   8.992  21.636  0.00  0.00    +0.000 I 
ENDROOT
BRANCH   1   9
ATOM      8  C   UNL     1       1.368   9.450  17.796  0.00  0.00    +0.000 C 
ATOM      9  O   UNL     1       2.365   8.916  18.666  0.00  0.00    +0.000 OA
ENDBRANCH   1   9
BRANCH   4  10
ATOM     10  O   UNL     1       1.457   3.697  20.363  0.00  0.00    +0.000 OA
ATOM     11  C   UNL     1       2.097   3.249  21.555  0.00  0.00    +0.000 C 
ENDBRANCH   4  10
BRANCH   3  12
ATOM     12  C   UNL     1       2.619   4.014  17.838  0.00  0.00    +0.000 C 
BRANCH  12  13
ATOM     13  C   UNL     1       3.882   3.173  18.203  0.00  0.00    +0.000 C 
ATOM     14  C   UNL     1       3.631   1.660  18.065  0.00  0.00    +0.000 C 
BRANCH  13  15
ATOM     15  N   UNL     1       5.063   3.457  17.372  0.00  0.00    +0.000 NA
ATOM     16  H   UNL     1       5.516   2.587  17.097  0.00  0.00    +0.000 HD
BRANCH  15  17
ATOM     17  C   UNL     1       4.763   4.264  16.195  0.00  0.00    +0.000 C 
BRANCH  17  18
ATOM     18  C   UNL     1       5.623   5.529  16.191  0.00  0.00    +0.000 C 
BRANCH  18  19
ATOM     19  C   UNL     1       6.026   5.871  17.631  0.00  0.00    +0.000 C 
BRANCH  19  20
ATOM     20  N   UNL     1       7.437   6.249  17.795  0.00  0.00    +0.000 NA
ATOM     21  C   UNL     1       7.656   7.674  17.556  0.00  0.00    +0.000 C 
ATOM     22  C   UNL     1       7.879   5.904  19.149  0.00  0.00    +0.000 C 
ENDBRANCH  19  20
ENDBRANCH  18  19
ENDBRANCH  17  18
ENDBRANCH  15  17
ENDBRANCH  13  15
ENDBRANCH  12  13
ENDBRANCH   3  12
TORSDOF 9
ENDMDL
MODEL 2
REMARK VINA RESULT:      -5.8      2.997      5.344
REMARK  Name = 
REMARK  14 active torsions:
REMARK  status: ('A' for Active; 'I' for Inactive)
REMARK    1  A    between atoms: C_1  and  O_2
REMARK    2  A    between atoms: O_2  and  C_3
REMARK    3  A    between atoms: C_5  and  C_6
REMARK    4  A    between atoms: C_6  and  C_7
REMARK    5  A    between atoms: C_7  and  C_8
REMARK    6  A    between atoms: C_7  and  N_9
REMARK    7  A    between atoms: N_9  and  C_10
REMARK    8  A    between atoms: C_10  and  C_11
REMARK    9  A    between atoms: C_11  and  C_12
REMARK   10  A    between atoms: C_12  and  N_13
REMARK   11  A    between atoms: N_13  and  C_14
REMARK   12  A    between atoms: N_13  and  C_15
REMARK   13  A    between atoms: C_16  and  O_17
REMARK   14  A    between atoms: O_17  and  C_18
REMARK                            x       y       z     vdW  Elec       q    Type
REMARK                         _______ _______ _______ _____ _____    ______ ____
ROOT
ATOM      1  C   UNL     1       3.534   3.461  18.531  0.00  0.00    +0.000 A 
ATOM      2  C   UNL     1       4.282   3.982  17.476  0.00  0.00    +0.000 A 
ATOM      3  C   UNL     1       4.251   5.341  17.116  0.00  0.00    +0.000 A 
ATOM      4  C   UNL     1       3.442   6.204  17.882  0.00  0.00    +0.000 A 
ATOM      5  C   UNL     1       2.653   5.691  18.918  0.00  0.00    +0.000 A 
ATOM      6  C   UNL     1       2.699   4.327  19.240  0.00  0.00    +0.000 A 
ATOM      7  I   UNL     1       1.518   3.657  20.838  0.00  0.00    +0.000 I 
ENDROOT
BRANCH   1   9
ATOM      8  C   UNL     1       4.588   1.771  19.827  0.00  0.00    +0.000 C 
ATOM      9  O   UNL     1       3.579   2.138  18.888  0.00  0.00    +0.000 OA
ENDBRANCH   1   9
BRANCH   4  10
ATOM     10  O   UNL     1       3.476   7.533  17.537  0.00  0.00    +0.000 OA
ATOM     11  C   UNL     1       2.434   8.347  18.069  0.00  0.00    +0.000 C 
ENDBRANCH   4  10
BRANCH   3  12
ATOM     12  C   UNL     1       5.106   5.877  15.978  0.00  0.00    +0.000 C 
BRANCH  12  13
ATOM     13  C   UNL     1       6.655   5.806  16.151  0.00  0.00    +0.000 C 
ATOM     14  C   UNL     1       7.079   5.892  17.629  0.00  0.00    +0.000 C 
BRANCH  13  15
ATOM     15  N   UNL     1       7.270   4.574  15.632  0.00  0.00    +0.000 NA
ATOM     16  H   UNL     1       7.415   3.908  16.390  0.00  0.00    +0.000 HD
BRANCH  15  17
ATOM     17  C   UNL     1       6.505   3.953  14.556  0.00  0.00    +0.000 C 
BRANCH  17  18
ATOM     18  C   UNL     1       6.774   4.675  13.235  0.00  0.00    +0.000 C 
BRANCH  18  19
ATOM     19  C   UNL     1       6.816   3.648  12.097  0.00  0.00    +0.000 C 
BRANCH  19  20
ATOM     20  N   UNL     1       5.675   2.722  12.071  0.00  0.00    +0.000 NA
ATOM     21  C   UNL     1       4.488   3.328  11.470  0.00  0.00    +0.000 C 
ATOM     22  C   UNL     1       6.043   1.516  11.323  0.00  0.00    +0.000 C 
ENDBRANCH  19  20
ENDBRANCH  18  19
ENDBRANCH  17  18
ENDBRANCH  15  17
ENDBRANCH  13  15
ENDBRANCH  12  13
ENDBRANCH   3  12
TORSDOF 9
ENDMDL
MODEL 3
REMARK VINA RESULT:      -5.8      2.532      4.886
REMARK  Name = 
REMARK  14 active torsions:
REMARK  status: ('A' for Active; 'I' for Inactive)
REMARK    1  A    between atoms: C_1  and  O_2
REMARK    2  A    between atoms: O_2  and  C_3
REMARK    3  A    between atoms: C_5  and  C_6
REMARK    4  A    between atoms: C_6  and  C_7
REMARK    5  A    between atoms: C_7  and  C_8
REMARK    6  A    between atoms: C_7  and  N_9
REMARK    7  A    between atoms: N_9  and  C_10
REMARK    8  A    between atoms: C_10  and  C_11
REMARK    9  A    between atoms: C_11  and  C_12
REMARK   10  A    between atoms: C_12  and  N_13
REMARK   11  A    between atoms: N_13  and  C_14
REMARK   12  A    between atoms: N_13  and  C_15
REMARK   13  A    between atoms: C_16  and  O_17
REMARK   14  A    between atoms: O_17  and  C_18
REMARK                            x       y       z     vdW  Elec       q    Type
REMARK                         _______ _______ _______ _____ _____    ______ ____
ROOT
ATOM      1  C   UNL     1       3.475   3.478  18.484  0.00  0.00    +0.000 A 
ATOM      2  C   UNL     1       4.343   4.089  17.581  0.00  0.00    +0.000 A 
ATOM      3  C   UNL     1       4.270   5.456  17.257  0.00  0.00    +0.000 A 
ATOM      4  C   UNL     1       3.287   6.231  17.903  0.00  0.00    +0.000 A 
ATOM      5  C   UNL     1       2.381   5.626  18.782  0.00  0.00    +0.000 A 
ATOM      6  C   UNL     1       2.475   4.257  19.070  0.00  0.00    +0.000 A 
ATOM      7  I   UNL     1       1.105   3.446  20.435  0.00  0.00    +0.000 I 
ENDROOT
BRANCH   1   9
ATOM      8  C   UNL     1       4.502   1.804  19.822  0.00  0.00    +0.000 C 
ATOM      9  O   UNL     1       3.559   2.148  18.808  0.00  0.00    +0.000 OA
ENDBRANCH   1   9
BRANCH   4  10
ATOM     10  O   UNL     1       3.278   7.572  17.604  0.00  0.00    +0.000 OA
ATOM     11  C   UNL     1       2.111   8.292  17.989  0.00  0.00    +0.000 C 
ENDBRANCH   4  10
BRANCH   3  12
ATOM     12  C   UNL     1       5.256   6.093  16.289  0.00  0.00    +0.000 C 
BRANCH  12  13
ATOM     13  C   UNL     1       6.744   5.630  16.373  0.00  0.00    +0.000 C 
ATOM     14  C   UNL     1       7.208   4.931  15.081  0.00  0.00    +0.000 C 
BRANCH  13  15
ATOM     15  N   UNL     1       7.708   6.717  16.604  0.00  0.00    +0.000 NA
ATOM     16  H   UNL     1       8.083   7.049  15.717  0.00  0.00    +0.000 HD
BRANCH  15  17
ATOM     17  C   UNL     1       7.153   7.831  17.366  0.00  0.00    +0.000 C 
BRANCH  17  18
ATOM     18  C   UNL     1       8.263   8.547  18.136  0.00  0.00    +0.000 C 
BRANCH  18  19
ATOM     19  C   UNL     1       8.419   9.972  17.589  0.00  0.00    +0.000 C 
BRANCH  19  20
ATOM     20  N   UNL     1       8.946  10.942  18.560  0.00  0.00    +0.000 NA
ATOM     21  C   UNL     1       9.469  10.290  19.760  0.00  0.00    +0.000 C 
ATOM     22  C   UNL     1      10.006  11.735  17.930  0.00  0.00    +0.000 C 
ENDBRANCH  19  20
ENDBRANCH  18  19
ENDBRANCH  17  18
ENDBRANCH  15  17
ENDBRANCH  13  15
ENDBRANCH  12  13
ENDBRANCH   3  12
TORSDOF 9
ENDMDL
MODEL 4
REMARK VINA RESULT:      -5.6      0.871      1.533
REMARK  Name = 
REMARK  14 active torsions:
REMARK  status: ('A' for Active; 'I' for Inactive)
REMARK    1  A    between atoms: C_1  and  O_2
REMARK    2  A    between atoms: O_2  and  C_3
REMARK    3  A    between atoms: C_5  and  C_6
REMARK    4  A    between atoms: C_6  and  C_7
REMARK    5  A    between atoms: C_7  and  C_8
REMARK    6  A    between atoms: C_7  and  N_9
REMARK    7  A    between atoms: N_9  and  C_10
REMARK    8  A    between atoms: C_10  and  C_11
REMARK    9  A    between atoms: C_11  and  C_12
REMARK   10  A    between atoms: C_12  and  N_13
REMARK   11  A    between atoms: N_13  and  C_14
REMARK   12  A    between atoms: N_13  and  C_15
REMARK   13  A    between atoms: C_16  and  O_17
REMARK   14  A    between atoms: O_17  and  C_18
REMARK                            x       y       z     vdW  Elec       q    Type
REMARK                         _______ _______ _______ _____ _____    ______ ____
ROOT
ATOM      1  C   UNL     1       2.201   7.732  19.168  0.00  0.00    +0.000 A 
ATOM      2  C   UNL     1       2.646   6.656  18.402  0.00  0.00    +0.000 A 
ATOM      3  C   UNL     1       2.510   5.318  18.812  0.00  0.00    +0.000 A 
ATOM      4  C   UNL     1       1.870   5.072  20.043  0.00  0.00    +0.000 A 
ATOM      5  C   UNL     1       1.454   6.142  20.844  0.00  0.00    +0.000 A 
ATOM      6  C   UNL     1       1.619   7.464  20.409  0.00  0.00    +0.000 A 
ATOM      7  I   UNL     1       0.923   9.001  21.654  0.00  0.00    +0.000 I 
ENDROOT
BRANCH   1   9
ATOM      8  C   UNL     1       1.365   9.487  17.801  0.00  0.00    +0.000 C 
ATOM      9  O   UNL     1       2.323   9.034  18.757  0.00  0.00    +0.000 OA
ENDBRANCH   1   9
BRANCH   4  10
ATOM     10  O   UNL     1       1.706   3.752  20.390  0.00  0.00    +0.000 OA
ATOM     11  C   UNL     1       2.082   3.400  21.718  0.00  0.00    +0.000 C 
ENDBRANCH   4  10
BRANCH   3  12
ATOM     12  C   UNL     1       2.980   4.169  17.934  0.00  0.00    +0.000 C 
BRANCH  12  13
ATOM     13  C   UNL     1       3.996   3.160  18.555  0.00  0.00    +0.000 C 
ATOM     14  C   UNL     1       3.796   1.731  18.016  0.00  0.00    +0.000 C 
BRANCH  13  15
ATOM     15  N   UNL     1       5.409   3.486  18.304  0.00  0.00    +0.000 NA
ATOM     16  H   UNL     1       5.549   3.708  17.320  0.00  0.00    +0.000 HD
BRANCH  15  17
ATOM     17  C   UNL     1       5.911   4.569  19.143  0.00  0.00    +0.000 C 
BRANCH  17  18
ATOM     18  C   UNL     1       7.156   5.191  18.508  0.00  0.00    +0.000 C 
BRANCH  18  19
ATOM     19  C   UNL     1       7.178   4.862  17.011  0.00  0.00    +0.000 C 
BRANCH  19  20
ATOM     20  N   UNL     1       6.631   5.918  16.147  0.00  0.00    +0.000 NA
ATOM     21  C   UNL     1       5.533   5.433  15.312  0.00  0.00    +0.000 C 
ATOM     22  C   UNL     1       6.163   7.032  16.976  0.00  0.00    +0.000 C 
ENDBRANCH  19  20
ENDBRANCH  18  19
ENDBRANCH  17  18
ENDBRANCH  15  17
ENDBRANCH  13  15
ENDBRANCH  12  13
ENDBRANCH   3  12
TORSDOF 9
ENDMDL
MODEL 5
REMARK VINA RESULT:      -5.6      1.057      1.179
REMARK  Name = 
REMARK  14 active torsions:
REMARK  status: ('A' for Active; 'I' for Inactive)
REMARK    1  A    between atoms: C_1  and  O_2
REMARK    2  A    between atoms: O_2  and  C_3
REMARK    3  A    between atoms: C_5  and  C_6
REMARK    4  A    between atoms: C_6  and  C_7
REMARK    5  A    between atoms: C_7  and  C_8
REMARK    6  A    between atoms: C_7  and  N_9
REMARK    7  A    between atoms: N_9  and  C_10
REMARK    8  A    between atoms: C_10  and  C_11
REMARK    9  A    between atoms: C_11  and  C_12
REMARK   10  A    between atoms: C_12  and  N_13
REMARK   11  A    between atoms: N_13  and  C_14
REMARK   12  A    between atoms: N_13  and  C_15
REMARK   13  A    between atoms: C_16  and  O_17
REMARK   14  A    between atoms: O_17  and  C_18
REMARK                            x       y       z     vdW  Elec       q    Type
REMARK                         _______ _______ _______ _____ _____    ______ ____
ROOT
ATOM      1  C   UNL     1       2.596   7.236  19.263  0.00  0.00    +0.000 A 
ATOM      2  C   UNL     1       3.400   6.200  18.791  0.00  0.00    +0.000 A 
ATOM      3  C   UNL     1       3.431   4.926  19.386  0.00  0.00    +0.000 A 
ATOM      4  C   UNL     1       2.587   4.697  20.491  0.00  0.00    +0.000 A 
ATOM      5  C   UNL     1       1.804   5.739  21.003  0.00  0.00    +0.000 A 
ATOM      6  C   UNL     1       1.809   7.001  20.392  0.00  0.00    +0.000 A 
ATOM      7  I   UNL     1       0.569   8.486  21.199  0.00  0.00    +0.000 I 
ENDROOT
BRANCH   1   9
ATOM      8  C   UNL     1       1.704   8.602  17.536  0.00  0.00    +0.000 C 
ATOM      9  O   UNL     1       2.558   8.472  18.671  0.00  0.00    +0.000 OA
ENDBRANCH   1   9
BRANCH   4  10
ATOM     10  O   UNL     1       2.602   3.428  21.015  0.00  0.00    +0.000 OA
ATOM     11  C   UNL     1       1.334   2.801  21.179  0.00  0.00    +0.000 C 
ENDBRANCH   4  10
BRANCH   3  12
ATOM     12  C   UNL     1       4.299   3.811  18.823  0.00  0.00    +0.000 C 
BRANCH  12  13
ATOM     13  C   UNL     1       3.928   3.257  17.412  0.00  0.00    +0.000 C 
ATOM     14  C   UNL     1       2.404   3.160  17.209  0.00  0.00    +0.000 C 
BRANCH  13  15
ATOM     15  N   UNL     1       4.428   4.066  16.289  0.00  0.00    +0.000 NA
ATOM     16  H   UNL     1       4.442   5.052  16.546  0.00  0.00    +0.000 HD
BRANCH  15  17
ATOM     17  C   UNL     1       5.743   3.648  15.815  0.00  0.00    +0.000 C 
BRANCH  17  18
ATOM     18  C   UNL     1       6.740   4.799  15.949  0.00  0.00    +0.000 C 
BRANCH  18  19
ATOM     19  C   UNL     1       7.533   4.633  17.252  0.00  0.00    +0.000 C 
BRANCH  19  20
ATOM     20  N   UNL     1       7.801   5.889  17.966  0.00  0.00    +0.000 NA
ATOM     21  C   UNL     1       7.018   7.003  17.434  0.00  0.00    +0.000 C 
ATOM     22  C   UNL     1       7.501   5.713  19.390  0.00  0.00    +0.000 C 
ENDBRANCH  19  20
ENDBRANCH  18  19
ENDBRANCH  17  18
ENDBRANCH  15  17
ENDBRANCH  13  15
ENDBRANCH  12  13
ENDBRANCH   3  12
TORSDOF 9
ENDMDL
MODEL 6
REMARK VINA RESULT:      -5.6      3.918      6.228
REMARK  Name = 
REMARK  14 active torsions:
REMARK  status: ('A' for Active; 'I' for Inactive)
REMARK    1  A    between atoms: C_1  and  O_2
REMARK    2  A    between atoms: O_2  and  C_3
REMARK    3  A    between atoms: C_5  and  C_6
REMARK    4  A    between atoms: C_6  and  C_7
REMARK    5  A    between atoms: C_7  and  C_8
REMARK    6  A    between atoms: C_7  and  N_9
REMARK    7  A    between atoms: N_9  and  C_10
REMARK    8  A    between atoms: C_10  and  C_11
REMARK    9  A    between atoms: C_11  and  C_12
REMARK   10  A    between atoms: C_12  and  N_13
REMARK   11  A    between atoms: N_13  and  C_14
REMARK   12  A    between atoms: N_13  and  C_15
REMARK   13  A    between atoms: C_16  and  O_17
REMARK   14  A    between atoms: O_17  and  C_18
REMARK                            x       y       z     vdW  Elec       q    Type
REMARK                         _______ _______ _______ _____ _____    ______ ____
ROOT
ATOM      1  C   UNL     1       5.610   5.924  17.005  0.00  0.00    +0.000 A 
ATOM      2  C   UNL     1       4.903   5.928  18.206  0.00  0.00    +0.000 A 
ATOM      3  C   UNL     1       4.194   4.809  18.679  0.00  0.00    +0.000 A 
ATOM      4  C   UNL     1       4.231   3.634  17.904  0.00  0.00    +0.000 A 
ATOM      5  C   UNL     1       4.902   3.624  16.676  0.00  0.00    +0.000 A 
ATOM      6  C   UNL     1       5.588   4.763  16.229  0.00  0.00    +0.000 A 
ATOM      7  I   UNL     1       6.604   4.642  14.399  0.00  0.00    +0.000 I 
ENDROOT
BRANCH   1   9
ATOM      8  C   UNL     1       7.445   7.398  17.334  0.00  0.00    +0.000 C 
ATOM      9  O   UNL     1       6.313   7.012  16.556  0.00  0.00    +0.000 OA
ENDBRANCH   1   9
BRANCH   4  10
ATOM     10  O   UNL     1       3.572   2.544  18.420  0.00  0.00    +0.000 OA
ATOM     11  C   UNL     1       2.343   2.198  17.790  0.00  0.00    +0.000 C 
ENDBRANCH   4  10
BRANCH   3  12
ATOM     12  C   UNL     1       3.460   4.844  20.011  0.00  0.00    +0.000 C 
BRANCH  12  13
ATOM     13  C   UNL     1       1.968   5.301  19.996  0.00  0.00    +0.000 C 
ATOM     14  C   UNL     1       1.024   4.220  20.556  0.00  0.00    +0.000 C 
BRANCH  13  15
ATOM     15  N   UNL     1       1.694   6.513  20.783  0.00  0.00    +0.000 NA
ATOM     16  H   UNL     1       2.165   6.460  21.685  0.00  0.00    +0.000 HD
BRANCH  15  17
ATOM     17  C   UNL     1       2.061   7.746  20.095  0.00  0.00    +0.000 C 
BRANCH  17  18
ATOM     18  C   UNL     1       0.905   8.745  20.153  0.00  0.00    +0.000 C 
BRANCH  18  19
ATOM     19  C   UNL     1       0.926   9.464  21.508  0.00  0.00    +0.000 C 
BRANCH  19  20
ATOM     20  N   UNL     1      -0.274  10.265  21.790  0.00  0.00    +0.000 NA
ATOM     21  C   UNL     1      -0.718  10.120  23.176  0.00  0.00    +0.000 C 
ATOM     22  C   UNL     1       0.004  11.676  21.508  0.00  0.00    +0.000 C 
ENDBRANCH  19  20
ENDBRANCH  18  19
ENDBRANCH  17  18
ENDBRANCH  15  17
ENDBRANCH  13  15
ENDBRANCH  12  13
ENDBRANCH   3  12
TORSDOF 9
ENDMDL
MODEL 7
REMARK VINA RESULT:      -5.6      2.875      5.229
REMARK  Name = 
REMARK  14 active torsions:
REMARK  status: ('A' for Active; 'I' for Inactive)
REMARK    1  A    between atoms: C_1  and  O_2
REMARK    2  A    between atoms: O_2  and  C_3
REMARK    3  A    between atoms: C_5  and  C_6
REMARK    4  A    between atoms: C_6  and  C_7
REMARK    5  A    between atoms: C_7  and  C_8
REMARK    6  A    between atoms: C_7  and  N_9
REMARK    7  A    between atoms: N_9  and  C_10
REMARK    8  A    between atoms: C_10  and  C_11
REMARK    9  A    between atoms: C_11  and  C_12
REMARK   10  A    between atoms: C_12  and  N_13
REMARK   11  A    between atoms: N_13  and  C_14
REMARK   12  A    between atoms: N_13  and  C_15
REMARK   13  A    between atoms: C_16  and  O_17
REMARK   14  A    between atoms: O_17  and  C_18
REMARK                            x       y       z     vdW  Elec       q    Type
REMARK                         _______ _______ _______ _____ _____    ______ ____
ROOT
ATOM      1  C   UNL     1       3.715   3.729  18.942  0.00  0.00    +0.000 A 
ATOM      2  C   UNL     1       4.720   4.405  18.253  0.00  0.00    +0.000 A 
ATOM      3  C   UNL     1       4.576   5.727  17.793  0.00  0.00    +0.000 A 
ATOM      4  C   UNL     1       3.365   6.389  18.073  0.00  0.00    +0.000 A 
ATOM      5  C   UNL     1       2.329   5.712  18.728  0.00  0.00    +0.000 A 
ATOM      6  C   UNL     1       2.504   4.389  19.159  0.00  0.00    +0.000 A 
ATOM      7  I   UNL     1       0.915   3.470  20.173  0.00  0.00    +0.000 I 
ENDROOT
BRANCH   1   9
ATOM      8  C   UNL     1       3.596   1.404  18.464  0.00  0.00    +0.000 C 
ATOM      9  O   UNL     1       3.866   2.446  19.401  0.00  0.00    +0.000 OA
ENDBRANCH   1   9
BRANCH   4  10
ATOM     10  O   UNL     1       3.277   7.695  17.657  0.00  0.00    +0.000 OA
ATOM     11  C   UNL     1       2.201   8.456  18.200  0.00  0.00    +0.000 C 
ENDBRANCH   4  10
BRANCH   3  12
ATOM     12  C   UNL     1       5.708   6.441  17.072  0.00  0.00    +0.000 C 
BRANCH  12  13
ATOM     13  C   UNL     1       7.014   6.715  17.882  0.00  0.00    +0.000 C 
ATOM     14  C   UNL     1       7.822   5.428  18.131  0.00  0.00    +0.000 C 
BRANCH  13  15
ATOM     15  N   UNL     1       7.947   7.651  17.234  0.00  0.00    +0.000 NA
ATOM     16  H   UNL     1       7.930   7.522  16.224  0.00  0.00    +0.000 HD
BRANCH  15  17
ATOM     17  C   UNL     1       7.691   9.048  17.568  0.00  0.00    +0.000 C 
BRANCH  17  18
ATOM     18  C   UNL     1       8.734   9.550  18.567  0.00  0.00    +0.000 C 
BRANCH  18  19
ATOM     19  C   UNL     1       9.129  10.987  18.205  0.00  0.00    +0.000 C 
BRANCH  19  20
ATOM     20  N   UNL     1       9.886  11.692  19.250  0.00  0.00    +0.000 NA
ATOM     21  C   UNL     1       9.495  11.267  20.593  0.00  0.00    +0.000 C 
ATOM     22  C   UNL     1      11.319  11.456  19.057  0.00  0.00    +0.000 C 
ENDBRANCH  19  20
ENDBRANCH  18  19
ENDBRANCH  17  18
ENDBRANCH  15  17
ENDBRANCH  13  15
ENDBRANCH  12  13
ENDBRANCH   3  12
TORSDOF 9
ENDMDL
MODEL 8
REMARK VINA RESULT:      -5.5      3.520      5.485
REMARK  Name = 
REMARK  14 active torsions:
REMARK  status: ('A' for Active; 'I' for Inactive)
REMARK    1  A    between atoms: C_1  and  O_2
REMARK    2  A    between atoms: O_2  and  C_3
REMARK    3  A    between atoms: C_5  and  C_6
REMARK    4  A    between atoms: C_6  and  C_7
REMARK    5  A    between atoms: C_7  and  C_8
REMARK    6  A    between atoms: C_7  and  N_9
REMARK    7  A    between atoms: N_9  and  C_10
REMARK    8  A    between atoms: C_10  and  C_11
REMARK    9  A    between atoms: C_11  and  C_12
REMARK   10  A    between atoms: C_12  and  N_13
REMARK   11  A    between atoms: N_13  and  C_14
REMARK   12  A    between atoms: N_13  and  C_15
REMARK   13  A    between atoms: C_16  and  O_17
REMARK   14  A    between atoms: O_17  and  C_18
REMARK                            x       y       z     vdW  Elec       q    Type
REMARK                         _______ _______ _______ _____ _____    ______ ____
ROOT
ATOM      1  C   UNL     1       3.235   4.988  19.135  0.00  0.00    +0.000 A 
ATOM      2  C   UNL     1       4.194   5.881  18.659  0.00  0.00    +0.000 A 
ATOM      3  C   UNL     1       4.819   5.736  17.408  0.00  0.00    +0.000 A 
ATOM      4  C   UNL     1       4.428   4.649  16.602  0.00  0.00    +0.000 A 
ATOM      5  C   UNL     1       3.497   3.719  17.081  0.00  0.00    +0.000 A 
ATOM      6  C   UNL     1       2.905   3.888  18.340  0.00  0.00    +0.000 A 
ATOM      7  I   UNL     1       1.486   2.472  18.955  0.00  0.00    +0.000 I 
ENDROOT
BRANCH   1   9
ATOM      8  C   UNL     1       1.683   6.214  20.451  0.00  0.00    +0.000 C 
ATOM      9  O   UNL     1       2.618   5.141  20.349  0.00  0.00    +0.000 OA
ENDBRANCH   1   9
BRANCH   4  10
ATOM     10  O   UNL     1       5.019   4.567  15.364  0.00  0.00    +0.000 OA
ATOM     11  C   UNL     1       6.159   3.719  15.268  0.00  0.00    +0.000 C 
ENDBRANCH   4  10
BRANCH   3  12
ATOM     12  C   UNL     1       5.838   6.750  16.911  0.00  0.00    +0.000 C 
BRANCH  12  13
ATOM     13  C   UNL     1       6.873   7.291  17.945  0.00  0.00    +0.000 C 
ATOM     14  C   UNL     1       7.791   6.178  18.484  0.00  0.00    +0.000 C 
BRANCH  13  15
ATOM     15  N   UNL     1       7.775   8.329  17.418  0.00  0.00    +0.000 NA
ATOM     16  H   UNL     1       7.240   9.040  16.922  0.00  0.00    +0.000 HD
BRANCH  15  17
ATOM     17  C   UNL     1       8.607   8.948  18.444  0.00  0.00    +0.000 C 
BRANCH  17  18
ATOM     18  C   UNL     1       8.880  10.410  18.089  0.00  0.00    +0.000 C 
BRANCH  18  19
ATOM     19  C   UNL     1       9.985  10.954  19.002  0.00  0.00    +0.000 C 
BRANCH  19  20
ATOM     20  N   UNL     1      11.032  11.714  18.305  0.00  0.00    +0.000 NA
ATOM     21  C   UNL     1      10.490  12.865  17.584  0.00  0.00    +0.000 C 
ATOM     22  C   UNL     1      12.032  12.169  19.275  0.00  0.00    +0.000 C 
ENDBRANCH  19  20
ENDBRANCH  18  19
ENDBRANCH  17  18
ENDBRANCH  15  17
ENDBRANCH  13  15
ENDBRANCH  12  13
ENDBRANCH   3  12
TORSDOF 9
ENDMDL
MODEL 9
REMARK VINA RESULT:      -5.5      3.571      5.560
REMARK  Name = 
REMARK  14 active torsions:
REMARK  status: ('A' for Active; 'I' for Inactive)
REMARK    1  A    between atoms: C_1  and  O_2
REMARK    2  A    between atoms: O_2  and  C_3
REMARK    3  A    between atoms: C_5  and  C_6
REMARK    4  A    between atoms: C_6  and  C_7
REMARK    5  A    between atoms: C_7  and  C_8
REMARK    6  A    between atoms: C_7  and  N_9
REMARK    7  A    between atoms: N_9  and  C_10
REMARK    8  A    between atoms: C_10  and  C_11
REMARK    9  A    between atoms: C_11  and  C_12
REMARK   10  A    between atoms: C_12  and  N_13
REMARK   11  A    between atoms: N_13  and  C_14
REMARK   12  A    between atoms: N_13  and  C_15
REMARK   13  A    between atoms: C_16  and  O_17
REMARK   14  A    between atoms: O_17  and  C_18
REMARK                            x       y       z     vdW  Elec       q    Type
REMARK                         _______ _______ _______ _____ _____    ______ ____
ROOT
ATOM      1  C   UNL     1       2.961   5.307  18.560  0.00  0.00    +0.000 A 
ATOM      2  C   UNL     1       3.964   6.169  18.122  0.00  0.00    +0.000 A 
ATOM      3  C   UNL     1       4.978   5.771  17.232  0.00  0.00    +0.000 A 
ATOM      4  C   UNL     1       4.947   4.446  16.753  0.00  0.00    +0.000 A 
ATOM      5  C   UNL     1       3.970   3.556  17.214  0.00  0.00    +0.000 A 
ATOM      6  C   UNL     1       2.983   3.984  18.113  0.00  0.00    +0.000 A 
ATOM      7  I   UNL     1       1.533   2.594  18.714  0.00  0.00    +0.000 I 
ENDROOT
BRANCH   1   9
ATOM      8  C   UNL     1       2.120   6.992  20.010  0.00  0.00    +0.000 C 
ATOM      9  O   UNL     1       1.966   5.703  19.416  0.00  0.00    +0.000 OA
ENDBRANCH   1   9
BRANCH   4  10
ATOM     10  O   UNL     1       5.920   4.106  15.844  0.00  0.00    +0.000 OA
ATOM     11  C   UNL     1       5.538   4.145  14.472  0.00  0.00    +0.000 C 
ENDBRANCH   4  10
BRANCH   3  12
ATOM     12  C   UNL     1       6.038   6.750  16.752  0.00  0.00    +0.000 C 
BRANCH  12  13
ATOM     13  C   UNL     1       6.962   7.394  17.832  0.00  0.00    +0.000 C 
ATOM     14  C   UNL     1       7.834   6.345  18.549  0.00  0.00    +0.000 C 
BRANCH  13  15
ATOM     15  N   UNL     1       7.900   8.401  17.311  0.00  0.00    +0.000 NA
ATOM     16  H   UNL     1       7.421   9.025  16.664  0.00  0.00    +0.000 HD
BRANCH  15  17
ATOM     17  C   UNL     1       8.563   9.171  18.357  0.00  0.00    +0.000 C 
BRANCH  17  18
ATOM     18  C   UNL     1       8.526  10.661  18.018  0.00  0.00    +0.000 C 
BRANCH  18  19
ATOM     19  C   UNL     1       9.942  11.240  18.128  0.00  0.00    +0.000 C 
BRANCH  19  20
ATOM     20  N   UNL     1      10.087  12.307  19.129  0.00  0.00    +0.000 NA
ATOM     21  C   UNL     1      10.454  11.781  20.443  0.00  0.00    +0.000 C 
ATOM     22  C   UNL     1      11.105  13.261  18.680  0.00  0.00    +0.000 C 
ENDBRANCH  19  20
ENDBRANCH  18  19
ENDBRANCH  17  18
ENDBRANCH  15  17
ENDBRANCH  13  15
ENDBRANCH  12  13
ENDBRANCH   3  12
TORSDOF 9
ENDMDL
