MODEL 1
REMARK VINA RESULT:      -8.4      0.000      0.000
REMARK  Name = 
REMARK  8 active torsions:
REMARK  status: ('A' for Active; 'I' for Inactive)
REMARK    1  A    between atoms: C_1  and  C_2
REMARK    2  A    between atoms: C_2  and  C_3
REMARK    3  A    between atoms: C_4  and  C_5
REMARK    4  A    between atoms: C_7  and  O_8
REMARK    5  A    between atoms: C_12  and  C_13
REMARK    6  A    between atoms: C_15  and  C_16
REMARK    7  A    between atoms: C_17  and  C_18
REMARK    8  A    between atoms: C_21  and  C_22
REMARK                            x       y       z     vdW  Elec       q    Type
REMARK                         _______ _______ _______ _____ _____    ______ ____
ROOT
ATOM      1  C   UNL     1       3.383   3.390  19.059  0.00  0.00    +0.000 C 
ATOM      2  C   UNL     1       2.763   3.516  17.631  0.00  0.00    +0.000 C 
ATOM      3  C   UNL     1       1.533   4.447  17.564  0.00  0.00    +0.000 C 
ATOM      4  C   UNL     1       3.832   3.796  16.522  0.00  0.00    +0.000 C 
ATOM      5  C   UNL     1       5.226   4.469  16.881  0.00  0.00    +0.000 C 
ATOM      6  C   UNL     1       5.485   5.904  16.559  0.00  0.00    +0.000 C 
ATOM      7  O   UNL     1       5.308   6.386  15.449  0.00  0.00    +0.000 OA
ATOM      8  O   UNL     1       6.310   6.488  17.458  0.00  0.00    +0.000 OA
ATOM      9  C   UNL     1       6.472   5.730  18.602  0.00  0.00    +0.000 C 
ATOM     10  C   UNL     1       7.916   5.333  18.918  0.00  0.00    +0.000 C 
ATOM     11  C   UNL     1       5.569   4.491  18.396  0.00  0.00    +0.000 C 
ATOM     12  C   UNL     1       4.334   4.584  19.340  0.00  0.00    +0.000 C 
ENDROOT
BRANCH   1  14
ATOM     13  C   UNL     1       4.624   1.852  20.722  0.00  0.00    +0.000 C 
ATOM     14  C   UNL     1       4.128   2.043  19.296  0.00  0.00    +0.000 C 
ENDBRANCH   1  14
BRANCH   5  15
ATOM     15  O   UNL     1       6.236   3.756  16.200  0.00  0.00    +0.000 OA
ATOM     16  H   UNL     1       6.815   4.418  15.733  0.00  0.00    +0.000 HD
ENDBRANCH   5  15
BRANCH  12  17
ATOM     17  C   UNL     1       3.608   5.913  19.246  0.00  0.00    +0.000 C 
ATOM     18  C   UNL     1       2.744   6.327  20.187  0.00  0.00    +0.000 C 
BRANCH  18  19
ATOM     19  C   UNL     1       1.977   7.572  20.003  0.00  0.00    +0.000 A 
ATOM     20  C   UNL     1       1.980   8.219  18.763  0.00  0.00    +0.000 A 
ATOM     21  C   UNL     1       1.299   9.429  18.623  0.00  0.00    +0.000 A 
ATOM     22  C   UNL     1       0.607  10.001  19.711  0.00  0.00    +0.000 A 
ATOM     23  C   UNL     1       0.632   9.299  20.933  0.00  0.00    +0.000 A 
ATOM     24  N   UNL     1       1.306   8.129  21.036  0.00  0.00    +0.000 NA
BRANCH  22  25
ATOM     25  C   UNL     1      -0.114  11.304  19.584  0.00  0.00    +0.000 A 
ATOM     26  C   UNL     1       0.308  12.366  18.751  0.00  0.00    +0.000 A 
ATOM     27  C   UNL     1      -0.513  13.480  18.793  0.00  0.00    +0.000 A 
ATOM     28  S   UNL     1      -1.769  13.177  19.859  0.00  0.00    +0.000 S 
ATOM     29  C   UNL     1      -1.286  11.624  20.280  0.00  0.00    +0.000 A 
ENDBRANCH  22  25
ENDBRANCH  18  19
ENDBRANCH  12  17
TORSDOF 5
ENDMDL
MODEL 2
REMARK VINA RESULT:      -8.2      0.746      1.093
REMARK  Name = 
REMARK  8 active torsions:
REMARK  status: ('A' for Active; 'I' for Inactive)
REMARK    1  A    between atoms: C_1  and  C_2
REMARK    2  A    between atoms: C_2  and  C_3
REMARK    3  A    between atoms: C_4  and  C_5
REMARK    4  A    between atoms: C_7  and  O_8
REMARK    5  A    between atoms: C_12  and  C_13
REMARK    6  A    between atoms: C_15  and  C_16
REMARK    7  A    between atoms: C_17  and  C_18
REMARK    8  A    between atoms: C_21  and  C_22
REMARK                            x       y       z     vdW  Elec       q    Type
REMARK                         _______ _______ _______ _____ _____    ______ ____
ROOT
ATOM      1  C   UNL     1       3.411   3.315  19.012  0.00  0.00    +0.000 C 
ATOM      2  C   UNL     1       2.782   3.468  17.591  0.00  0.00    +0.000 C 
ATOM      3  C   UNL     1       1.528   4.368  17.556  0.00  0.00    +0.000 C 
ATOM      4  C   UNL     1       3.839   3.810  16.488  0.00  0.00    +0.000 C 
ATOM      5  C   UNL     1       5.215   4.509  16.862  0.00  0.00    +0.000 C 
ATOM      6  C   UNL     1       5.435   5.960  16.584  0.00  0.00    +0.000 C 
ATOM      7  O   UNL     1       5.240   6.471  15.490  0.00  0.00    +0.000 OA
ATOM      8  O   UNL     1       6.247   6.538  17.497  0.00  0.00    +0.000 OA
ATOM      9  C   UNL     1       6.434   5.750  18.617  0.00  0.00    +0.000 C 
ATOM     10  C   UNL     1       7.890   5.383  18.916  0.00  0.00    +0.000 C 
ATOM     11  C   UNL     1       5.564   4.495  18.376  0.00  0.00    +0.000 C 
ATOM     12  C   UNL     1       4.331   4.525  19.326  0.00  0.00    +0.000 C 
ENDROOT
BRANCH   1  14
ATOM     13  C   UNL     1       4.715   1.769  20.619  0.00  0.00    +0.000 C 
ATOM     14  C   UNL     1       4.193   1.982  19.205  0.00  0.00    +0.000 C 
ENDBRANCH   1  14
BRANCH   5  15
ATOM     15  O   UNL     1       6.241   3.845  16.156  0.00  0.00    +0.000 OA
ATOM     16  H   UNL     1       7.114   4.150  16.526  0.00  0.00    +0.000 HD
ENDBRANCH   5  15
BRANCH  12  17
ATOM     17  C   UNL     1       3.570   5.836  19.276  0.00  0.00    +0.000 C 
ATOM     18  C   UNL     1       2.788   6.252  20.286  0.00  0.00    +0.000 C 
BRANCH  18  19
ATOM     19  C   UNL     1       1.979   7.477  20.151  0.00  0.00    +0.000 A 
ATOM     20  C   UNL     1       1.153   7.889  21.203  0.00  0.00    +0.000 A 
ATOM     21  C   UNL     1       0.349   9.017  21.036  0.00  0.00    +0.000 A 
ATOM     22  C   UNL     1       0.363   9.745  19.826  0.00  0.00    +0.000 A 
ATOM     23  C   UNL     1       1.222   9.287  18.807  0.00  0.00    +0.000 A 
ATOM     24  N   UNL     1       1.987   8.186  19.001  0.00  0.00    +0.000 NA
BRANCH  22  25
ATOM     25  C   UNL     1      -0.505  10.945  19.624  0.00  0.00    +0.000 A 
ATOM     26  C   UNL     1      -1.438  11.082  18.571  0.00  0.00    +0.000 A 
ATOM     27  C   UNL     1      -2.130  12.280  18.579  0.00  0.00    +0.000 A 
ATOM     28  S   UNL     1      -1.603  13.192  19.881  0.00  0.00    +0.000 S 
ATOM     29  C   UNL     1      -0.487  12.075  20.453  0.00  0.00    +0.000 A 
ENDBRANCH  22  25
ENDBRANCH  18  19
ENDBRANCH  12  17
TORSDOF 5
ENDMDL
MODEL 3
REMARK VINA RESULT:      -7.1      4.511      9.641
REMARK  Name = 
REMARK  8 active torsions:
REMARK  status: ('A' for Active; 'I' for Inactive)
REMARK    1  A    between atoms: C_1  and  C_2
REMARK    2  A    between atoms: C_2  and  C_3
REMARK    3  A    between atoms: C_4  and  C_5
REMARK    4  A    between atoms: C_7  and  O_8
REMARK    5  A    between atoms: C_12  and  C_13
REMARK    6  A    between atoms: C_15  and  C_16
REMARK    7  A    between atoms: C_17  and  C_18
REMARK    8  A    between atoms: C_21  and  C_22
REMARK                            x       y       z     vdW  Elec       q    Type
REMARK                         _______ _______ _______ _____ _____    ______ ____
ROOT
ATOM      1  C   UNL     1      -2.477  12.335  21.354  0.00  0.00    +0.000 C 
ATOM      2  C   UNL     1      -1.682  12.173  22.689  0.00  0.00    +0.000 C 
ATOM      3  C   UNL     1      -0.976  10.807  22.833  0.00  0.00    +0.000 C 
ATOM      4  C   UNL     1      -0.762  13.399  23.006  0.00  0.00    +0.000 C 
ATOM      5  C   UNL     1      -0.247  14.357  21.848  0.00  0.00    +0.000 C 
ATOM      6  C   UNL     1       1.161  14.272  21.358  0.00  0.00    +0.000 C 
ATOM      7  O   UNL     1       2.133  14.311  22.099  0.00  0.00    +0.000 OA
ATOM      8  O   UNL     1       1.264  14.575  20.044  0.00  0.00    +0.000 OA
ATOM      9  C   UNL     1       0.039  14.594  19.406  0.00  0.00    +0.000 C 
ATOM     10  C   UNL     1      -0.325  15.922  18.737  0.00  0.00    +0.000 C 
ATOM     11  C   UNL     1      -0.989  14.198  20.492  0.00  0.00    +0.000 C 
ATOM     12  C   UNL     1      -1.522  12.764  20.208  0.00  0.00    +0.000 C 
ENDROOT
BRANCH   1  14
ATOM     13  C   UNL     1      -4.603  13.057  22.631  0.00  0.00    +0.000 C 
ATOM     14  C   UNL     1      -3.670  13.331  21.460  0.00  0.00    +0.000 C 
ENDBRANCH   1  14
BRANCH   5  15
ATOM     15  O   UNL     1      -0.397  15.688  22.293  0.00  0.00    +0.000 OA
ATOM     16  H   UNL     1      -0.126  15.724  23.250  0.00  0.00    +0.000 HD
ENDBRANCH   5  15
BRANCH  12  17
ATOM     17  C   UNL     1      -0.417  11.747  19.989  0.00  0.00    +0.000 C 
ATOM     18  C   UNL     1      -0.535  10.737  19.112  0.00  0.00    +0.000 C 
BRANCH  18  19
ATOM     19  C   UNL     1       0.516   9.708  19.010  0.00  0.00    +0.000 A 
ATOM     20  C   UNL     1       1.129   9.454  17.778  0.00  0.00    +0.000 A 
ATOM     21  C   UNL     1       2.078   8.436  17.686  0.00  0.00    +0.000 A 
ATOM     22  C   UNL     1       2.429   7.667  18.817  0.00  0.00    +0.000 A 
ATOM     23  C   UNL     1       1.784   7.975  20.032  0.00  0.00    +0.000 A 
ATOM     24  N   UNL     1       0.863   8.967  20.085  0.00  0.00    +0.000 NA
BRANCH  22  25
ATOM     25  C   UNL     1       3.431   6.561  18.733  0.00  0.00    +0.000 A 
ATOM     26  C   UNL     1       4.372   6.421  17.688  0.00  0.00    +0.000 A 
ATOM     27  C   UNL     1       5.201   5.320  17.815  0.00  0.00    +0.000 A 
ATOM     28  S   UNL     1       4.785   4.499  19.214  0.00  0.00    +0.000 S 
ATOM     29  C   UNL     1       3.547   5.534  19.678  0.00  0.00    +0.000 A 
ENDBRANCH  22  25
ENDBRANCH  18  19
ENDBRANCH  12  17
TORSDOF 5
ENDMDL
MODEL 4
REMARK VINA RESULT:      -6.6      2.496      4.013
REMARK  Name = 
REMARK  8 active torsions:
REMARK  status: ('A' for Active; 'I' for Inactive)
REMARK    1  A    between atoms: C_1  and  C_2
REMARK    2  A    between atoms: C_2  and  C_3
REMARK    3  A    between atoms: C_4  and  C_5
REMARK    4  A    between atoms: C_7  and  O_8
REMARK    5  A    between atoms: C_12  and  C_13
REMARK    6  A    between atoms: C_15  and  C_16
REMARK    7  A    between atoms: C_17  and  C_18
REMARK    8  A    between atoms: C_21  and  C_22
REMARK                            x       y       z     vdW  Elec       q    Type
REMARK                         _______ _______ _______ _____ _____    ______ ____
ROOT
ATOM      1  C   UNL     1       4.298   4.912  17.172  0.00  0.00    +0.000 C 
ATOM      2  C   UNL     1       5.213   5.076  18.428  0.00  0.00    +0.000 C 
ATOM      3  C   UNL     1       5.292   6.524  18.958  0.00  0.00    +0.000 C 
ATOM      4  C   UNL     1       4.927   4.009  19.537  0.00  0.00    +0.000 C 
ATOM      5  C   UNL     1       3.516   3.285  19.630  0.00  0.00    +0.000 C 
ATOM      6  C   UNL     1       2.528   3.671  20.682  0.00  0.00    +0.000 C 
ATOM      7  O   UNL     1       2.803   3.732  21.872  0.00  0.00    +0.000 OA
ATOM      8  O   UNL     1       1.251   3.529  20.259  0.00  0.00    +0.000 OA
ATOM      9  C   UNL     1       1.159   3.357  18.892  0.00  0.00    +0.000 C 
ATOM     10  C   UNL     1       0.477   2.061  18.445  0.00  0.00    +0.000 C 
ATOM     11  C   UNL     1       2.615   3.446  18.375  0.00  0.00    +0.000 C 
ATOM     12  C   UNL     1       2.813   4.783  17.602  0.00  0.00    +0.000 C 
ENDROOT
BRANCH   1  14
ATOM     13  C   UNL     1       5.992   3.928  15.488  0.00  0.00    +0.000 C 
ATOM     14  C   UNL     1       4.700   3.712  16.264  0.00  0.00    +0.000 C 
ENDBRANCH   1  14
BRANCH   5  15
ATOM     15  O   UNL     1       3.752   1.909  19.843  0.00  0.00    +0.000 OA
ATOM     16  H   UNL     1       3.245   1.401  19.153  0.00  0.00    +0.000 HD
ENDBRANCH   5  15
BRANCH  12  17
ATOM     17  C   UNL     1       2.347   5.999  18.381  0.00  0.00    +0.000 C 
ATOM     18  C   UNL     1       2.126   7.186  17.793  0.00  0.00    +0.000 C 
BRANCH  18  19
ATOM     19  C   UNL     1       1.782   8.369  18.603  0.00  0.00    +0.000 A 
ATOM     20  C   UNL     1       1.532   8.231  19.973  0.00  0.00    +0.000 A 
ATOM     21  C   UNL     1       1.148   9.350  20.712  0.00  0.00    +0.000 A 
ATOM     22  C   UNL     1       1.014  10.614  20.098  0.00  0.00    +0.000 A 
ATOM     23  C   UNL     1       1.288  10.693  18.717  0.00  0.00    +0.000 A 
ATOM     24  N   UNL     1       1.654   9.586  18.028  0.00  0.00    +0.000 NA
BRANCH  22  25
ATOM     25  C   UNL     1       0.587  11.820  20.871  0.00  0.00    +0.000 A 
ATOM     26  C   UNL     1      -0.458  11.823  21.823  0.00  0.00    +0.000 A 
ATOM     27  C   UNL     1      -0.681  13.054  22.415  0.00  0.00    +0.000 A 
ATOM     28  S   UNL     1       0.403  14.158  21.775  0.00  0.00    +0.000 S 
ATOM     29  C   UNL     1       1.171  13.086  20.736  0.00  0.00    +0.000 A 
ENDBRANCH  22  25
ENDBRANCH  18  19
ENDBRANCH  12  17
TORSDOF 5
ENDMDL
MODEL 5
REMARK VINA RESULT:      -6.6      4.473      9.631
REMARK  Name = 
REMARK  8 active torsions:
REMARK  status: ('A' for Active; 'I' for Inactive)
REMARK    1  A    between atoms: C_1  and  C_2
REMARK    2  A    between atoms: C_2  and  C_3
REMARK    3  A    between atoms: C_4  and  C_5
REMARK    4  A    between atoms: C_7  and  O_8
REMARK    5  A    between atoms: C_12  and  C_13
REMARK    6  A    between atoms: C_15  and  C_16
REMARK    7  A    between atoms: C_17  and  C_18
REMARK    8  A    between atoms: C_21  and  C_22
REMARK                            x       y       z     vdW  Elec       q    Type
REMARK                         _______ _______ _______ _____ _____    ______ ____
ROOT
ATOM      1  C   UNL     1      -2.322  12.510  21.122  0.00  0.00    +0.000 C 
ATOM      2  C   UNL     1      -1.577  12.260  22.471  0.00  0.00    +0.000 C 
ATOM      3  C   UNL     1      -0.974  10.844  22.598  0.00  0.00    +0.000 C 
ATOM      4  C   UNL     1      -0.581  13.409  22.843  0.00  0.00    +0.000 C 
ATOM      5  C   UNL     1       0.032  14.354  21.723  0.00  0.00    +0.000 C 
ATOM      6  C   UNL     1       1.444  14.180  21.266  0.00  0.00    +0.000 C 
ATOM      7  O   UNL     1       2.396  14.130  22.032  0.00  0.00    +0.000 OA
ATOM      8  O   UNL     1       1.603  14.505  19.963  0.00  0.00    +0.000 OA
ATOM      9  C   UNL     1       0.400  14.627  19.295  0.00  0.00    +0.000 C 
ATOM     10  C   UNL     1       0.150  15.993  18.651  0.00  0.00    +0.000 C 
ATOM     11  C   UNL     1      -0.682  14.281  20.345  0.00  0.00    +0.000 C 
ATOM     12  C   UNL     1      -1.309  12.896  20.011  0.00  0.00    +0.000 C 
ENDROOT
BRANCH   1  14
ATOM     13  C   UNL     1      -4.816  13.093  20.787  0.00  0.00    +0.000 C 
ATOM     14  C   UNL     1      -3.444  13.586  21.223  0.00  0.00    +0.000 C 
ENDBRANCH   1  14
BRANCH   5  15
ATOM     15  O   UNL     1      -0.034  15.682  22.197  0.00  0.00    +0.000 OA
ATOM     16  H   UNL     1      -0.401  16.249  21.466  0.00  0.00    +0.000 HD
ENDBRANCH   5  15
BRANCH  12  17
ATOM     17  C   UNL     1      -0.274  11.808  19.794  0.00  0.00    +0.000 C 
ATOM     18  C   UNL     1      -0.506  10.743  19.009  0.00  0.00    +0.000 C 
BRANCH  18  19
ATOM     19  C   UNL     1       0.484   9.654  18.913  0.00  0.00    +0.000 A 
ATOM     20  C   UNL     1       0.877   8.963  20.064  0.00  0.00    +0.000 A 
ATOM     21  C   UNL     1       1.859   7.977  19.965  0.00  0.00    +0.000 A 
ATOM     22  C   UNL     1       2.453   7.668  18.722  0.00  0.00    +0.000 A 
ATOM     23  C   UNL     1       2.010   8.391  17.597  0.00  0.00    +0.000 A 
ATOM     24  N   UNL     1       1.058   9.345  17.729  0.00  0.00    +0.000 NA
BRANCH  22  25
ATOM     25  C   UNL     1       3.518   6.626  18.601  0.00  0.00    +0.000 A 
ATOM     26  C   UNL     1       3.793   5.654  19.589  0.00  0.00    +0.000 A 
ATOM     27  C   UNL     1       4.826   4.791  19.263  0.00  0.00    +0.000 A 
ATOM     28  S   UNL     1       5.419   5.215  17.756  0.00  0.00    +0.000 S 
ATOM     29  C   UNL     1       4.370   6.500  17.495  0.00  0.00    +0.000 A 
ENDBRANCH  22  25
ENDBRANCH  18  19
ENDBRANCH  12  17
TORSDOF 5
ENDMDL
MODEL 6
REMARK VINA RESULT:      -6.4      2.474      3.875
REMARK  Name = 
REMARK  8 active torsions:
REMARK  status: ('A' for Active; 'I' for Inactive)
REMARK    1  A    between atoms: C_1  and  C_2
REMARK    2  A    between atoms: C_2  and  C_3
REMARK    3  A    between atoms: C_4  and  C_5
REMARK    4  A    between atoms: C_7  and  O_8
REMARK    5  A    between atoms: C_12  and  C_13
REMARK    6  A    between atoms: C_15  and  C_16
REMARK    7  A    between atoms: C_17  and  C_18
REMARK    8  A    between atoms: C_21  and  C_22
REMARK                            x       y       z     vdW  Elec       q    Type
REMARK                         _______ _______ _______ _____ _____    ______ ____
ROOT
ATOM      1  C   UNL     1       4.278   4.906  17.196  0.00  0.00    +0.000 C 
ATOM      2  C   UNL     1       5.148   5.186  18.463  0.00  0.00    +0.000 C 
ATOM      3  C   UNL     1       5.164   6.668  18.895  0.00  0.00    +0.000 C 
ATOM      4  C   UNL     1       4.863   4.187  19.635  0.00  0.00    +0.000 C 
ATOM      5  C   UNL     1       3.474   3.423  19.738  0.00  0.00    +0.000 C 
ATOM      6  C   UNL     1       2.442   3.846  20.731  0.00  0.00    +0.000 C 
ATOM      7  O   UNL     1       2.678   3.997  21.922  0.00  0.00    +0.000 OA
ATOM      8  O   UNL     1       1.184   3.632  20.283  0.00  0.00    +0.000 OA
ATOM      9  C   UNL     1       1.140   3.364  18.929  0.00  0.00    +0.000 C 
ATOM     10  C   UNL     1       0.514   2.019  18.553  0.00  0.00    +0.000 C 
ATOM     11  C   UNL     1       2.607   3.468  18.449  0.00  0.00    +0.000 C 
ATOM     12  C   UNL     1       2.785   4.756  17.592  0.00  0.00    +0.000 C 
ENDROOT
BRANCH   1  14
ATOM     13  C   UNL     1       5.956   3.921  15.497  0.00  0.00    +0.000 C 
ATOM     14  C   UNL     1       4.747   3.662  16.384  0.00  0.00    +0.000 C 
ENDBRANCH   1  14
BRANCH   5  15
ATOM     15  O   UNL     1       3.747   2.074  20.051  0.00  0.00    +0.000 OA
ATOM     16  H   UNL     1       3.099   1.784  20.748  0.00  0.00    +0.000 HD
ENDBRANCH   5  15
BRANCH  12  17
ATOM     17  C   UNL     1       2.257   6.005  18.272  0.00  0.00    +0.000 C 
ATOM     18  C   UNL     1       2.246   7.203  17.665  0.00  0.00    +0.000 C 
BRANCH  18  19
ATOM     19  C   UNL     1       1.827   8.410  18.399  0.00  0.00    +0.000 A 
ATOM     20  C   UNL     1       1.846   9.657  17.765  0.00  0.00    +0.000 A 
ATOM     21  C   UNL     1       1.505  10.798  18.492  0.00  0.00    +0.000 A 
ATOM     22  C   UNL     1       1.138  10.707  19.853  0.00  0.00    +0.000 A 
ATOM     23  C   UNL     1       1.129   9.424  20.435  0.00  0.00    +0.000 A 
ATOM     24  N   UNL     1       1.470   8.337  19.701  0.00  0.00    +0.000 NA
BRANCH  22  25
ATOM     25  C   UNL     1       0.786  11.920  20.652  0.00  0.00    +0.000 A 
ATOM     26  C   UNL     1       1.540  13.117  20.651  0.00  0.00    +0.000 A 
ATOM     27  C   UNL     1       1.027  14.109  21.469  0.00  0.00    +0.000 A 
ATOM     28  S   UNL     1      -0.359  13.528  22.208  0.00  0.00    +0.000 S 
ATOM     29  C   UNL     1      -0.327  12.007  21.497  0.00  0.00    +0.000 A 
ENDBRANCH  22  25
ENDBRANCH  18  19
ENDBRANCH  12  17
TORSDOF 5
ENDMDL
MODEL 7
REMARK VINA RESULT:      -6.4      1.846      3.464
REMARK  Name = 
REMARK  8 active torsions:
REMARK  status: ('A' for Active; 'I' for Inactive)
REMARK    1  A    between atoms: C_1  and  C_2
REMARK    2  A    between atoms: C_2  and  C_3
REMARK    3  A    between atoms: C_4  and  C_5
REMARK    4  A    between atoms: C_7  and  O_8
REMARK    5  A    between atoms: C_12  and  C_13
REMARK    6  A    between atoms: C_15  and  C_16
REMARK    7  A    between atoms: C_17  and  C_18
REMARK    8  A    between atoms: C_21  and  C_22
REMARK                            x       y       z     vdW  Elec       q    Type
REMARK                         _______ _______ _______ _____ _____    ______ ____
ROOT
ATOM      1  C   UNL     1       4.896   5.416  15.696  0.00  0.00    +0.000 C 
ATOM      2  C   UNL     1       6.084   6.393  15.969  0.00  0.00    +0.000 C 
ATOM      3  C   UNL     1       5.645   7.846  16.254  0.00  0.00    +0.000 C 
ATOM      4  C   UNL     1       7.116   5.827  17.001  0.00  0.00    +0.000 C 
ATOM      5  C   UNL     1       6.690   4.726  18.064  0.00  0.00    +0.000 C 
ATOM      6  C   UNL     1       6.464   5.092  19.494  0.00  0.00    +0.000 C 
ATOM      7  O   UNL     1       7.275   5.716  20.164  0.00  0.00    +0.000 OA
ATOM      8  O   UNL     1       5.512   4.326  20.073  0.00  0.00    +0.000 OA
ATOM      9  C   UNL     1       4.774   3.608  19.151  0.00  0.00    +0.000 C 
ATOM     10  C   UNL     1       4.804   2.088  19.338  0.00  0.00    +0.000 C 
ATOM     11  C   UNL     1       5.333   4.027  17.772  0.00  0.00    +0.000 C 
ATOM     12  C   UNL     1       4.291   4.918  17.035  0.00  0.00    +0.000 C 
ENDROOT
BRANCH   1  14
ATOM     13  C   UNL     1       6.489   4.456  13.903  0.00  0.00    +0.000 C 
ATOM     14  C   UNL     1       5.283   4.204  14.797  0.00  0.00    +0.000 C 
ENDBRANCH   1  14
BRANCH   5  15
ATOM     15  O   UNL     1       7.705   3.745  18.097  0.00  0.00    +0.000 OA
ATOM     16  H   UNL     1       7.726   3.296  17.209  0.00  0.00    +0.000 HD
ENDBRANCH   5  15
BRANCH  12  17
ATOM     17  C   UNL     1       3.782   6.068  17.883  0.00  0.00    +0.000 C 
ATOM     18  C   UNL     1       2.512   6.133  18.318  0.00  0.00    +0.000 C 
BRANCH  18  19
ATOM     19  C   UNL     1       2.030   7.322  19.045  0.00  0.00    +0.000 A 
ATOM     20  C   UNL     1       1.775   7.246  20.418  0.00  0.00    +0.000 A 
ATOM     21  C   UNL     1       1.261   8.362  21.079  0.00  0.00    +0.000 A 
ATOM     22  C   UNL     1       1.003   9.562  20.381  0.00  0.00    +0.000 A 
ATOM     23  C   UNL     1       1.288   9.581  19.001  0.00  0.00    +0.000 A 
ATOM     24  N   UNL     1       1.782   8.478  18.390  0.00  0.00    +0.000 NA
BRANCH  22  25
ATOM     25  C   UNL     1       0.437  10.762  21.070  0.00  0.00    +0.000 A 
ATOM     26  C   UNL     1      -0.471  10.702  22.152  0.00  0.00    +0.000 A 
ATOM     27  C   UNL     1      -0.864  11.939  22.631  0.00  0.00    +0.000 A 
ATOM     28  S   UNL     1      -0.104  13.127  21.728  0.00  0.00    +0.000 S 
ATOM     29  C   UNL     1       0.737  12.084  20.716  0.00  0.00    +0.000 A 
ENDBRANCH  22  25
ENDBRANCH  18  19
ENDBRANCH  12  17
TORSDOF 5
ENDMDL
MODEL 8
REMARK VINA RESULT:      -6.4      4.303      9.377
REMARK  Name = 
REMARK  8 active torsions:
REMARK  status: ('A' for Active; 'I' for Inactive)
REMARK    1  A    between atoms: C_1  and  C_2
REMARK    2  A    between atoms: C_2  and  C_3
REMARK    3  A    between atoms: C_4  and  C_5
REMARK    4  A    between atoms: C_7  and  O_8
REMARK    5  A    between atoms: C_12  and  C_13
REMARK    6  A    between atoms: C_15  and  C_16
REMARK    7  A    between atoms: C_17  and  C_18
REMARK    8  A    between atoms: C_21  and  C_22
REMARK                            x       y       z     vdW  Elec       q    Type
REMARK                         _______ _______ _______ _____ _____    ______ ____
ROOT
ATOM      1  C   UNL     1      -0.658  13.921  19.990  0.00  0.00    +0.000 C 
ATOM      2  C   UNL     1      -0.365  13.711  21.509  0.00  0.00    +0.000 C 
ATOM      3  C   UNL     1      -0.385  12.231  21.950  0.00  0.00    +0.000 C 
ATOM      4  C   UNL     1       0.889  14.504  22.006  0.00  0.00    +0.000 C 
ATOM      5  C   UNL     1       2.036  14.937  20.996  0.00  0.00    +0.000 C 
ATOM      6  C   UNL     1       3.338  14.206  20.959  0.00  0.00    +0.000 C 
ATOM      7  O   UNL     1       4.016  13.993  21.954  0.00  0.00    +0.000 OA
ATOM      8  O   UNL     1       3.879  14.188  19.720  0.00  0.00    +0.000 OA
ATOM      9  C   UNL     1       2.981  14.573  18.743  0.00  0.00    +0.000 C 
ATOM     10  C   UNL     1       3.409  15.783  17.908  0.00  0.00    +0.000 C 
ATOM     11  C   UNL     1       1.655  14.835  19.493  0.00  0.00    +0.000 C 
ATOM     12  C   UNL     1       0.635  13.707  19.158  0.00  0.00    +0.000 C 
ENDROOT
BRANCH   1  14
ATOM     13  C   UNL     1      -2.317  15.777  20.678  0.00  0.00    +0.000 C 
ATOM     14  C   UNL     1      -1.282  15.311  19.664  0.00  0.00    +0.000 C 
ENDBRANCH   1  14
BRANCH   5  15
ATOM     15  O   UNL     1       2.380  16.276  21.284  0.00  0.00    +0.000 OA
ATOM     16  H   UNL     1       2.339  16.792  20.434  0.00  0.00    +0.000 HD
ENDBRANCH   5  15
BRANCH  12  17
ATOM     17  C   UNL     1       1.201  12.313  19.350  0.00  0.00    +0.000 C 
ATOM     18  C   UNL     1       0.818  11.272  18.592  0.00  0.00    +0.000 C 
BRANCH  18  19
ATOM     19  C   UNL     1       1.310   9.913  18.884  0.00  0.00    +0.000 A 
ATOM     20  C   UNL     1       1.946   9.170  17.884  0.00  0.00    +0.000 A 
ATOM     21  C   UNL     1       2.351   7.863  18.159  0.00  0.00    +0.000 A 
ATOM     22  C   UNL     1       2.130   7.288  19.430  0.00  0.00    +0.000 A 
ATOM     23  C   UNL     1       1.493   8.088  20.398  0.00  0.00    +0.000 A 
ATOM     24  N   UNL     1       1.109   9.352  20.097  0.00  0.00    +0.000 NA
BRANCH  22  25
ATOM     25  C   UNL     1       2.542   5.884  19.736  0.00  0.00    +0.000 A 
ATOM     26  C   UNL     1       3.658   5.240  19.155  0.00  0.00    +0.000 A 
ATOM     27  C   UNL     1       3.848   3.938  19.585  0.00  0.00    +0.000 A 
ATOM     28  S   UNL     1       2.643   3.558  20.685  0.00  0.00    +0.000 S 
ATOM     29  C   UNL     1       1.864   5.045  20.630  0.00  0.00    +0.000 A 
ENDBRANCH  22  25
ENDBRANCH  18  19
ENDBRANCH  12  17
TORSDOF 5
ENDMDL
MODEL 9
REMARK VINA RESULT:      -6.4      6.779     12.131
REMARK  Name = 
REMARK  8 active torsions:
REMARK  status: ('A' for Active; 'I' for Inactive)
REMARK    1  A    between atoms: C_1  and  C_2
REMARK    2  A    between atoms: C_2  and  C_3
REMARK    3  A    between atoms: C_4  and  C_5
REMARK    4  A    between atoms: C_7  and  O_8
REMARK    5  A    between atoms: C_12  and  C_13
REMARK    6  A    between atoms: C_15  and  C_16
REMARK    7  A    between atoms: C_17  and  C_18
REMARK    8  A    between atoms: C_21  and  C_22
REMARK                            x       y       z     vdW  Elec       q    Type
REMARK                         _______ _______ _______ _____ _____    ______ ____
ROOT
ATOM      1  C   UNL     1      -6.768  13.912  20.518  0.00  0.00    +0.000 C 
ATOM      2  C   UNL     1      -7.286  12.531  21.032  0.00  0.00    +0.000 C 
ATOM      3  C   UNL     1      -6.609  11.319  20.355  0.00  0.00    +0.000 C 
ATOM      4  C   UNL     1      -7.336  12.439  22.594  0.00  0.00    +0.000 C 
ATOM      5  C   UNL     1      -6.415  13.365  23.498  0.00  0.00    +0.000 C 
ATOM      6  C   UNL     1      -5.200  12.812  24.168  0.00  0.00    +0.000 C 
ATOM      7  O   UNL     1      -5.216  11.804  24.861  0.00  0.00    +0.000 OA
ATOM      8  O   UNL     1      -4.217  13.733  24.284  0.00  0.00    +0.000 OA
ATOM      9  C   UNL     1      -4.442  14.852  23.506  0.00  0.00    +0.000 C 
ATOM     10  C   UNL     1      -4.507  16.175  24.275  0.00  0.00    +0.000 C 
ATOM     11  C   UNL     1      -5.761  14.561  22.752  0.00  0.00    +0.000 C 
ATOM     12  C   UNL     1      -5.455  14.300  21.248  0.00  0.00    +0.000 C 
ENDROOT
BRANCH   1  14
ATOM     13  C   UNL     1      -7.441  16.330  19.906  0.00  0.00    +0.000 C 
ATOM     14  C   UNL     1      -7.816  15.057  20.652  0.00  0.00    +0.000 C 
ENDBRANCH   1  14
BRANCH   5  15
ATOM     15  O   UNL     1      -7.211  13.869  24.549  0.00  0.00    +0.000 OA
ATOM     16  H   UNL     1      -7.753  14.622  24.189  0.00  0.00    +0.000 HD
ENDBRANCH   5  15
BRANCH  12  17
ATOM     17  C   UNL     1      -4.366  13.267  21.031  0.00  0.00    +0.000 C 
ATOM     18  C   UNL     1      -3.142  13.596  20.584  0.00  0.00    +0.000 C 
BRANCH  18  19
ATOM     19  C   UNL     1      -2.150  12.550  20.281  0.00  0.00    +0.000 A 
ATOM     20  C   UNL     1      -0.960  12.480  21.015  0.00  0.00    +0.000 A 
ATOM     21  C   UNL     1      -0.005  11.522  20.674  0.00  0.00    +0.000 A 
ATOM     22  C   UNL     1      -0.226  10.624  19.607  0.00  0.00    +0.000 A 
ATOM     23  C   UNL     1      -1.446  10.738  18.911  0.00  0.00    +0.000 A 
ATOM     24  N   UNL     1      -2.350  11.682  19.264  0.00  0.00    +0.000 NA
BRANCH  22  25
ATOM     25  C   UNL     1       0.794   9.603  19.218  0.00  0.00    +0.000 A 
ATOM     26  C   UNL     1       1.463   9.584  17.973  0.00  0.00    +0.000 A 
ATOM     27  C   UNL     1       2.365   8.544  17.831  0.00  0.00    +0.000 A 
ATOM     28  S   UNL     1       2.350   7.629  19.233  0.00  0.00    +0.000 S 
ATOM     29  C   UNL     1       1.197   8.544  20.042  0.00  0.00    +0.000 A 
ENDBRANCH  22  25
ENDBRANCH  18  19
ENDBRANCH  12  17
TORSDOF 5
ENDMDL
