MODEL 1
REMARK VINA RESULT:      -7.1      0.000      0.000
REMARK  Name = 
REMARK  9 active torsions:
REMARK  status: ('A' for Active; 'I' for Inactive)
REMARK    1  A    between atoms: C_1  and  C_2
REMARK    2  A    between atoms: C_5  and  S_6
REMARK    3  A    between atoms: S_6  and  N_9
REMARK    4  A    between atoms: N_9  and  C_10
REMARK    5  A    between atoms: C_10  and  C_11
REMARK    6  A    between atoms: C_11  and  C_12
REMARK    7  A    between atoms: C_11  and  N_13
REMARK    8  A    between atoms: C_15  and  C_16
REMARK    9  A    between atoms: C_18  and  C_19
REMARK                            x       y       z     vdW  Elec       q    Type
REMARK                         _______ _______ _______ _____ _____    ______ ____
ROOT
ATOM      1  N   UNL     1       6.056   4.450  18.474  0.00  0.00    +0.000 NA
ATOM      2  H   UNL     1       6.207   3.538  18.934  0.00  0.00    +0.000 HD
ENDROOT
BRANCH   1   3
ATOM      3  S   UNL     1       7.348   4.906  17.502  0.00  0.00    +0.000 S 
ATOM      4  O   UNL     1       8.462   4.042  17.819  0.00  0.00    +0.000 OA
ATOM      5  O   UNL     1       7.461   6.350  17.579  0.00  0.00    +0.000 OA
BRANCH   3  10
ATOM      6  C   UNL     1       5.378   3.486  11.941  0.00  0.00    +0.000 C 
ATOM      7  C   UNL     1       5.876   3.818  13.318  0.00  0.00    +0.000 A 
ATOM      8  C   UNL     1       5.209   3.338  14.453  0.00  0.00    +0.000 A 
ATOM      9  C   UNL     1       5.659   3.668  15.731  0.00  0.00    +0.000 A 
ATOM     10  C   UNL     1       6.779   4.482  15.874  0.00  0.00    +0.000 A 
ATOM     11  C   UNL     1       7.455   4.977  14.751  0.00  0.00    +0.000 A 
ATOM     12  C   UNL     1       7.005   4.634  13.475  0.00  0.00    +0.000 A 
ENDBRANCH   3  10
ENDBRANCH   1   3
BRANCH   1  13
ATOM     13  C   UNL     1       5.498   5.462  19.399  0.00  0.00    +0.000 C 
BRANCH  13  14
ATOM     14  C   UNL     1       4.108   5.971  18.969  0.00  0.00    +0.000 C 
ATOM     15  C   UNL     1       4.071   6.348  17.489  0.00  0.00    +0.000 C 
BRANCH  14  16
ATOM     16  N   UNL     1       3.028   5.048  19.322  0.00  0.00    +0.000 N 
ATOM     17  N   UNL     1       3.064   3.778  18.853  0.00  0.00    +0.000 NA
ATOM     18  C   UNL     1       1.964   3.204  19.343  0.00  0.00    +0.000 A 
ATOM     19  C   UNL     1       1.659   1.785  19.050  0.00  0.00    +0.000 C 
ATOM     20  C   UNL     1       1.215   4.105  20.124  0.00  0.00    +0.000 A 
ATOM     21  C   UNL     1       1.926   5.287  20.113  0.00  0.00    +0.000 A 
ATOM     22  C   UNL     1       1.615   6.576  20.778  0.00  0.00    +0.000 C 
ENDBRANCH  14  16
ENDBRANCH  13  14
ENDBRANCH   1  13
TORSDOF 5
ENDMDL
MODEL 2
REMARK VINA RESULT:      -6.8      1.109      1.291
REMARK  Name = 
REMARK  9 active torsions:
REMARK  status: ('A' for Active; 'I' for Inactive)
REMARK    1  A    between atoms: C_1  and  C_2
REMARK    2  A    between atoms: C_5  and  S_6
REMARK    3  A    between atoms: S_6  and  N_9
REMARK    4  A    between atoms: N_9  and  C_10
REMARK    5  A    between atoms: C_10  and  C_11
REMARK    6  A    between atoms: C_11  and  C_12
REMARK    7  A    between atoms: C_11  and  N_13
REMARK    8  A    between atoms: C_15  and  C_16
REMARK    9  A    between atoms: C_18  and  C_19
REMARK                            x       y       z     vdW  Elec       q    Type
REMARK                         _______ _______ _______ _____ _____    ______ ____
ROOT
ATOM      1  N   UNL     1       5.629   6.198  17.602  0.00  0.00    +0.000 NA
ATOM      2  H   UNL     1       4.840   5.928  16.992  0.00  0.00    +0.000 HD
ENDROOT
BRANCH   1   3
ATOM      3  S   UNL     1       7.123   5.843  16.921  0.00  0.00    +0.000 S 
ATOM      4  O   UNL     1       7.781   4.885  17.781  0.00  0.00    +0.000 OA
ATOM      5  O   UNL     1       7.749   7.102  16.567  0.00  0.00    +0.000 OA
BRANCH   3  10
ATOM      6  C   UNL     1       5.575   3.011  11.782  0.00  0.00    +0.000 C 
ATOM      7  C   UNL     1       5.967   3.693  13.061  0.00  0.00    +0.000 A 
ATOM      8  C   UNL     1       5.184   3.552  14.214  0.00  0.00    +0.000 A 
ATOM      9  C   UNL     1       5.538   4.206  15.394  0.00  0.00    +0.000 A 
ATOM     10  C   UNL     1       6.677   5.006  15.420  0.00  0.00    +0.000 A 
ATOM     11  C   UNL     1       7.468   5.164  14.274  0.00  0.00    +0.000 A 
ATOM     12  C   UNL     1       7.114   4.498  13.099  0.00  0.00    +0.000 A 
ENDBRANCH   3  10
ENDBRANCH   1   3
BRANCH   1  13
ATOM     13  C   UNL     1       5.406   5.812  19.013  0.00  0.00    +0.000 C 
BRANCH  13  14
ATOM     14  C   UNL     1       3.912   5.700  19.379  0.00  0.00    +0.000 C 
ATOM     15  C   UNL     1       3.051   6.661  18.562  0.00  0.00    +0.000 C 
BRANCH  14  16
ATOM     16  N   UNL     1       3.409   4.327  19.311  0.00  0.00    +0.000 N 
ATOM     17  N   UNL     1       4.129   3.392  18.647  0.00  0.00    +0.000 NA
ATOM     18  C   UNL     1       3.418   2.269  18.767  0.00  0.00    +0.000 A 
ATOM     19  C   UNL     1       3.900   1.003  18.167  0.00  0.00    +0.000 C 
ATOM     20  C   UNL     1       2.238   2.480  19.505  0.00  0.00    +0.000 A 
ATOM     21  C   UNL     1       2.256   3.813  19.863  0.00  0.00    +0.000 A 
ATOM     22  C   UNL     1       1.270   4.585  20.657  0.00  0.00    +0.000 C 
ENDBRANCH  14  16
ENDBRANCH  13  14
ENDBRANCH   1  13
TORSDOF 5
ENDMDL
MODEL 3
REMARK VINA RESULT:      -6.8      1.101      1.675
REMARK  Name = 
REMARK  9 active torsions:
REMARK  status: ('A' for Active; 'I' for Inactive)
REMARK    1  A    between atoms: C_1  and  C_2
REMARK    2  A    between atoms: C_5  and  S_6
REMARK    3  A    between atoms: S_6  and  N_9
REMARK    4  A    between atoms: N_9  and  C_10
REMARK    5  A    between atoms: C_10  and  C_11
REMARK    6  A    between atoms: C_11  and  C_12
REMARK    7  A    between atoms: C_11  and  N_13
REMARK    8  A    between atoms: C_15  and  C_16
REMARK    9  A    between atoms: C_18  and  C_19
REMARK                            x       y       z     vdW  Elec       q    Type
REMARK                         _______ _______ _______ _____ _____    ______ ____
ROOT
ATOM      1  N   UNL     1       5.571   6.248  17.710  0.00  0.00    +0.000 NA
ATOM      2  H   UNL     1       4.785   6.067  17.065  0.00  0.00    +0.000 HD
ENDROOT
BRANCH   1   3
ATOM      3  S   UNL     1       7.058   5.828  17.051  0.00  0.00    +0.000 S 
ATOM      4  O   UNL     1       7.655   4.832  17.913  0.00  0.00    +0.000 OA
ATOM      5  O   UNL     1       7.750   7.059  16.720  0.00  0.00    +0.000 OA
BRANCH   3  10
ATOM      6  C   UNL     1       5.512   3.057  11.879  0.00  0.00    +0.000 C 
ATOM      7  C   UNL     1       5.887   3.762  13.150  0.00  0.00    +0.000 A 
ATOM      8  C   UNL     1       7.117   4.423  13.262  0.00  0.00    +0.000 A 
ATOM      9  C   UNL     1       7.475   5.057  14.452  0.00  0.00    +0.000 A 
ATOM     10  C   UNL     1       6.599   5.026  15.534  0.00  0.00    +0.000 A 
ATOM     11  C   UNL     1       5.369   4.363  15.443  0.00  0.00    +0.000 A 
ATOM     12  C   UNL     1       5.012   3.740  14.246  0.00  0.00    +0.000 A 
ENDBRANCH   3  10
ENDBRANCH   1   3
BRANCH   1  13
ATOM     13  C   UNL     1       5.279   5.804  19.091  0.00  0.00    +0.000 C 
BRANCH  13  14
ATOM     14  C   UNL     1       3.770   5.652  19.370  0.00  0.00    +0.000 C 
ATOM     15  C   UNL     1       2.932   6.578  18.491  0.00  0.00    +0.000 C 
BRANCH  14  16
ATOM     16  N   UNL     1       3.312   4.264  19.288  0.00  0.00    +0.000 N 
ATOM     17  N   UNL     1       4.069   3.356  18.629  0.00  0.00    +0.000 NA
ATOM     18  C   UNL     1       3.393   2.210  18.734  0.00  0.00    +0.000 A 
ATOM     19  C   UNL     1       3.922   0.963  18.135  0.00  0.00    +0.000 C 
ATOM     20  C   UNL     1       2.197   2.380  19.458  0.00  0.00    +0.000 A 
ATOM     21  C   UNL     1       2.169   3.710  19.823  0.00  0.00    +0.000 A 
ATOM     22  C   UNL     1       1.149   4.447  20.607  0.00  0.00    +0.000 C 
ENDBRANCH  14  16
ENDBRANCH  13  14
ENDBRANCH   1  13
TORSDOF 5
ENDMDL
MODEL 4
REMARK VINA RESULT:      -6.8      1.161      1.612
REMARK  Name = 
REMARK  9 active torsions:
REMARK  status: ('A' for Active; 'I' for Inactive)
REMARK    1  A    between atoms: C_1  and  C_2
REMARK    2  A    between atoms: C_5  and  S_6
REMARK    3  A    between atoms: S_6  and  N_9
REMARK    4  A    between atoms: N_9  and  C_10
REMARK    5  A    between atoms: C_10  and  C_11
REMARK    6  A    between atoms: C_11  and  C_12
REMARK    7  A    between atoms: C_11  and  N_13
REMARK    8  A    between atoms: C_15  and  C_16
REMARK    9  A    between atoms: C_18  and  C_19
REMARK                            x       y       z     vdW  Elec       q    Type
REMARK                         _______ _______ _______ _____ _____    ______ ____
ROOT
ATOM      1  N   UNL     1       5.546   6.040  17.825  0.00  0.00    +0.000 NA
ATOM      2  H   UNL     1       4.807   6.098  17.106  0.00  0.00    +0.000 HD
ENDROOT
BRANCH   1   3
ATOM      3  S   UNL     1       7.048   5.655  17.179  0.00  0.00    +0.000 S 
ATOM      4  O   UNL     1       7.635   4.629  18.013  0.00  0.00    +0.000 OA
ATOM      5  O   UNL     1       7.738   6.902  16.910  0.00  0.00    +0.000 OA
BRANCH   3  10
ATOM      6  C   UNL     1       5.573   3.144  11.856  0.00  0.00    +0.000 C 
ATOM      7  C   UNL     1       5.946   3.746  13.179  0.00  0.00    +0.000 A 
ATOM      8  C   UNL     1       5.099   3.613  14.287  0.00  0.00    +0.000 A 
ATOM      9  C   UNL     1       5.436   4.194  15.510  0.00  0.00    +0.000 A 
ATOM     10  C   UNL     1       6.623   4.911  15.624  0.00  0.00    +0.000 A 
ATOM     11  C   UNL     1       7.480   5.060  14.525  0.00  0.00    +0.000 A 
ATOM     12  C   UNL     1       7.142   4.467  13.307  0.00  0.00    +0.000 A 
ENDBRANCH   3  10
ENDBRANCH   1   3
BRANCH   1  13
ATOM     13  C   UNL     1       5.104   5.301  19.029  0.00  0.00    +0.000 C 
BRANCH  13  14
ATOM     14  C   UNL     1       3.681   5.684  19.483  0.00  0.00    +0.000 C 
ATOM     15  C   UNL     1       3.022   6.671  18.521  0.00  0.00    +0.000 C 
BRANCH  14  16
ATOM     16  N   UNL     1       2.829   4.520  19.735  0.00  0.00    +0.000 N 
ATOM     17  N   UNL     1       2.553   4.169  21.013  0.00  0.00    +0.000 NA
ATOM     18  C   UNL     1       1.769   3.094  20.906  0.00  0.00    +0.000 A 
ATOM     19  C   UNL     1       1.245   2.419  22.116  0.00  0.00    +0.000 C 
ATOM     20  C   UNL     1       1.544   2.749  19.560  0.00  0.00    +0.000 A 
ATOM     21  C   UNL     1       2.224   3.692  18.816  0.00  0.00    +0.000 A 
ATOM     22  C   UNL     1       2.328   3.828  17.343  0.00  0.00    +0.000 C 
ENDBRANCH  14  16
ENDBRANCH  13  14
ENDBRANCH   1  13
TORSDOF 5
ENDMDL
MODEL 5
REMARK VINA RESULT:      -6.6      1.062      2.240
REMARK  Name = 
REMARK  9 active torsions:
REMARK  status: ('A' for Active; 'I' for Inactive)
REMARK    1  A    between atoms: C_1  and  C_2
REMARK    2  A    between atoms: C_5  and  S_6
REMARK    3  A    between atoms: S_6  and  N_9
REMARK    4  A    between atoms: N_9  and  C_10
REMARK    5  A    between atoms: C_10  and  C_11
REMARK    6  A    between atoms: C_11  and  C_12
REMARK    7  A    between atoms: C_11  and  N_13
REMARK    8  A    between atoms: C_15  and  C_16
REMARK    9  A    between atoms: C_18  and  C_19
REMARK                            x       y       z     vdW  Elec       q    Type
REMARK                         _______ _______ _______ _____ _____    ______ ____
ROOT
ATOM      1  N   UNL     1       5.466   5.319  17.957  0.00  0.00    +0.000 NA
ATOM      2  H   UNL     1       4.650   5.143  17.349  0.00  0.00    +0.000 HD
ENDROOT
BRANCH   1   3
ATOM      3  S   UNL     1       6.881   5.561  17.085  0.00  0.00    +0.000 S 
ATOM      4  O   UNL     1       7.917   4.758  17.696  0.00  0.00    +0.000 OA
ATOM      5  O   UNL     1       7.039   6.990  16.900  0.00  0.00    +0.000 OA
BRANCH   3  10
ATOM      6  C   UNL     1       5.539   3.122  11.693  0.00  0.00    +0.000 C 
ATOM      7  C   UNL     1       5.880   3.706  13.033  0.00  0.00    +0.000 A 
ATOM      8  C   UNL     1       5.040   3.501  14.135  0.00  0.00    +0.000 A 
ATOM      9  C   UNL     1       5.346   4.065  15.373  0.00  0.00    +0.000 A 
ATOM     10  C   UNL     1       6.496   4.838  15.509  0.00  0.00    +0.000 A 
ATOM     11  C   UNL     1       7.344   5.060  14.416  0.00  0.00    +0.000 A 
ATOM     12  C   UNL     1       7.037   4.484  13.182  0.00  0.00    +0.000 A 
ENDBRANCH   3  10
ENDBRANCH   1   3
BRANCH   1  13
ATOM     13  C   UNL     1       5.518   4.393  19.111  0.00  0.00    +0.000 C 
BRANCH  13  14
ATOM     14  C   UNL     1       4.288   3.467  19.196  0.00  0.00    +0.000 C 
ATOM     15  C   UNL     1       4.563   2.231  20.052  0.00  0.00    +0.000 C 
BRANCH  14  16
ATOM     16  N   UNL     1       3.075   4.166  19.624  0.00  0.00    +0.000 N 
ATOM     17  N   UNL     1       3.161   5.460  20.013  0.00  0.00    +0.000 NA
ATOM     18  C   UNL     1       1.912   5.801  20.333  0.00  0.00    +0.000 A 
ATOM     19  C   UNL     1       1.599   7.170  20.804  0.00  0.00    +0.000 C 
ATOM     20  C   UNL     1       1.020   4.726  20.155  0.00  0.00    +0.000 A 
ATOM     21  C   UNL     1       1.787   3.681  19.679  0.00  0.00    +0.000 A 
ATOM     22  C   UNL     1       1.373   2.308  19.305  0.00  0.00    +0.000 C 
ENDBRANCH  14  16
ENDBRANCH  13  14
ENDBRANCH   1  13
TORSDOF 5
ENDMDL
MODEL 6
REMARK VINA RESULT:      -6.5      2.961      6.692
REMARK  Name = 
REMARK  9 active torsions:
REMARK  status: ('A' for Active; 'I' for Inactive)
REMARK    1  A    between atoms: C_1  and  C_2
REMARK    2  A    between atoms: C_5  and  S_6
REMARK    3  A    between atoms: S_6  and  N_9
REMARK    4  A    between atoms: N_9  and  C_10
REMARK    5  A    between atoms: C_10  and  C_11
REMARK    6  A    between atoms: C_11  and  C_12
REMARK    7  A    between atoms: C_11  and  N_13
REMARK    8  A    between atoms: C_15  and  C_16
REMARK    9  A    between atoms: C_18  and  C_19
REMARK                            x       y       z     vdW  Elec       q    Type
REMARK                         _______ _______ _______ _____ _____    ______ ____
ROOT
ATOM      1  N   UNL     1       3.519   6.036  19.694  0.00  0.00    +0.000 NA
ATOM      2  H   UNL     1       3.267   6.551  20.553  0.00  0.00    +0.000 HD
ENDROOT
BRANCH   1   3
ATOM      3  S   UNL     1       2.911   6.760  18.305  0.00  0.00    +0.000 S 
ATOM      4  O   UNL     1       1.993   5.828  17.690  0.00  0.00    +0.000 OA
ATOM      5  O   UNL     1       4.036   7.311  17.575  0.00  0.00    +0.000 OA
BRANCH   3  10
ATOM      6  C   UNL     1      -0.313  11.390  20.538  0.00  0.00    +0.000 C 
ATOM      7  C   UNL     1       0.466  10.233  19.984  0.00  0.00    +0.000 A 
ATOM      8  C   UNL     1       0.879   9.186  20.819  0.00  0.00    +0.000 A 
ATOM      9  C   UNL     1       1.624   8.124  20.306  0.00  0.00    +0.000 A 
ATOM     10  C   UNL     1       1.958   8.110  18.955  0.00  0.00    +0.000 A 
ATOM     11  C   UNL     1       1.560   9.152  18.107  0.00  0.00    +0.000 A 
ATOM     12  C   UNL     1       0.806  10.206  18.624  0.00  0.00    +0.000 A 
ENDBRANCH   3  10
ENDBRANCH   1   3
BRANCH   1  13
ATOM     13  C   UNL     1       3.343   4.574  19.843  0.00  0.00    +0.000 C 
BRANCH  13  14
ATOM     14  C   UNL     1       4.644   3.783  19.603  0.00  0.00    +0.000 C 
ATOM     15  C   UNL     1       4.408   2.274  19.631  0.00  0.00    +0.000 C 
BRANCH  14  16
ATOM     16  N   UNL     1       5.351   4.200  18.390  0.00  0.00    +0.000 N 
ATOM     17  N   UNL     1       4.863   3.833  17.182  0.00  0.00    +0.000 NA
ATOM     18  C   UNL     1       5.713   4.360  16.299  0.00  0.00    +0.000 A 
ATOM     19  C   UNL     1       5.500   4.177  14.845  0.00  0.00    +0.000 C 
ATOM     20  C   UNL     1       6.753   5.063  16.938  0.00  0.00    +0.000 A 
ATOM     21  C   UNL     1       6.493   4.963  18.289  0.00  0.00    +0.000 A 
ATOM     22  C   UNL     1       7.251   5.523  19.434  0.00  0.00    +0.000 C 
ENDBRANCH  14  16
ENDBRANCH  13  14
ENDBRANCH   1  13
TORSDOF 5
ENDMDL
MODEL 7
REMARK VINA RESULT:      -6.5      3.287      6.994
REMARK  Name = 
REMARK  9 active torsions:
REMARK  status: ('A' for Active; 'I' for Inactive)
REMARK    1  A    between atoms: C_1  and  C_2
REMARK    2  A    between atoms: C_5  and  S_6
REMARK    3  A    between atoms: S_6  and  N_9
REMARK    4  A    between atoms: N_9  and  C_10
REMARK    5  A    between atoms: C_10  and  C_11
REMARK    6  A    between atoms: C_11  and  C_12
REMARK    7  A    between atoms: C_11  and  N_13
REMARK    8  A    between atoms: C_15  and  C_16
REMARK    9  A    between atoms: C_18  and  C_19
REMARK                            x       y       z     vdW  Elec       q    Type
REMARK                         _______ _______ _______ _____ _____    ______ ____
ROOT
ATOM      1  N   UNL     1       4.407   6.428  17.356  0.00  0.00    +0.000 NA
ATOM      2  H   UNL     1       5.174   7.004  17.740  0.00  0.00    +0.000 HD
ENDROOT
BRANCH   1   3
ATOM      3  S   UNL     1       3.331   5.912  18.538  0.00  0.00    +0.000 S 
ATOM      4  O   UNL     1       4.098   5.596  19.722  0.00  0.00    +0.000 OA
ATOM      5  O   UNL     1       2.445   4.942  17.926  0.00  0.00    +0.000 OA
BRANCH   3  10
ATOM      6  C   UNL     1       0.092  10.914  19.684  0.00  0.00    +0.000 C 
ATOM      7  C   UNL     1       0.912   9.688  19.403  0.00  0.00    +0.000 A 
ATOM      8  C   UNL     1       1.396   9.435  18.113  0.00  0.00    +0.000 A 
ATOM      9  C   UNL     1       2.137   8.283  17.848  0.00  0.00    +0.000 A 
ATOM     10  C   UNL     1       2.393   7.381  18.877  0.00  0.00    +0.000 A 
ATOM     11  C   UNL     1       1.911   7.615  20.172  0.00  0.00    +0.000 A 
ATOM     12  C   UNL     1       1.179   8.774  20.432  0.00  0.00    +0.000 A 
ENDBRANCH   3  10
ENDBRANCH   1   3
BRANCH   1  13
ATOM     13  C   UNL     1       4.891   5.426  16.380  0.00  0.00    +0.000 C 
BRANCH  13  14
ATOM     14  C   UNL     1       6.415   5.200  16.453  0.00  0.00    +0.000 C 
ATOM     15  C   UNL     1       7.038   5.058  15.066  0.00  0.00    +0.000 C 
BRANCH  14  16
ATOM     16  N   UNL     1       7.104   6.211  17.257  0.00  0.00    +0.000 N 
ATOM     17  N   UNL     1       7.169   7.485  16.803  0.00  0.00    +0.000 NA
ATOM     18  C   UNL     1       7.844   8.146  17.744  0.00  0.00    +0.000 A 
ATOM     19  C   UNL     1       8.112   9.596  17.603  0.00  0.00    +0.000 C 
ATOM     20  C   UNL     1       8.219   7.299  18.804  0.00  0.00    +0.000 A 
ATOM     21  C   UNL     1       7.717   6.055  18.481  0.00  0.00    +0.000 A 
ATOM     22  C   UNL     1       7.801   4.783  19.239  0.00  0.00    +0.000 C 
ENDBRANCH  14  16
ENDBRANCH  13  14
ENDBRANCH   1  13
TORSDOF 5
ENDMDL
MODEL 8
REMARK VINA RESULT:      -6.5      1.498      2.191
REMARK  Name = 
REMARK  9 active torsions:
REMARK  status: ('A' for Active; 'I' for Inactive)
REMARK    1  A    between atoms: C_1  and  C_2
REMARK    2  A    between atoms: C_5  and  S_6
REMARK    3  A    between atoms: S_6  and  N_9
REMARK    4  A    between atoms: N_9  and  C_10
REMARK    5  A    between atoms: C_10  and  C_11
REMARK    6  A    between atoms: C_11  and  C_12
REMARK    7  A    between atoms: C_11  and  N_13
REMARK    8  A    between atoms: C_15  and  C_16
REMARK    9  A    between atoms: C_18  and  C_19
REMARK                            x       y       z     vdW  Elec       q    Type
REMARK                         _______ _______ _______ _____ _____    ______ ____
ROOT
ATOM      1  N   UNL     1       5.347   6.214  18.522  0.00  0.00    +0.000 NA
ATOM      2  H   UNL     1       5.787   7.004  18.023  0.00  0.00    +0.000 HD
ENDROOT
BRANCH   1   3
ATOM      3  S   UNL     1       6.239   4.796  18.401  0.00  0.00    +0.000 S 
ATOM      4  O   UNL     1       5.478   3.743  19.035  0.00  0.00    +0.000 OA
ATOM      5  O   UNL     1       7.597   5.101  18.806  0.00  0.00    +0.000 OA
BRANCH   3  10
ATOM      6  C   UNL     1       6.270   3.705  12.432  0.00  0.00    +0.000 C 
ATOM      7  C   UNL     1       6.251   3.994  13.905  0.00  0.00    +0.000 A 
ATOM      8  C   UNL     1       7.221   4.825  14.481  0.00  0.00    +0.000 A 
ATOM      9  C   UNL     1       7.217   5.073  15.853  0.00  0.00    +0.000 A 
ATOM     10  C   UNL     1       6.240   4.485  16.653  0.00  0.00    +0.000 A 
ATOM     11  C   UNL     1       5.267   3.646  16.095  0.00  0.00    +0.000 A 
ATOM     12  C   UNL     1       5.270   3.411  14.719  0.00  0.00    +0.000 A 
ENDBRANCH   3  10
ENDBRANCH   1   3
BRANCH   1  13
ATOM     13  C   UNL     1       3.889   6.135  18.276  0.00  0.00    +0.000 C 
BRANCH  13  14
ATOM     14  C   UNL     1       3.056   6.156  19.573  0.00  0.00    +0.000 C 
ATOM     15  C   UNL     1       2.121   7.362  19.630  0.00  0.00    +0.000 C 
BRANCH  14  16
ATOM     16  N   UNL     1       2.341   4.901  19.813  0.00  0.00    +0.000 N 
ATOM     17  N   UNL     1       2.331   4.375  21.060  0.00  0.00    +0.000 NA
ATOM     18  C   UNL     1       1.610   3.258  20.950  0.00  0.00    +0.000 A 
ATOM     19  C   UNL     1       1.364   2.399  22.132  0.00  0.00    +0.000 C 
ATOM     20  C   UNL     1       1.159   3.060  19.631  0.00  0.00    +0.000 A 
ATOM     21  C   UNL     1       1.627   4.142  18.913  0.00  0.00    +0.000 A 
ATOM     22  C   UNL     1       1.446   4.463  17.476  0.00  0.00    +0.000 C 
ENDBRANCH  14  16
ENDBRANCH  13  14
ENDBRANCH   1  13
TORSDOF 5
ENDMDL
MODEL 9
REMARK VINA RESULT:      -6.5      2.042      6.789
REMARK  Name = 
REMARK  9 active torsions:
REMARK  status: ('A' for Active; 'I' for Inactive)
REMARK    1  A    between atoms: C_1  and  C_2
REMARK    2  A    between atoms: C_5  and  S_6
REMARK    3  A    between atoms: S_6  and  N_9
REMARK    4  A    between atoms: N_9  and  C_10
REMARK    5  A    between atoms: C_10  and  C_11
REMARK    6  A    between atoms: C_11  and  C_12
REMARK    7  A    between atoms: C_11  and  N_13
REMARK    8  A    between atoms: C_15  and  C_16
REMARK    9  A    between atoms: C_18  and  C_19
REMARK                            x       y       z     vdW  Elec       q    Type
REMARK                         _______ _______ _______ _____ _____    ______ ____
ROOT
ATOM      1  N   UNL     1       6.818   4.098  17.819  0.00  0.00    +0.000 NA
ATOM      2  H   UNL     1       6.184   3.283  17.806  0.00  0.00    +0.000 HD
ENDROOT
BRANCH   1   3
ATOM      3  S   UNL     1       6.269   5.328  18.823  0.00  0.00    +0.000 S 
ATOM      4  O   UNL     1       6.085   6.510  18.010  0.00  0.00    +0.000 OA
ATOM      5  O   UNL     1       7.116   5.340  20.000  0.00  0.00    +0.000 OA
BRANCH   3  10
ATOM      6  C   UNL     1       0.762   3.351  20.431  0.00  0.00    +0.000 C 
ATOM      7  C   UNL     1       2.129   3.842  20.055  0.00  0.00    +0.000 A 
ATOM      8  C   UNL     1       2.406   5.215  20.007  0.00  0.00    +0.000 A 
ATOM      9  C   UNL     1       3.670   5.670  19.633  0.00  0.00    +0.000 A 
ATOM     10  C   UNL     1       4.661   4.748  19.305  0.00  0.00    +0.000 A 
ATOM     11  C   UNL     1       4.400   3.372  19.340  0.00  0.00    +0.000 A 
ATOM     12  C   UNL     1       3.135   2.923  19.725  0.00  0.00    +0.000 A 
ENDBRANCH   3  10
ENDBRANCH   1   3
BRANCH   1  13
ATOM     13  C   UNL     1       7.285   4.471  16.465  0.00  0.00    +0.000 C 
BRANCH  13  14
ATOM     14  C   UNL     1       6.346   3.977  15.347  0.00  0.00    +0.000 C 
ATOM     15  C   UNL     1       4.895   4.385  15.598  0.00  0.00    +0.000 C 
BRANCH  14  16
ATOM     16  N   UNL     1       6.796   4.367  14.009  0.00  0.00    +0.000 N 
ATOM     17  N   UNL     1       7.683   5.381  13.880  0.00  0.00    +0.000 NA
ATOM     18  C   UNL     1       7.889   5.487  12.567  0.00  0.00    +0.000 A 
ATOM     19  C   UNL     1       8.825   6.501  12.028  0.00  0.00    +0.000 C 
ATOM     20  C   UNL     1       7.131   4.544  11.846  0.00  0.00    +0.000 A 
ATOM     21  C   UNL     1       6.443   3.817  12.797  0.00  0.00    +0.000 A 
ATOM     22  C   UNL     1       5.501   2.686  12.613  0.00  0.00    +0.000 C 
ENDBRANCH  14  16
ENDBRANCH  13  14
ENDBRANCH   1  13
TORSDOF 5
ENDMDL
