MODEL 1
REMARK VINA RESULT:      -7.7      0.000      0.000
REMARK  Name = 
REMARK  15 active torsions:
REMARK  status: ('A' for Active; 'I' for Inactive)
REMARK    1  A    between atoms: C_1  and  C_2
REMARK    2  A    between atoms: C_2  and  N_3
REMARK    3  A    between atoms: N_3  and  C_4
REMARK    4  A    between atoms: N_3  and  C_6
REMARK    5  A    between atoms: C_4  and  C_5
REMARK    6  A    between atoms: C_6  and  C_7
REMARK    7  A    between atoms: C_7  and  N_8
REMARK    8  A    between atoms: C_11  and  O_12
REMARK    9  A    between atoms: C_13  and  C_14
REMARK   10  A    between atoms: C_14  and  C_16
REMARK   11  A    between atoms: C_19  and  O_20
REMARK   12  A    between atoms: O_20  and  C_21
REMARK   13  A    between atoms: C_21  and  C_22
REMARK   14  A    between atoms: C_21  and  C_23
REMARK   15  A    between atoms: C_26  and  C_27
REMARK                            x       y       z     vdW  Elec       q    Type
REMARK                         _______ _______ _______ _____ _____    ______ ____
ROOT
ATOM      1  N   UNL     1       2.289   6.967  19.627  0.00  0.00    +0.000 N 
ATOM      2  C   UNL     1       2.549   7.627  18.458  0.00  0.00    +0.000 C 
ATOM      3  O   UNL     1       1.972   8.590  17.965  0.00  0.00    +0.000 OA
ATOM      4  C   UNL     1       3.706   6.967  17.820  0.00  0.00    +0.000 C 
ATOM      5  C   UNL     1       4.120   5.985  18.631  0.00  0.00    +0.000 C 
ATOM      6  C   UNL     1       3.222   5.875  19.834  0.00  0.00    +0.000 C 
ENDROOT
BRANCH   6   7
ATOM      7  C   UNL     1       2.426   4.604  19.982  0.00  0.00    +0.000 A 
ATOM      8  C   UNL     1       2.198   3.852  21.120  0.00  0.00    +0.000 A 
ATOM      9  C   UNL     1       1.420   2.689  20.858  0.00  0.00    +0.000 A 
ATOM     10  C   UNL     1       1.089   2.576  19.528  0.00  0.00    +0.000 A 
ATOM     11  S   UNL     1       1.686   3.882  18.606  0.00  0.00    +0.000 S 
ENDBRANCH   6   7
BRANCH   4  12
ATOM     12  O   UNL     1       4.190   7.371  16.609  0.00  0.00    +0.000 OA
ATOM     13  H   UNL     1       3.553   8.034  16.278  0.00  0.00    +0.000 HD
ENDBRANCH   4  12
BRANCH   5  14
ATOM     14  C   UNL     1       5.294   5.114  18.309  0.00  0.00    +0.000 C 
ATOM     15  O   UNL     1       6.037   4.685  19.191  0.00  0.00    +0.000 OA
BRANCH  14  16
ATOM     16  C   UNL     1       5.633   4.743  16.908  0.00  0.00    +0.000 A 
ATOM     17  C   UNL     1       6.837   5.193  16.341  0.00  0.00    +0.000 A 
ATOM     18  C   UNL     1       7.162   4.871  15.011  0.00  0.00    +0.000 A 
ATOM     19  C   UNL     1       6.301   4.084  14.242  0.00  0.00    +0.000 A 
ATOM     20  C   UNL     1       5.137   3.607  14.825  0.00  0.00    +0.000 A 
ATOM     21  C   UNL     1       4.827   3.904  16.148  0.00  0.00    +0.000 A 
BRANCH  19  22
ATOM     22  O   UNL     1       6.648   3.857  12.939  0.00  0.00    +0.000 OA
BRANCH  22  23
ATOM     23  C   UNL     1       5.957   2.796  12.259  0.00  0.00    +0.000 C 
ATOM     24  C   UNL     1       4.748   3.306  11.470  0.00  0.00    +0.000 C 
ATOM     25  C   UNL     1       6.955   2.192  11.274  0.00  0.00    +0.000 C 
ENDBRANCH  22  23
ENDBRANCH  19  22
ENDBRANCH  14  16
ENDBRANCH   5  14
BRANCH   1  26
ATOM     26  C   UNL     1       1.307   7.377  20.625  0.00  0.00    +0.000 C 
BRANCH  26  27
ATOM     27  C   UNL     1       1.299   8.895  20.967  0.00  0.00    +0.000 C 
BRANCH  27  28
ATOM     28  N   UNL     1      -0.031   9.540  21.047  0.00  0.00    +0.000 NA
BRANCH  28  30
ATOM     29  C   UNL     1      -1.027  10.465  23.193  0.00  0.00    +0.000 C 
ATOM     30  C   UNL     1      -0.023  10.613  22.059  0.00  0.00    +0.000 C 
ENDBRANCH  28  30
BRANCH  28  31
ATOM     31  C   UNL     1      -0.505   9.986  19.720  0.00  0.00    +0.000 C 
ATOM     32  C   UNL     1       0.038  11.320  19.208  0.00  0.00    +0.000 C 
ENDBRANCH  28  31
ENDBRANCH  27  28
ENDBRANCH  26  27
ENDBRANCH   1  26
TORSDOF 11
ENDMDL
MODEL 2
REMARK VINA RESULT:      -7.3      0.898      1.691
REMARK  Name = 
REMARK  15 active torsions:
REMARK  status: ('A' for Active; 'I' for Inactive)
REMARK    1  A    between atoms: C_1  and  C_2
REMARK    2  A    between atoms: C_2  and  N_3
REMARK    3  A    between atoms: N_3  and  C_4
REMARK    4  A    between atoms: N_3  and  C_6
REMARK    5  A    between atoms: C_4  and  C_5
REMARK    6  A    between atoms: C_6  and  C_7
REMARK    7  A    between atoms: C_7  and  N_8
REMARK    8  A    between atoms: C_11  and  O_12
REMARK    9  A    between atoms: C_13  and  C_14
REMARK   10  A    between atoms: C_14  and  C_16
REMARK   11  A    between atoms: C_19  and  O_20
REMARK   12  A    between atoms: O_20  and  C_21
REMARK   13  A    between atoms: C_21  and  C_22
REMARK   14  A    between atoms: C_21  and  C_23
REMARK   15  A    between atoms: C_26  and  C_27
REMARK                            x       y       z     vdW  Elec       q    Type
REMARK                         _______ _______ _______ _____ _____    ______ ____
ROOT
ATOM      1  N   UNL     1       2.676   7.081  19.339  0.00  0.00    +0.000 N 
ATOM      2  C   UNL     1       2.982   7.738  18.180  0.00  0.00    +0.000 C 
ATOM      3  O   UNL     1       2.502   8.770  17.723  0.00  0.00    +0.000 OA
ATOM      4  C   UNL     1       4.047   6.974  17.500  0.00  0.00    +0.000 C 
ATOM      5  C   UNL     1       4.370   5.933  18.278  0.00  0.00    +0.000 C 
ATOM      6  C   UNL     1       3.490   5.890  19.499  0.00  0.00    +0.000 C 
ENDROOT
BRANCH   6   7
ATOM      7  C   UNL     1       2.564   4.708  19.636  0.00  0.00    +0.000 A 
ATOM      8  C   UNL     1       1.828   4.067  18.657  0.00  0.00    +0.000 A 
ATOM      9  C   UNL     1       1.036   3.005  19.178  0.00  0.00    +0.000 A 
ATOM     10  C   UNL     1       1.177   2.874  20.540  0.00  0.00    +0.000 A 
ATOM     11  S   UNL     1       2.282   4.006  21.181  0.00  0.00    +0.000 S 
ENDBRANCH   6   7
BRANCH   4  12
ATOM     12  O   UNL     1       4.548   7.355  16.288  0.00  0.00    +0.000 OA
ATOM     13  H   UNL     1       5.244   6.704  16.073  0.00  0.00    +0.000 HD
ENDBRANCH   4  12
BRANCH   5  14
ATOM     14  C   UNL     1       5.436   4.949  17.909  0.00  0.00    +0.000 C 
ATOM     15  O   UNL     1       6.113   4.383  18.767  0.00  0.00    +0.000 OA
BRANCH  14  16
ATOM     16  C   UNL     1       5.745   4.626  16.489  0.00  0.00    +0.000 A 
ATOM     17  C   UNL     1       4.783   3.975  15.699  0.00  0.00    +0.000 A 
ATOM     18  C   UNL     1       5.066   3.642  14.363  0.00  0.00    +0.000 A 
ATOM     19  C   UNL     1       6.301   3.968  13.798  0.00  0.00    +0.000 A 
ATOM     20  C   UNL     1       7.227   4.650  14.572  0.00  0.00    +0.000 A 
ATOM     21  C   UNL     1       6.938   5.003  15.885  0.00  0.00    +0.000 A 
BRANCH  19  22
ATOM     22  O   UNL     1       6.534   3.563  12.513  0.00  0.00    +0.000 OA
BRANCH  22  23
ATOM     23  C   UNL     1       5.685   2.523  11.996  0.00  0.00    +0.000 C 
ATOM     24  C   UNL     1       4.522   3.083  11.172  0.00  0.00    +0.000 C 
ATOM     25  C   UNL     1       6.558   1.669  11.079  0.00  0.00    +0.000 C 
ENDBRANCH  22  23
ENDBRANCH  19  22
ENDBRANCH  14  16
ENDBRANCH   5  14
BRANCH   1  26
ATOM     26  C   UNL     1       1.765   7.568  20.369  0.00  0.00    +0.000 C 
BRANCH  26  27
ATOM     27  C   UNL     1       1.030   8.897  20.031  0.00  0.00    +0.000 C 
BRANCH  27  28
ATOM     28  N   UNL     1       0.880   9.862  21.144  0.00  0.00    +0.000 NA
BRANCH  28  30
ATOM     29  C   UNL     1      -0.467  11.797  20.200  0.00  0.00    +0.000 C 
ATOM     30  C   UNL     1       0.884  11.245  20.632  0.00  0.00    +0.000 C 
ENDBRANCH  28  30
BRANCH  28  31
ATOM     31  C   UNL     1      -0.294   9.550  21.986  0.00  0.00    +0.000 C 
ATOM     32  C   UNL     1      -0.068   9.512  23.497  0.00  0.00    +0.000 C 
ENDBRANCH  28  31
ENDBRANCH  27  28
ENDBRANCH  26  27
ENDBRANCH   1  26
TORSDOF 11
ENDMDL
MODEL 3
REMARK VINA RESULT:      -7.2      0.554      1.202
REMARK  Name = 
REMARK  15 active torsions:
REMARK  status: ('A' for Active; 'I' for Inactive)
REMARK    1  A    between atoms: C_1  and  C_2
REMARK    2  A    between atoms: C_2  and  N_3
REMARK    3  A    between atoms: N_3  and  C_4
REMARK    4  A    between atoms: N_3  and  C_6
REMARK    5  A    between atoms: C_4  and  C_5
REMARK    6  A    between atoms: C_6  and  C_7
REMARK    7  A    between atoms: C_7  and  N_8
REMARK    8  A    between atoms: C_11  and  O_12
REMARK    9  A    between atoms: C_13  and  C_14
REMARK   10  A    between atoms: C_14  and  C_16
REMARK   11  A    between atoms: C_19  and  O_20
REMARK   12  A    between atoms: O_20  and  C_21
REMARK   13  A    between atoms: C_21  and  C_22
REMARK   14  A    between atoms: C_21  and  C_23
REMARK   15  A    between atoms: C_26  and  C_27
REMARK                            x       y       z     vdW  Elec       q    Type
REMARK                         _______ _______ _______ _____ _____    ______ ____
ROOT
ATOM      1  N   UNL     1       2.418   7.048  19.738  0.00  0.00    +0.000 N 
ATOM      2  C   UNL     1       2.673   7.686  18.556  0.00  0.00    +0.000 C 
ATOM      3  O   UNL     1       2.139   8.681  18.080  0.00  0.00    +0.000 OA
ATOM      4  C   UNL     1       3.762   6.952  17.878  0.00  0.00    +0.000 C 
ATOM      5  C   UNL     1       4.145   5.950  18.679  0.00  0.00    +0.000 C 
ATOM      6  C   UNL     1       3.288   5.901  19.916  0.00  0.00    +0.000 C 
ENDROOT
BRANCH   6   7
ATOM      7  C   UNL     1       2.421   4.683  20.102  0.00  0.00    +0.000 A 
ATOM      8  C   UNL     1       2.193   3.949  21.253  0.00  0.00    +0.000 A 
ATOM      9  C   UNL     1       1.334   2.836  21.028  0.00  0.00    +0.000 A 
ATOM     10  C   UNL     1       0.943   2.741  19.713  0.00  0.00    +0.000 A 
ATOM     11  S   UNL     1       1.583   4.005  18.761  0.00  0.00    +0.000 S 
ENDBRANCH   6   7
BRANCH   4  12
ATOM     12  O   UNL     1       4.223   7.321  16.647  0.00  0.00    +0.000 OA
ATOM     13  H   UNL     1       4.691   6.539  16.296  0.00  0.00    +0.000 HD
ENDBRANCH   4  12
BRANCH   5  14
ATOM     14  C   UNL     1       5.249   5.006  18.318  0.00  0.00    +0.000 C 
ATOM     15  O   UNL     1       5.951   4.478  19.180  0.00  0.00    +0.000 OA
BRANCH  14  16
ATOM     16  C   UNL     1       5.566   4.677  16.901  0.00  0.00    +0.000 A 
ATOM     17  C   UNL     1       6.794   5.079  16.352  0.00  0.00    +0.000 A 
ATOM     18  C   UNL     1       7.100   4.796  15.008  0.00  0.00    +0.000 A 
ATOM     19  C   UNL     1       6.195   4.096  14.208  0.00  0.00    +0.000 A 
ATOM     20  C   UNL     1       5.004   3.664  14.772  0.00  0.00    +0.000 A 
ATOM     21  C   UNL     1       4.712   3.921  16.107  0.00  0.00    +0.000 A 
BRANCH  19  22
ATOM     22  O   UNL     1       6.528   3.906  12.896  0.00  0.00    +0.000 OA
BRANCH  22  23
ATOM     23  C   UNL     1       5.895   2.807  12.218  0.00  0.00    +0.000 C 
ATOM     24  C   UNL     1       4.721   3.265  11.347  0.00  0.00    +0.000 C 
ATOM     25  C   UNL     1       6.956   2.190  11.310  0.00  0.00    +0.000 C 
ENDBRANCH  22  23
ENDBRANCH  19  22
ENDBRANCH  14  16
ENDBRANCH   5  14
BRANCH   1  26
ATOM     26  C   UNL     1       1.502   7.522  20.770  0.00  0.00    +0.000 C 
BRANCH  26  27
ATOM     27  C   UNL     1       0.598   8.719  20.359  0.00  0.00    +0.000 C 
BRANCH  27  28
ATOM     28  N   UNL     1       0.490   9.824  21.339  0.00  0.00    +0.000 NA
BRANCH  28  30
ATOM     29  C   UNL     1       1.356  12.034  20.434  0.00  0.00    +0.000 C 
ATOM     30  C   UNL     1       0.180  11.093  20.654  0.00  0.00    +0.000 C 
ENDBRANCH  28  30
BRANCH  28  31
ATOM     31  C   UNL     1      -0.454   9.498  22.429  0.00  0.00    +0.000 C 
ATOM     32  C   UNL     1      -1.120  10.677  23.138  0.00  0.00    +0.000 C 
ENDBRANCH  28  31
ENDBRANCH  27  28
ENDBRANCH  26  27
ENDBRANCH   1  26
TORSDOF 11
ENDMDL
MODEL 4
REMARK VINA RESULT:      -7.1      3.582      7.119
REMARK  Name = 
REMARK  15 active torsions:
REMARK  status: ('A' for Active; 'I' for Inactive)
REMARK    1  A    between atoms: C_1  and  C_2
REMARK    2  A    between atoms: C_2  and  N_3
REMARK    3  A    between atoms: N_3  and  C_4
REMARK    4  A    between atoms: N_3  and  C_6
REMARK    5  A    between atoms: C_4  and  C_5
REMARK    6  A    between atoms: C_6  and  C_7
REMARK    7  A    between atoms: C_7  and  N_8
REMARK    8  A    between atoms: C_11  and  O_12
REMARK    9  A    between atoms: C_13  and  C_14
REMARK   10  A    between atoms: C_14  and  C_16
REMARK   11  A    between atoms: C_19  and  O_20
REMARK   12  A    between atoms: O_20  and  C_21
REMARK   13  A    between atoms: C_21  and  C_22
REMARK   14  A    between atoms: C_21  and  C_23
REMARK   15  A    between atoms: C_26  and  C_27
REMARK                            x       y       z     vdW  Elec       q    Type
REMARK                         _______ _______ _______ _____ _____    ______ ____
ROOT
ATOM      1  N   UNL     1      -1.227  11.798  20.182  0.00  0.00    +0.000 N 
ATOM      2  C   UNL     1      -1.677  11.666  21.467  0.00  0.00    +0.000 C 
ATOM      3  O   UNL     1      -2.639  12.197  22.011  0.00  0.00    +0.000 OA
ATOM      4  C   UNL     1      -0.772  10.729  22.163  0.00  0.00    +0.000 C 
ATOM      5  C   UNL     1       0.141  10.304  21.281  0.00  0.00    +0.000 C 
ATOM      6  C   UNL     1      -0.047  10.985  19.952  0.00  0.00    +0.000 C 
ENDROOT
BRANCH   6   7
ATOM      7  C   UNL     1       1.060  11.894  19.484  0.00  0.00    +0.000 A 
ATOM      8  C   UNL     1       1.766  11.859  18.295  0.00  0.00    +0.000 A 
ATOM      9  C   UNL     1       2.768  12.868  18.226  0.00  0.00    +0.000 A 
ATOM     10  C   UNL     1       2.811  13.633  19.367  0.00  0.00    +0.000 A 
ATOM     11  S   UNL     1       1.629  13.159  20.503  0.00  0.00    +0.000 S 
ENDBRANCH   6   7
BRANCH   4  12
ATOM     12  O   UNL     1      -0.933  10.417  23.483  0.00  0.00    +0.000 OA
ATOM     13  H   UNL     1      -0.177  10.829  23.945  0.00  0.00    +0.000 HD
ENDBRANCH   4  12
BRANCH   5  14
ATOM     14  C   UNL     1       1.212   9.321  21.638  0.00  0.00    +0.000 C 
ATOM     15  O   UNL     1       1.826   9.397  22.702  0.00  0.00    +0.000 OA
BRANCH  14  16
ATOM     16  C   UNL     1       1.600   8.218  20.717  0.00  0.00    +0.000 A 
ATOM     17  C   UNL     1       1.518   6.885  21.155  0.00  0.00    +0.000 A 
ATOM     18  C   UNL     1       1.902   5.832  20.306  0.00  0.00    +0.000 A 
ATOM     19  C   UNL     1       2.353   6.095  19.011  0.00  0.00    +0.000 A 
ATOM     20  C   UNL     1       2.387   7.410  18.573  0.00  0.00    +0.000 A 
ATOM     21  C   UNL     1       1.983   8.450  19.402  0.00  0.00    +0.000 A 
BRANCH  19  22
ATOM     22  O   UNL     1       2.767   5.031  18.258  0.00  0.00    +0.000 OA
BRANCH  22  23
ATOM     23  C   UNL     1       4.119   5.068  17.771  0.00  0.00    +0.000 C 
ATOM     24  C   UNL     1       5.140   4.799  18.880  0.00  0.00    +0.000 C 
ATOM     25  C   UNL     1       4.234   3.956  16.730  0.00  0.00    +0.000 C 
ENDBRANCH  22  23
ENDBRANCH  19  22
ENDBRANCH  14  16
ENDBRANCH   5  14
BRANCH   1  26
ATOM     26  C   UNL     1      -1.909  12.533  19.123  0.00  0.00    +0.000 C 
BRANCH  26  27
ATOM     27  C   UNL     1      -2.022  11.787  17.763  0.00  0.00    +0.000 C 
BRANCH  27  28
ATOM     28  N   UNL     1      -3.143  10.828  17.634  0.00  0.00    +0.000 NA
BRANCH  28  30
ATOM     29  C   UNL     1      -5.623  10.953  18.169  0.00  0.00    +0.000 C 
ATOM     30  C   UNL     1      -4.418  11.546  17.452  0.00  0.00    +0.000 C 
ENDBRANCH  28  30
BRANCH  28  31
ATOM     31  C   UNL     1      -2.883   9.818  16.587  0.00  0.00    +0.000 C 
ATOM     32  C   UNL     1      -2.923  10.302  15.138  0.00  0.00    +0.000 C 
ENDBRANCH  28  31
ENDBRANCH  27  28
ENDBRANCH  26  27
ENDBRANCH   1  26
TORSDOF 11
ENDMDL
MODEL 5
REMARK VINA RESULT:      -7.1      3.637      7.043
REMARK  Name = 
REMARK  15 active torsions:
REMARK  status: ('A' for Active; 'I' for Inactive)
REMARK    1  A    between atoms: C_1  and  C_2
REMARK    2  A    between atoms: C_2  and  N_3
REMARK    3  A    between atoms: N_3  and  C_4
REMARK    4  A    between atoms: N_3  and  C_6
REMARK    5  A    between atoms: C_4  and  C_5
REMARK    6  A    between atoms: C_6  and  C_7
REMARK    7  A    between atoms: C_7  and  N_8
REMARK    8  A    between atoms: C_11  and  O_12
REMARK    9  A    between atoms: C_13  and  C_14
REMARK   10  A    between atoms: C_14  and  C_16
REMARK   11  A    between atoms: C_19  and  O_20
REMARK   12  A    between atoms: O_20  and  C_21
REMARK   13  A    between atoms: C_21  and  C_22
REMARK   14  A    between atoms: C_21  and  C_23
REMARK   15  A    between atoms: C_26  and  C_27
REMARK                            x       y       z     vdW  Elec       q    Type
REMARK                         _______ _______ _______ _____ _____    ______ ____
ROOT
ATOM      1  N   UNL     1      -1.186  11.780  20.301  0.00  0.00    +0.000 N 
ATOM      2  C   UNL     1      -1.614  11.568  21.583  0.00  0.00    +0.000 C 
ATOM      3  O   UNL     1      -2.573  12.057  22.171  0.00  0.00    +0.000 OA
ATOM      4  C   UNL     1      -0.692  10.599  22.209  0.00  0.00    +0.000 C 
ATOM      5  C   UNL     1       0.211  10.236  21.289  0.00  0.00    +0.000 C 
ATOM      6  C   UNL     1      -0.002  10.993  20.006  0.00  0.00    +0.000 C 
ENDROOT
BRANCH   6   7
ATOM      7  C   UNL     1       1.090  11.938  19.577  0.00  0.00    +0.000 A 
ATOM      8  C   UNL     1       1.777  11.981  18.377  0.00  0.00    +0.000 A 
ATOM      9  C   UNL     1       2.771  13.000  18.354  0.00  0.00    +0.000 A 
ATOM     10  C   UNL     1       2.825  13.696  19.538  0.00  0.00    +0.000 A 
ATOM     11  S   UNL     1       1.665  13.144  20.661  0.00  0.00    +0.000 S 
ENDBRANCH   6   7
BRANCH   4  12
ATOM     12  O   UNL     1      -0.830  10.208  23.509  0.00  0.00    +0.000 OA
ATOM     13  H   UNL     1      -1.488   9.485  23.499  0.00  0.00    +0.000 HD
ENDBRANCH   4  12
BRANCH   5  14
ATOM     14  C   UNL     1       1.295   9.242  21.572  0.00  0.00    +0.000 C 
ATOM     15  O   UNL     1       1.957   9.290  22.608  0.00  0.00    +0.000 OA
BRANCH  14  16
ATOM     16  C   UNL     1       1.640   8.164  20.605  0.00  0.00    +0.000 A 
ATOM     17  C   UNL     1       1.986   8.498  19.285  0.00  0.00    +0.000 A 
ATOM     18  C   UNL     1       2.292   7.491  18.352  0.00  0.00    +0.000 A 
ATOM     19  C   UNL     1       2.273   6.147  18.730  0.00  0.00    +0.000 A 
ATOM     20  C   UNL     1       1.975   5.830  20.047  0.00  0.00    +0.000 A 
ATOM     21  C   UNL     1       1.697   6.826  20.976  0.00  0.00    +0.000 A 
BRANCH  19  22
ATOM     22  O   UNL     1       2.523   5.215  17.761  0.00  0.00    +0.000 OA
BRANCH  22  23
ATOM     23  C   UNL     1       3.054   3.952  18.197  0.00  0.00    +0.000 C 
ATOM     24  C   UNL     1       2.118   2.787  17.865  0.00  0.00    +0.000 C 
ATOM     25  C   UNL     1       4.363   3.749  17.438  0.00  0.00    +0.000 C 
ENDBRANCH  22  23
ENDBRANCH  19  22
ENDBRANCH  14  16
ENDBRANCH   5  14
BRANCH   1  26
ATOM     26  C   UNL     1      -1.889  12.570  19.298  0.00  0.00    +0.000 C 
BRANCH  26  27
ATOM     27  C   UNL     1      -1.949  11.941  17.877  0.00  0.00    +0.000 C 
BRANCH  27  28
ATOM     28  N   UNL     1      -2.969  10.887  17.671  0.00  0.00    +0.000 NA
BRANCH  28  30
ATOM     29  C   UNL     1      -5.369  11.281  18.406  0.00  0.00    +0.000 C 
ATOM     30  C   UNL     1      -4.279  11.491  17.364  0.00  0.00    +0.000 C 
ENDBRANCH  28  30
BRANCH  28  31
ATOM     31  C   UNL     1      -2.533   9.889  16.671  0.00  0.00    +0.000 C 
ATOM     32  C   UNL     1      -2.872  10.185  15.211  0.00  0.00    +0.000 C 
ENDBRANCH  28  31
ENDBRANCH  27  28
ENDBRANCH  26  27
ENDBRANCH   1  26
TORSDOF 11
ENDMDL
MODEL 6
REMARK VINA RESULT:      -7.0      0.956      1.402
REMARK  Name = 
REMARK  15 active torsions:
REMARK  status: ('A' for Active; 'I' for Inactive)
REMARK    1  A    between atoms: C_1  and  C_2
REMARK    2  A    between atoms: C_2  and  N_3
REMARK    3  A    between atoms: N_3  and  C_4
REMARK    4  A    between atoms: N_3  and  C_6
REMARK    5  A    between atoms: C_4  and  C_5
REMARK    6  A    between atoms: C_6  and  C_7
REMARK    7  A    between atoms: C_7  and  N_8
REMARK    8  A    between atoms: C_11  and  O_12
REMARK    9  A    between atoms: C_13  and  C_14
REMARK   10  A    between atoms: C_14  and  C_16
REMARK   11  A    between atoms: C_19  and  O_20
REMARK   12  A    between atoms: O_20  and  C_21
REMARK   13  A    between atoms: C_21  and  C_22
REMARK   14  A    between atoms: C_21  and  C_23
REMARK   15  A    between atoms: C_26  and  C_27
REMARK                            x       y       z     vdW  Elec       q    Type
REMARK                         _______ _______ _______ _____ _____    ______ ____
ROOT
ATOM      1  N   UNL     1       2.559   7.313  19.150  0.00  0.00    +0.000 N 
ATOM      2  C   UNL     1       2.866   7.908  17.957  0.00  0.00    +0.000 C 
ATOM      3  O   UNL     1       2.372   8.902  17.436  0.00  0.00    +0.000 OA
ATOM      4  C   UNL     1       3.953   7.126  17.334  0.00  0.00    +0.000 C 
ATOM      5  C   UNL     1       4.286   6.139  18.175  0.00  0.00    +0.000 C 
ATOM      6  C   UNL     1       3.393   6.149  19.387  0.00  0.00    +0.000 C 
ENDROOT
BRANCH   6   7
ATOM      7  C   UNL     1       2.488   4.960  19.583  0.00  0.00    +0.000 A 
ATOM      8  C   UNL     1       1.712   4.299  18.649  0.00  0.00    +0.000 A 
ATOM      9  C   UNL     1       0.958   3.235  19.220  0.00  0.00    +0.000 A 
ATOM     10  C   UNL     1       1.167   3.123  20.575  0.00  0.00    +0.000 A 
ATOM     11  S   UNL     1       2.288   4.274  21.149  0.00  0.00    +0.000 S 
ENDBRANCH   6   7
BRANCH   4  12
ATOM     12  O   UNL     1       4.460   7.446  16.108  0.00  0.00    +0.000 OA
ATOM     13  H   UNL     1       4.679   6.594  15.683  0.00  0.00    +0.000 HD
ENDBRANCH   4  12
BRANCH   5  14
ATOM     14  C   UNL     1       5.375   5.156  17.876  0.00  0.00    +0.000 C 
ATOM     15  O   UNL     1       6.048   4.649  18.773  0.00  0.00    +0.000 OA
BRANCH  14  16
ATOM     16  C   UNL     1       5.711   4.762  16.480  0.00  0.00    +0.000 A 
ATOM     17  C   UNL     1       4.814   3.968  15.746  0.00  0.00    +0.000 A 
ATOM     18  C   UNL     1       5.126   3.568  14.435  0.00  0.00    +0.000 A 
ATOM     19  C   UNL     1       6.323   3.968  13.838  0.00  0.00    +0.000 A 
ATOM     20  C   UNL     1       7.181   4.789  14.554  0.00  0.00    +0.000 A 
ATOM     21  C   UNL     1       6.862   5.207  15.841  0.00  0.00    +0.000 A 
BRANCH  19  22
ATOM     22  O   UNL     1       6.592   3.496  12.583  0.00  0.00    +0.000 OA
BRANCH  22  23
ATOM     23  C   UNL     1       5.652   2.562  12.026  0.00  0.00    +0.000 C 
ATOM     24  C   UNL     1       4.568   3.257  11.198  0.00  0.00    +0.000 C 
ATOM     25  C   UNL     1       6.450   1.644  11.103  0.00  0.00    +0.000 C 
ENDBRANCH  22  23
ENDBRANCH  19  22
ENDBRANCH  14  16
ENDBRANCH   5  14
BRANCH   1  26
ATOM     26  C   UNL     1       1.626   7.841  20.139  0.00  0.00    +0.000 C 
BRANCH  26  27
ATOM     27  C   UNL     1       0.668   8.953  19.624  0.00  0.00    +0.000 C 
BRANCH  27  28
ATOM     28  N   UNL     1       0.168   9.908  20.639  0.00  0.00    +0.000 NA
BRANCH  28  30
ATOM     29  C   UNL     1       0.053   9.447  23.134  0.00  0.00    +0.000 C 
ATOM     30  C   UNL     1       0.903   9.744  21.907  0.00  0.00    +0.000 C 
ENDBRANCH  28  30
BRANCH  28  31
ATOM     31  C   UNL     1       0.170  11.297  20.133  0.00  0.00    +0.000 C 
ATOM     32  C   UNL     1       0.784  12.360  21.043  0.00  0.00    +0.000 C 
ENDBRANCH  28  31
ENDBRANCH  27  28
ENDBRANCH  26  27
ENDBRANCH   1  26
TORSDOF 11
ENDMDL
MODEL 7
REMARK VINA RESULT:      -6.9      1.081      1.373
REMARK  Name = 
REMARK  15 active torsions:
REMARK  status: ('A' for Active; 'I' for Inactive)
REMARK    1  A    between atoms: C_1  and  C_2
REMARK    2  A    between atoms: C_2  and  N_3
REMARK    3  A    between atoms: N_3  and  C_4
REMARK    4  A    between atoms: N_3  and  C_6
REMARK    5  A    between atoms: C_4  and  C_5
REMARK    6  A    between atoms: C_6  and  C_7
REMARK    7  A    between atoms: C_7  and  N_8
REMARK    8  A    between atoms: C_11  and  O_12
REMARK    9  A    between atoms: C_13  and  C_14
REMARK   10  A    between atoms: C_14  and  C_16
REMARK   11  A    between atoms: C_19  and  O_20
REMARK   12  A    between atoms: O_20  and  C_21
REMARK   13  A    between atoms: C_21  and  C_22
REMARK   14  A    between atoms: C_21  and  C_23
REMARK   15  A    between atoms: C_26  and  C_27
REMARK                            x       y       z     vdW  Elec       q    Type
REMARK                         _______ _______ _______ _____ _____    ______ ____
ROOT
ATOM      1  N   UNL     1       2.298   7.369  19.143  0.00  0.00    +0.000 N 
ATOM      2  C   UNL     1       2.617   8.002  17.973  0.00  0.00    +0.000 C 
ATOM      3  O   UNL     1       2.073   8.961  17.436  0.00  0.00    +0.000 OA
ATOM      4  C   UNL     1       3.794   7.318  17.401  0.00  0.00    +0.000 C 
ATOM      5  C   UNL     1       4.161   6.349  18.249  0.00  0.00    +0.000 C 
ATOM      6  C   UNL     1       3.209   6.272  19.413  0.00  0.00    +0.000 C 
ENDROOT
BRANCH   6   7
ATOM      7  C   UNL     1       2.393   5.012  19.550  0.00  0.00    +0.000 A 
ATOM      8  C   UNL     1       1.728   4.299  18.569  0.00  0.00    +0.000 A 
ATOM      9  C   UNL     1       1.031   3.173  19.091  0.00  0.00    +0.000 A 
ATOM     10  C   UNL     1       1.169   3.066  20.455  0.00  0.00    +0.000 A 
ATOM     11  S   UNL     1       2.159   4.298  21.098  0.00  0.00    +0.000 S 
ENDBRANCH   6   7
BRANCH   4  12
ATOM     12  O   UNL     1       4.336   7.693  16.205  0.00  0.00    +0.000 OA
ATOM     13  H   UNL     1       5.303   7.606  16.315  0.00  0.00    +0.000 HD
ENDBRANCH   4  12
BRANCH   5  14
ATOM     14  C   UNL     1       5.339   5.459  17.997  0.00  0.00    +0.000 C 
ATOM     15  O   UNL     1       6.114   5.148  18.901  0.00  0.00    +0.000 OA
BRANCH  14  16
ATOM     16  C   UNL     1       5.642   4.927  16.641  0.00  0.00    +0.000 A 
ATOM     17  C   UNL     1       6.807   5.343  15.975  0.00  0.00    +0.000 A 
ATOM     18  C   UNL     1       7.097   4.867  14.684  0.00  0.00    +0.000 A 
ATOM     19  C   UNL     1       6.241   3.962  14.053  0.00  0.00    +0.000 A 
ATOM     20  C   UNL     1       5.117   3.524  14.736  0.00  0.00    +0.000 A 
ATOM     21  C   UNL     1       4.843   3.973  16.023  0.00  0.00    +0.000 A 
BRANCH  19  22
ATOM     22  O   UNL     1       6.550   3.586  12.776  0.00  0.00    +0.000 OA
BRANCH  22  23
ATOM     23  C   UNL     1       5.672   2.635  12.149  0.00  0.00    +0.000 C 
ATOM     24  C   UNL     1       4.565   3.317  11.341  0.00  0.00    +0.000 C 
ATOM     25  C   UNL     1       6.534   1.817  11.190  0.00  0.00    +0.000 C 
ENDBRANCH  22  23
ENDBRANCH  19  22
ENDBRANCH  14  16
ENDBRANCH   5  14
BRANCH   1  26
ATOM     26  C   UNL     1       1.277   7.809  20.087  0.00  0.00    +0.000 C 
BRANCH  26  27
ATOM     27  C   UNL     1       1.547   9.181  20.769  0.00  0.00    +0.000 C 
BRANCH  27  28
ATOM     28  N   UNL     1       0.558  10.250  20.501  0.00  0.00    +0.000 NA
BRANCH  28  30
ATOM     29  C   UNL     1       1.568  12.146  19.147  0.00  0.00    +0.000 C 
ATOM     30  C   UNL     1       1.212  11.571  20.511  0.00  0.00    +0.000 C 
ENDBRANCH  28  30
BRANCH  28  31
ATOM     31  C   UNL     1      -0.215   9.985  19.269  0.00  0.00    +0.000 C 
ATOM     32  C   UNL     1      -1.584  10.655  19.159  0.00  0.00    +0.000 C 
ENDBRANCH  28  31
ENDBRANCH  27  28
ENDBRANCH  26  27
ENDBRANCH   1  26
TORSDOF 11
ENDMDL
MODEL 8
REMARK VINA RESULT:      -6.9      3.784      7.106
REMARK  Name = 
REMARK  15 active torsions:
REMARK  status: ('A' for Active; 'I' for Inactive)
REMARK    1  A    between atoms: C_1  and  C_2
REMARK    2  A    between atoms: C_2  and  N_3
REMARK    3  A    between atoms: N_3  and  C_4
REMARK    4  A    between atoms: N_3  and  C_6
REMARK    5  A    between atoms: C_4  and  C_5
REMARK    6  A    between atoms: C_6  and  C_7
REMARK    7  A    between atoms: C_7  and  N_8
REMARK    8  A    between atoms: C_11  and  O_12
REMARK    9  A    between atoms: C_13  and  C_14
REMARK   10  A    between atoms: C_14  and  C_16
REMARK   11  A    between atoms: C_19  and  O_20
REMARK   12  A    between atoms: O_20  and  C_21
REMARK   13  A    between atoms: C_21  and  C_22
REMARK   14  A    between atoms: C_21  and  C_23
REMARK   15  A    between atoms: C_26  and  C_27
REMARK                            x       y       z     vdW  Elec       q    Type
REMARK                         _______ _______ _______ _____ _____    ______ ____
ROOT
ATOM      1  N   UNL     1      -1.134  11.879  20.416  0.00  0.00    +0.000 N 
ATOM      2  C   UNL     1      -1.547  11.615  21.693  0.00  0.00    +0.000 C 
ATOM      3  O   UNL     1      -2.491  12.086  22.317  0.00  0.00    +0.000 OA
ATOM      4  C   UNL     1      -0.625  10.611  22.262  0.00  0.00    +0.000 C 
ATOM      5  C   UNL     1       0.261  10.280  21.315  0.00  0.00    +0.000 C 
ATOM      6  C   UNL     1       0.037  11.095  20.069  0.00  0.00    +0.000 C 
ENDROOT
BRANCH   6   7
ATOM      7  C   UNL     1       1.132  12.048  19.666  0.00  0.00    +0.000 A 
ATOM      8  C   UNL     1       1.815  12.125  18.465  0.00  0.00    +0.000 A 
ATOM      9  C   UNL     1       2.813  13.140  18.470  0.00  0.00    +0.000 A 
ATOM     10  C   UNL     1       2.877  13.797  19.676  0.00  0.00    +0.000 A 
ATOM     11  S   UNL     1       1.718  13.216  20.786  0.00  0.00    +0.000 S 
ENDBRANCH   6   7
BRANCH   4  12
ATOM     12  O   UNL     1      -0.749  10.164  23.547  0.00  0.00    +0.000 OA
ATOM     13  H   UNL     1      -0.672   9.191  23.496  0.00  0.00    +0.000 HD
ENDBRANCH   4  12
BRANCH   5  14
ATOM     14  C   UNL     1       1.339   9.265  21.537  0.00  0.00    +0.000 C 
ATOM     15  O   UNL     1       2.002   9.247  22.574  0.00  0.00    +0.000 OA
BRANCH  14  16
ATOM     16  C   UNL     1       1.677   8.244  20.508  0.00  0.00    +0.000 A 
ATOM     17  C   UNL     1       1.706   6.884  20.861  0.00  0.00    +0.000 A 
ATOM     18  C   UNL     1       2.045   5.908  19.907  0.00  0.00    +0.000 A 
ATOM     19  C   UNL     1       2.340   6.275  18.592  0.00  0.00    +0.000 A 
ATOM     20  C   UNL     1       2.264   7.615  18.243  0.00  0.00    +0.000 A 
ATOM     21  C   UNL     1       1.904   8.578  19.179  0.00  0.00    +0.000 A 
BRANCH  19  22
ATOM     22  O   UNL     1       2.719   5.284  17.730  0.00  0.00    +0.000 OA
BRANCH  22  23
ATOM     23  C   UNL     1       3.131   4.037  18.316  0.00  0.00    +0.000 C 
ATOM     24  C   UNL     1       2.449   2.836  17.657  0.00  0.00    +0.000 C 
ATOM     25  C   UNL     1       4.636   3.926  18.081  0.00  0.00    +0.000 C 
ENDBRANCH  22  23
ENDBRANCH  19  22
ENDBRANCH  14  16
ENDBRANCH   5  14
BRANCH   1  26
ATOM     26  C   UNL     1      -1.844  12.719  19.459  0.00  0.00    +0.000 C 
BRANCH  26  27
ATOM     27  C   UNL     1      -1.854  12.197  17.994  0.00  0.00    +0.000 C 
BRANCH  27  28
ATOM     28  N   UNL     1      -3.145  11.666  17.498  0.00  0.00    +0.000 NA
BRANCH  28  30
ATOM     29  C   UNL     1      -1.619   9.672  17.113  0.00  0.00    +0.000 C 
ATOM     30  C   UNL     1      -2.946  10.364  16.835  0.00  0.00    +0.000 C 
ENDBRANCH  28  30
BRANCH  28  31
ATOM     31  C   UNL     1      -4.169  11.633  18.563  0.00  0.00    +0.000 C 
ATOM     32  C   UNL     1      -5.571  11.179  18.157  0.00  0.00    +0.000 C 
ENDBRANCH  28  31
ENDBRANCH  27  28
ENDBRANCH  26  27
ENDBRANCH   1  26
TORSDOF 11
ENDMDL
MODEL 9
REMARK VINA RESULT:      -6.7      3.413      7.033
REMARK  Name = 
REMARK  15 active torsions:
REMARK  status: ('A' for Active; 'I' for Inactive)
REMARK    1  A    between atoms: C_1  and  C_2
REMARK    2  A    between atoms: C_2  and  N_3
REMARK    3  A    between atoms: N_3  and  C_4
REMARK    4  A    between atoms: N_3  and  C_6
REMARK    5  A    between atoms: C_4  and  C_5
REMARK    6  A    between atoms: C_6  and  C_7
REMARK    7  A    between atoms: C_7  and  N_8
REMARK    8  A    between atoms: C_11  and  O_12
REMARK    9  A    between atoms: C_13  and  C_14
REMARK   10  A    between atoms: C_14  and  C_16
REMARK   11  A    between atoms: C_19  and  O_20
REMARK   12  A    between atoms: O_20  and  C_21
REMARK   13  A    between atoms: C_21  and  C_22
REMARK   14  A    between atoms: C_21  and  C_23
REMARK   15  A    between atoms: C_26  and  C_27
REMARK                            x       y       z     vdW  Elec       q    Type
REMARK                         _______ _______ _______ _____ _____    ______ ____
ROOT
ATOM      1  N   UNL     1      -1.060  11.933  20.480  0.00  0.00    +0.000 N 
ATOM      2  C   UNL     1      -1.562  11.591  21.706  0.00  0.00    +0.000 C 
ATOM      3  O   UNL     1      -2.549  12.028  22.289  0.00  0.00    +0.000 OA
ATOM      4  C   UNL     1      -0.684  10.548  22.274  0.00  0.00    +0.000 C 
ATOM      5  C   UNL     1       0.267  10.273  21.373  0.00  0.00    +0.000 C 
ATOM      6  C   UNL     1       0.132  11.165  20.168  0.00  0.00    +0.000 C 
ENDROOT
BRANCH   6   7
ATOM      7  C   UNL     1       1.254  12.136  19.904  0.00  0.00    +0.000 A 
ATOM      8  C   UNL     1       1.840  13.040  20.772  0.00  0.00    +0.000 A 
ATOM      9  C   UNL     1       2.855  13.817  20.146  0.00  0.00    +0.000 A 
ATOM     10  C   UNL     1       3.006  13.497  18.817  0.00  0.00    +0.000 A 
ATOM     11  S   UNL     1       1.951  12.246  18.334  0.00  0.00    +0.000 S 
ENDBRANCH   6   7
BRANCH   4  12
ATOM     12  O   UNL     1      -0.899  10.023  23.516  0.00  0.00    +0.000 OA
ATOM     13  H   UNL     1      -0.025   9.718  23.828  0.00  0.00    +0.000 HD
ENDBRANCH   4  12
BRANCH   5  14
ATOM     14  C   UNL     1       1.325   9.240  21.607  0.00  0.00    +0.000 C 
ATOM     15  O   UNL     1       1.963   9.200  22.659  0.00  0.00    +0.000 OA
BRANCH  14  16
ATOM     16  C   UNL     1       1.673   8.228  20.572  0.00  0.00    +0.000 A 
ATOM     17  C   UNL     1       1.676   6.864  20.908  0.00  0.00    +0.000 A 
ATOM     18  C   UNL     1       2.024   5.895  19.949  0.00  0.00    +0.000 A 
ATOM     19  C   UNL     1       2.354   6.276  18.646  0.00  0.00    +0.000 A 
ATOM     20  C   UNL     1       2.304   7.620  18.313  0.00  0.00    +0.000 A 
ATOM     21  C   UNL     1       1.936   8.576  19.253  0.00  0.00    +0.000 A 
BRANCH  19  22
ATOM     22  O   UNL     1       2.740   5.290  17.780  0.00  0.00    +0.000 OA
BRANCH  22  23
ATOM     23  C   UNL     1       4.103   4.841  17.874  0.00  0.00    +0.000 C 
ATOM     24  C   UNL     1       4.202   3.316  17.972  0.00  0.00    +0.000 C 
ATOM     25  C   UNL     1       4.794   5.287  16.588  0.00  0.00    +0.000 C 
ENDBRANCH  22  23
ENDBRANCH  19  22
ENDBRANCH  14  16
ENDBRANCH   5  14
BRANCH   1  26
ATOM     26  C   UNL     1      -1.700  12.835  19.530  0.00  0.00    +0.000 C 
BRANCH  26  27
ATOM     27  C   UNL     1      -2.082  12.199  18.162  0.00  0.00    +0.000 C 
BRANCH  27  28
ATOM     28  N   UNL     1      -3.162  11.187  18.191  0.00  0.00    +0.000 NA
BRANCH  28  30
ATOM     29  C   UNL     1      -4.081  11.136  15.824  0.00  0.00    +0.000 C 
ATOM     30  C   UNL     1      -4.251  11.569  17.273  0.00  0.00    +0.000 C 
ENDBRANCH  28  30
BRANCH  28  31
ATOM     31  C   UNL     1      -2.642   9.824  17.952  0.00  0.00    +0.000 C 
ATOM     32  C   UNL     1      -1.249   9.718  17.333  0.00  0.00    +0.000 C 
ENDBRANCH  28  31
ENDBRANCH  27  28
ENDBRANCH  26  27
ENDBRANCH   1  26
TORSDOF 11
ENDMDL
