MODEL 1
REMARK VINA RESULT:      -7.3      0.000      0.000
REMARK  Name = 
REMARK  12 active torsions:
REMARK  status: ('A' for Active; 'I' for Inactive)
REMARK    1  A    between atoms: C_1  and  C_2
REMARK    2  A    between atoms: C_2  and  C_3
REMARK    3  A    between atoms: C_3  and  C_4
REMARK    4  A    between atoms: C_4  and  N_5
REMARK    5  A    between atoms: C_6  and  C_8
REMARK    6  A    between atoms: C_8  and  C_9
REMARK    7  A    between atoms: C_15  and  C_17
REMARK    8  A    between atoms: C_19  and  C_20
REMARK    9  A    between atoms: N_21  and  C_22
REMARK   10  A    between atoms: C_22  and  C_23
REMARK   11  A    between atoms: C_22  and  C_24
REMARK   12  A    between atoms: C_22  and  C_25
REMARK                            x       y       z     vdW  Elec       q    Type
REMARK                         _______ _______ _______ _____ _____    ______ ____
ROOT
ATOM      1  C   UNL     1       3.544   4.687  18.113  0.00  0.00    +0.000 C 
ATOM      2  C   UNL     1       4.091   5.075  16.724  0.00  0.00    +0.000 C 
ATOM      3  C   UNL     1       2.841   3.312  17.943  0.00  0.00    +0.000 C 
ATOM      4  C   UNL     1       2.273   2.769  19.252  0.00  0.00    +0.000 C 
ATOM      5  C   UNL     1       1.338   3.780  19.878  0.00  0.00    +0.000 C 
ATOM      6  C   UNL     1       1.981   5.147  20.020  0.00  0.00    +0.000 C 
ATOM      7  N   UNL     1       2.580   5.645  18.769  0.00  0.00    +0.000 N 
ATOM      8  C   UNL     1       2.443   6.998  18.392  0.00  0.00    +0.000 C 
ATOM      9  O   UNL     1       2.777   7.412  17.280  0.00  0.00    +0.000 OA
ENDROOT
BRANCH   8  10
ATOM     10  C   UNL     1       1.868   7.957  19.381  0.00  0.00    +0.000 A 
ATOM     11  C   UNL     1       1.872   7.850  20.792  0.00  0.00    +0.000 A 
ATOM     12  C   UNL     1       1.169   8.944  21.264  0.00  0.00    +0.000 A 
ATOM     13  C   UNL     1       0.739   9.235  22.656  0.00  0.00    +0.000 C 
ATOM     14  N   UNL     1       0.914   9.724  20.154  0.00  0.00    +0.000 N 
ATOM     15  N   UNL     1       1.161   9.041  19.014  0.00  0.00    +0.000 NA
BRANCH  14  16
ATOM     16  C   UNL     1       0.432  11.120  20.048  0.00  0.00    +0.000 C 
ATOM     17  C   UNL     1       0.176  11.512  18.576  0.00  0.00    +0.000 C 
ATOM     18  C   UNL     1      -0.919  11.310  20.796  0.00  0.00    +0.000 C 
ATOM     19  C   UNL     1       1.427  12.108  20.677  0.00  0.00    +0.000 C 
ENDBRANCH  14  16
ENDBRANCH   8  10
BRANCH   1  21
ATOM     20  N   UNL     1       5.777   5.486  18.854  0.00  0.00    +0.000 N 
ATOM     21  C   UNL     1       4.808   4.519  19.021  0.00  0.00    +0.000 C 
ATOM     22  O   UNL     1       4.986   3.539  19.745  0.00  0.00    +0.000 OA
ATOM     23  H   UNL     1       5.610   6.224  18.181  0.00  0.00    +0.000 HD
BRANCH  20  24
ATOM     24  C   UNL     1       6.996   5.515  19.629  0.00  0.00    +0.000 C 
BRANCH  24  25
ATOM     25  C   UNL     1       8.110   6.292  18.935  0.00  0.00    +0.000 C 
BRANCH  25  27
ATOM     26  C   UNL     1       7.969   8.549  17.817  0.00  0.00    +0.000 C 
ATOM     27  C   UNL     1       7.599   7.078  17.726  0.00  0.00    +0.000 C 
ENDBRANCH  25  27
ENDBRANCH  24  25
ENDBRANCH  20  24
ENDBRANCH   1  21
TORSDOF 6
ENDMDL
MODEL 2
REMARK VINA RESULT:      -7.3      0.561      1.068
REMARK  Name = 
REMARK  12 active torsions:
REMARK  status: ('A' for Active; 'I' for Inactive)
REMARK    1  A    between atoms: C_1  and  C_2
REMARK    2  A    between atoms: C_2  and  C_3
REMARK    3  A    between atoms: C_3  and  C_4
REMARK    4  A    between atoms: C_4  and  N_5
REMARK    5  A    between atoms: C_6  and  C_8
REMARK    6  A    between atoms: C_8  and  C_9
REMARK    7  A    between atoms: C_15  and  C_17
REMARK    8  A    between atoms: C_19  and  C_20
REMARK    9  A    between atoms: N_21  and  C_22
REMARK   10  A    between atoms: C_22  and  C_23
REMARK   11  A    between atoms: C_22  and  C_24
REMARK   12  A    between atoms: C_22  and  C_25
REMARK                            x       y       z     vdW  Elec       q    Type
REMARK                         _______ _______ _______ _____ _____    ______ ____
ROOT
ATOM      1  C   UNL     1       3.815   4.913  17.633  0.00  0.00    +0.000 C 
ATOM      2  C   UNL     1       4.489   5.427  16.343  0.00  0.00    +0.000 C 
ATOM      3  C   UNL     1       3.147   3.559  17.272  0.00  0.00    +0.000 C 
ATOM      4  C   UNL     1       2.461   2.898  18.465  0.00  0.00    +0.000 C 
ATOM      5  C   UNL     1       1.460   3.845  19.087  0.00  0.00    +0.000 C 
ATOM      6  C   UNL     1       2.071   5.195  19.413  0.00  0.00    +0.000 C 
ATOM      7  N   UNL     1       2.783   5.806  18.276  0.00  0.00    +0.000 N 
ATOM      8  C   UNL     1       2.668   7.187  18.011  0.00  0.00    +0.000 C 
ATOM      9  O   UNL     1       3.104   7.702  16.979  0.00  0.00    +0.000 OA
ENDROOT
BRANCH   8  10
ATOM     10  C   UNL     1       1.991   8.051  19.023  0.00  0.00    +0.000 A 
ATOM     11  C   UNL     1       1.852   7.812  20.411  0.00  0.00    +0.000 A 
ATOM     12  C   UNL     1       1.099   8.859  20.910  0.00  0.00    +0.000 A 
ATOM     13  C   UNL     1       0.529   9.020  22.272  0.00  0.00    +0.000 C 
ATOM     14  N   UNL     1       0.954   9.742  19.858  0.00  0.00    +0.000 N 
ATOM     15  N   UNL     1       1.319   9.168  18.690  0.00  0.00    +0.000 NA
BRANCH  14  16
ATOM     16  C   UNL     1       0.478  11.144  19.835  0.00  0.00    +0.000 C 
ATOM     17  C   UNL     1       0.969  11.922  21.076  0.00  0.00    +0.000 C 
ATOM     18  C   UNL     1       1.023  11.905  18.593  0.00  0.00    +0.000 C 
ATOM     19  C   UNL     1      -1.056  11.214  19.759  0.00  0.00    +0.000 C 
ENDBRANCH  14  16
ENDBRANCH   8  10
BRANCH   1  21
ATOM     20  N   UNL     1       5.929   5.672  18.695  0.00  0.00    +0.000 N 
ATOM     21  C   UNL     1       4.988   4.666  18.640  0.00  0.00    +0.000 C 
ATOM     22  O   UNL     1       5.132   3.607  19.251  0.00  0.00    +0.000 OA
ATOM     23  H   UNL     1       5.800   6.486  18.105  0.00  0.00    +0.000 HD
BRANCH  20  24
ATOM     24  C   UNL     1       7.063   5.636  19.591  0.00  0.00    +0.000 C 
BRANCH  24  25
ATOM     25  C   UNL     1       8.242   6.452  19.072  0.00  0.00    +0.000 C 
BRANCH  25  27
ATOM     26  C   UNL     1       8.237   8.769  18.077  0.00  0.00    +0.000 C 
ATOM     27  C   UNL     1       7.862   7.312  17.866  0.00  0.00    +0.000 C 
ENDBRANCH  25  27
ENDBRANCH  24  25
ENDBRANCH  20  24
ENDBRANCH   1  21
TORSDOF 6
ENDMDL
MODEL 3
REMARK VINA RESULT:      -7.1      2.889      4.499
REMARK  Name = 
REMARK  12 active torsions:
REMARK  status: ('A' for Active; 'I' for Inactive)
REMARK    1  A    between atoms: C_1  and  C_2
REMARK    2  A    between atoms: C_2  and  C_3
REMARK    3  A    between atoms: C_3  and  C_4
REMARK    4  A    between atoms: C_4  and  N_5
REMARK    5  A    between atoms: C_6  and  C_8
REMARK    6  A    between atoms: C_8  and  C_9
REMARK    7  A    between atoms: C_15  and  C_17
REMARK    8  A    between atoms: C_19  and  C_20
REMARK    9  A    between atoms: N_21  and  C_22
REMARK   10  A    between atoms: C_22  and  C_23
REMARK   11  A    between atoms: C_22  and  C_24
REMARK   12  A    between atoms: C_22  and  C_25
REMARK                            x       y       z     vdW  Elec       q    Type
REMARK                         _______ _______ _______ _____ _____    ______ ____
ROOT
ATOM      1  C   UNL     1       5.179   4.611  17.018  0.00  0.00    +0.000 C 
ATOM      2  C   UNL     1       4.331   3.327  16.901  0.00  0.00    +0.000 C 
ATOM      3  C   UNL     1       6.501   4.205  17.724  0.00  0.00    +0.000 C 
ATOM      4  C   UNL     1       7.472   5.371  17.883  0.00  0.00    +0.000 C 
ATOM      5  C   UNL     1       6.803   6.517  18.609  0.00  0.00    +0.000 C 
ATOM      6  C   UNL     1       5.485   6.911  17.969  0.00  0.00    +0.000 C 
ATOM      7  N   UNL     1       4.571   5.774  17.762  0.00  0.00    +0.000 N 
ATOM      8  C   UNL     1       3.189   5.904  18.018  0.00  0.00    +0.000 C 
ATOM      9  O   UNL     1       2.423   4.938  18.024  0.00  0.00    +0.000 OA
ENDROOT
BRANCH   8  10
ATOM     10  C   UNL     1       2.642   7.266  18.293  0.00  0.00    +0.000 A 
ATOM     11  C   UNL     1       2.682   8.400  17.449  0.00  0.00    +0.000 A 
ATOM     12  C   UNL     1       2.105   9.435  18.165  0.00  0.00    +0.000 A 
ATOM     13  C   UNL     1       2.035  10.875  17.812  0.00  0.00    +0.000 C 
ATOM     14  N   UNL     1       1.614   8.855  19.317  0.00  0.00    +0.000 N 
ATOM     15  N   UNL     1       2.105   7.605  19.478  0.00  0.00    +0.000 NA
BRANCH  14  16
ATOM     16  C   UNL     1       0.684   9.384  20.342  0.00  0.00    +0.000 C 
ATOM     17  C   UNL     1      -0.624   9.895  19.699  0.00  0.00    +0.000 C 
ATOM     18  C   UNL     1       0.275   8.278  21.357  0.00  0.00    +0.000 C 
ATOM     19  C   UNL     1       1.332  10.514  21.157  0.00  0.00    +0.000 C 
ENDBRANCH  14  16
ENDBRANCH   8  10
BRANCH   1  21
ATOM     20  N   UNL     1       6.130   4.088  14.783  0.00  0.00    +0.000 N 
ATOM     21  C   UNL     1       5.483   5.039  15.543  0.00  0.00    +0.000 C 
ATOM     22  O   UNL     1       5.273   6.176  15.121  0.00  0.00    +0.000 OA
ATOM     23  H   UNL     1       6.353   3.197  15.212  0.00  0.00    +0.000 HD
BRANCH  20  24
ATOM     24  C   UNL     1       6.462   4.291  13.391  0.00  0.00    +0.000 C 
BRANCH  24  25
ATOM     25  C   UNL     1       5.724   3.326  12.469  0.00  0.00    +0.000 C 
BRANCH  25  27
ATOM     26  C   UNL     1       6.167   1.204  11.180  0.00  0.00    +0.000 C 
ATOM     27  C   UNL     1       6.675   2.595  11.519  0.00  0.00    +0.000 C 
ENDBRANCH  25  27
ENDBRANCH  24  25
ENDBRANCH  20  24
ENDBRANCH   1  21
TORSDOF 6
ENDMDL
MODEL 4
REMARK VINA RESULT:      -7.0      1.818      3.560
REMARK  Name = 
REMARK  12 active torsions:
REMARK  status: ('A' for Active; 'I' for Inactive)
REMARK    1  A    between atoms: C_1  and  C_2
REMARK    2  A    between atoms: C_2  and  C_3
REMARK    3  A    between atoms: C_3  and  C_4
REMARK    4  A    between atoms: C_4  and  N_5
REMARK    5  A    between atoms: C_6  and  C_8
REMARK    6  A    between atoms: C_8  and  C_9
REMARK    7  A    between atoms: C_15  and  C_17
REMARK    8  A    between atoms: C_19  and  C_20
REMARK    9  A    between atoms: N_21  and  C_22
REMARK   10  A    between atoms: C_22  and  C_23
REMARK   11  A    between atoms: C_22  and  C_24
REMARK   12  A    between atoms: C_22  and  C_25
REMARK                            x       y       z     vdW  Elec       q    Type
REMARK                         _______ _______ _______ _____ _____    ______ ____
ROOT
ATOM      1  C   UNL     1       4.236   4.892  17.674  0.00  0.00    +0.000 C 
ATOM      2  C   UNL     1       5.564   5.378  17.057  0.00  0.00    +0.000 C 
ATOM      3  C   UNL     1       3.748   3.707  16.798  0.00  0.00    +0.000 C 
ATOM      4  C   UNL     1       2.449   3.087  17.307  0.00  0.00    +0.000 C 
ATOM      5  C   UNL     1       1.375   4.144  17.430  0.00  0.00    +0.000 C 
ATOM      6  C   UNL     1       1.835   5.338  18.246  0.00  0.00    +0.000 C 
ATOM      7  N   UNL     1       3.119   5.900  17.790  0.00  0.00    +0.000 N 
ATOM      8  C   UNL     1       3.314   7.296  17.730  0.00  0.00    +0.000 C 
ATOM      9  O   UNL     1       4.303   7.804  17.196  0.00  0.00    +0.000 OA
ENDROOT
BRANCH   8  10
ATOM     10  C   UNL     1       2.280   8.186  18.337  0.00  0.00    +0.000 A 
ATOM     11  C   UNL     1       1.307   8.963  17.667  0.00  0.00    +0.000 A 
ATOM     12  C   UNL     1       0.625   9.660  18.648  0.00  0.00    +0.000 A 
ATOM     13  C   UNL     1      -0.387  10.734  18.485  0.00  0.00    +0.000 C 
ATOM     14  N   UNL     1       1.100   9.166  19.847  0.00  0.00    +0.000 N 
ATOM     15  N   UNL     1       2.219   8.431  19.658  0.00  0.00    +0.000 NA
BRANCH  14  16
ATOM     16  C   UNL     1       0.587   9.326  21.227  0.00  0.00    +0.000 C 
ATOM     17  C   UNL     1      -0.628   8.407  21.481  0.00  0.00    +0.000 C 
ATOM     18  C   UNL     1       1.664   8.934  22.279  0.00  0.00    +0.000 C 
ATOM     19  C   UNL     1       0.198  10.784  21.515  0.00  0.00    +0.000 C 
ENDBRANCH  14  16
ENDBRANCH   8  10
BRANCH   1  21
ATOM     20  N   UNL     1       4.244   3.065  19.357  0.00  0.00    +0.000 N 
ATOM     21  C   UNL     1       4.612   4.369  19.101  0.00  0.00    +0.000 C 
ATOM     22  O   UNL     1       5.092   5.093  19.973  0.00  0.00    +0.000 OA
ATOM     23  H   UNL     1       3.775   2.543  18.627  0.00  0.00    +0.000 HD
BRANCH  20  24
ATOM     24  C   UNL     1       4.539   2.399  20.606  0.00  0.00    +0.000 C 
BRANCH  24  25
ATOM     25  C   UNL     1       3.281   2.084  21.410  0.00  0.00    +0.000 C 
BRANCH  25  27
ATOM     26  C   UNL     1       0.983   2.979  20.883  0.00  0.00    +0.000 C 
ATOM     27  C   UNL     1       2.338   3.285  21.499  0.00  0.00    +0.000 C 
ENDBRANCH  25  27
ENDBRANCH  24  25
ENDBRANCH  20  24
ENDBRANCH   1  21
TORSDOF 6
ENDMDL
MODEL 5
REMARK VINA RESULT:      -7.0      2.480      7.537
REMARK  Name = 
REMARK  12 active torsions:
REMARK  status: ('A' for Active; 'I' for Inactive)
REMARK    1  A    between atoms: C_1  and  C_2
REMARK    2  A    between atoms: C_2  and  C_3
REMARK    3  A    between atoms: C_3  and  C_4
REMARK    4  A    between atoms: C_4  and  N_5
REMARK    5  A    between atoms: C_6  and  C_8
REMARK    6  A    between atoms: C_8  and  C_9
REMARK    7  A    between atoms: C_15  and  C_17
REMARK    8  A    between atoms: C_19  and  C_20
REMARK    9  A    between atoms: N_21  and  C_22
REMARK   10  A    between atoms: C_22  and  C_23
REMARK   11  A    between atoms: C_22  and  C_24
REMARK   12  A    between atoms: C_22  and  C_25
REMARK                            x       y       z     vdW  Elec       q    Type
REMARK                         _______ _______ _______ _____ _____    ______ ____
ROOT
ATOM      1  C   UNL     1       0.976  10.456  19.339  0.00  0.00    +0.000 C 
ATOM      2  C   UNL     1       1.517  11.513  18.352  0.00  0.00    +0.000 C 
ATOM      3  C   UNL     1       1.052  11.093  20.753  0.00  0.00    +0.000 C 
ATOM      4  C   UNL     1       0.513  10.176  21.847  0.00  0.00    +0.000 C 
ATOM      5  C   UNL     1       1.229   8.844  21.816  0.00  0.00    +0.000 C 
ATOM      6  C   UNL     1       1.210   8.213  20.436  0.00  0.00    +0.000 C 
ATOM      7  N   UNL     1       1.676   9.120  19.372  0.00  0.00    +0.000 N 
ATOM      8  C   UNL     1       2.513   8.649  18.338  0.00  0.00    +0.000 C 
ATOM      9  O   UNL     1       3.061   9.405  17.533  0.00  0.00    +0.000 OA
ENDROOT
BRANCH   8  10
ATOM     10  C   UNL     1       2.741   7.178  18.223  0.00  0.00    +0.000 A 
ATOM     11  C   UNL     1       3.730   6.513  17.460  0.00  0.00    +0.000 A 
ATOM     12  C   UNL     1       3.500   5.159  17.626  0.00  0.00    +0.000 A 
ATOM     13  C   UNL     1       4.145   4.020  16.924  0.00  0.00    +0.000 C 
ATOM     14  N   UNL     1       2.507   5.069  18.581  0.00  0.00    +0.000 N 
ATOM     15  N   UNL     1       1.926   6.271  18.790  0.00  0.00    +0.000 NA
BRANCH  14  16
ATOM     16  C   UNL     1       2.018   3.905  19.356  0.00  0.00    +0.000 C 
ATOM     17  C   UNL     1       3.189   3.126  19.994  0.00  0.00    +0.000 C 
ATOM     18  C   UNL     1       1.097   4.354  20.526  0.00  0.00    +0.000 C 
ATOM     19  C   UNL     1       1.187   2.956  18.478  0.00  0.00    +0.000 C 
ENDBRANCH  14  16
ENDBRANCH   8  10
BRANCH   1  21
ATOM     20  N   UNL     1      -0.739  10.017  17.596  0.00  0.00    +0.000 N 
ATOM     21  C   UNL     1      -0.523  10.248  18.938  0.00  0.00    +0.000 C 
ATOM     22  O   UNL     1      -1.452  10.395  19.731  0.00  0.00    +0.000 OA
ATOM     23  H   UNL     1       0.061   9.990  16.976  0.00  0.00    +0.000 HD
BRANCH  20  24
ATOM     24  C   UNL     1      -2.053   9.768  17.046  0.00  0.00    +0.000 C 
BRANCH  24  25
ATOM     25  C   UNL     1      -2.513  10.879  16.110  0.00  0.00    +0.000 C 
BRANCH  25  27
ATOM     26  C   UNL     1      -3.273  10.026  13.861  0.00  0.00    +0.000 C 
ATOM     27  C   UNL     1      -3.707  10.454  15.253  0.00  0.00    +0.000 C 
ENDBRANCH  25  27
ENDBRANCH  24  25
ENDBRANCH  20  24
ENDBRANCH   1  21
TORSDOF 6
ENDMDL
MODEL 6
REMARK VINA RESULT:      -6.8      2.603      7.598
REMARK  Name = 
REMARK  12 active torsions:
REMARK  status: ('A' for Active; 'I' for Inactive)
REMARK    1  A    between atoms: C_1  and  C_2
REMARK    2  A    between atoms: C_2  and  C_3
REMARK    3  A    between atoms: C_3  and  C_4
REMARK    4  A    between atoms: C_4  and  N_5
REMARK    5  A    between atoms: C_6  and  C_8
REMARK    6  A    between atoms: C_8  and  C_9
REMARK    7  A    between atoms: C_15  and  C_17
REMARK    8  A    between atoms: C_19  and  C_20
REMARK    9  A    between atoms: N_21  and  C_22
REMARK   10  A    between atoms: C_22  and  C_23
REMARK   11  A    between atoms: C_22  and  C_24
REMARK   12  A    between atoms: C_22  and  C_25
REMARK                            x       y       z     vdW  Elec       q    Type
REMARK                         _______ _______ _______ _____ _____    ______ ____
ROOT
ATOM      1  C   UNL     1       0.959  10.277  19.378  0.00  0.00    +0.000 C 
ATOM      2  C   UNL     1       1.678  10.912  18.170  0.00  0.00    +0.000 C 
ATOM      3  C   UNL     1       1.080  11.291  20.548  0.00  0.00    +0.000 C 
ATOM      4  C   UNL     1       0.380  10.819  21.819  0.00  0.00    +0.000 C 
ATOM      5  C   UNL     1       0.896   9.458  22.229  0.00  0.00    +0.000 C 
ATOM      6  C   UNL     1       0.830   8.453  21.095  0.00  0.00    +0.000 C 
ATOM      7  N   UNL     1       1.456   8.933  19.850  0.00  0.00    +0.000 N 
ATOM      8  C   UNL     1       2.249   8.071  19.062  0.00  0.00    +0.000 C 
ATOM      9  O   UNL     1       2.925   8.476  18.114  0.00  0.00    +0.000 OA
ENDROOT
BRANCH   8  10
ATOM     10  C   UNL     1       2.265   6.616  19.397  0.00  0.00    +0.000 A 
ATOM     11  C   UNL     1       1.656   5.976  20.502  0.00  0.00    +0.000 A 
ATOM     12  C   UNL     1       2.002   4.639  20.414  0.00  0.00    +0.000 A 
ATOM     13  C   UNL     1       1.762   3.556  21.400  0.00  0.00    +0.000 C 
ATOM     14  N   UNL     1       2.656   4.509  19.205  0.00  0.00    +0.000 N 
ATOM     15  N   UNL     1       2.980   5.719  18.695  0.00  0.00    +0.000 NA
BRANCH  14  16
ATOM     16  C   UNL     1       3.034   3.298  18.439  0.00  0.00    +0.000 C 
ATOM     17  C   UNL     1       3.694   3.672  17.093  0.00  0.00    +0.000 C 
ATOM     18  C   UNL     1       4.073   2.440  19.216  0.00  0.00    +0.000 C 
ATOM     19  C   UNL     1       1.818   2.394  18.183  0.00  0.00    +0.000 C 
ENDBRANCH  14  16
ENDBRANCH   8  10
BRANCH   1  21
ATOM     20  N   UNL     1      -0.950  11.065  17.997  0.00  0.00    +0.000 N 
ATOM     21  C   UNL     1      -0.542  10.154  18.947  0.00  0.00    +0.000 C 
ATOM     22  O   UNL     1      -1.332   9.385  19.493  0.00  0.00    +0.000 OA
ATOM     23  H   UNL     1      -0.273  11.731  17.644  0.00  0.00    +0.000 HD
BRANCH  20  24
ATOM     24  C   UNL     1      -2.289  11.082  17.452  0.00  0.00    +0.000 C 
BRANCH  24  25
ATOM     25  C   UNL     1      -2.456  10.110  16.288  0.00  0.00    +0.000 C 
BRANCH  25  27
ATOM     26  C   UNL     1      -3.083   9.894  13.855  0.00  0.00    +0.000 C 
ATOM     27  C   UNL     1      -3.194  10.746  15.108  0.00  0.00    +0.000 C 
ENDBRANCH  25  27
ENDBRANCH  24  25
ENDBRANCH  20  24
ENDBRANCH   1  21
TORSDOF 6
ENDMDL
MODEL 7
REMARK VINA RESULT:      -6.8      2.456      7.632
REMARK  Name = 
REMARK  12 active torsions:
REMARK  status: ('A' for Active; 'I' for Inactive)
REMARK    1  A    between atoms: C_1  and  C_2
REMARK    2  A    between atoms: C_2  and  C_3
REMARK    3  A    between atoms: C_3  and  C_4
REMARK    4  A    between atoms: C_4  and  N_5
REMARK    5  A    between atoms: C_6  and  C_8
REMARK    6  A    between atoms: C_8  and  C_9
REMARK    7  A    between atoms: C_15  and  C_17
REMARK    8  A    between atoms: C_19  and  C_20
REMARK    9  A    between atoms: N_21  and  C_22
REMARK   10  A    between atoms: C_22  and  C_23
REMARK   11  A    between atoms: C_22  and  C_24
REMARK   12  A    between atoms: C_22  and  C_25
REMARK                            x       y       z     vdW  Elec       q    Type
REMARK                         _______ _______ _______ _____ _____    ______ ____
ROOT
ATOM      1  C   UNL     1       0.838  10.398  19.219  0.00  0.00    +0.000 C 
ATOM      2  C   UNL     1       1.346  11.445  18.206  0.00  0.00    +0.000 C 
ATOM      3  C   UNL     1       0.886  11.075  20.615  0.00  0.00    +0.000 C 
ATOM      4  C   UNL     1       0.374  10.170  21.733  0.00  0.00    +0.000 C 
ATOM      5  C   UNL     1       1.136   8.863  21.741  0.00  0.00    +0.000 C 
ATOM      6  C   UNL     1       1.145   8.195  20.378  0.00  0.00    +0.000 C 
ATOM      7  N   UNL     1       1.583   9.088  19.291  0.00  0.00    +0.000 N 
ATOM      8  C   UNL     1       2.440   8.618  18.273  0.00  0.00    +0.000 C 
ATOM      9  O   UNL     1       2.965   9.371  17.449  0.00  0.00    +0.000 OA
ENDROOT
BRANCH   8  10
ATOM     10  C   UNL     1       2.720   7.153  18.199  0.00  0.00    +0.000 A 
ATOM     11  C   UNL     1       3.758   6.505  17.489  0.00  0.00    +0.000 A 
ATOM     12  C   UNL     1       3.566   5.148  17.676  0.00  0.00    +0.000 A 
ATOM     13  C   UNL     1       4.273   4.017  17.024  0.00  0.00    +0.000 C 
ATOM     14  N   UNL     1       2.540   5.045  18.594  0.00  0.00    +0.000 N 
ATOM     15  N   UNL     1       1.912   6.232  18.755  0.00  0.00    +0.000 NA
BRANCH  14  16
ATOM     16  C   UNL     1       2.058   3.883  19.375  0.00  0.00    +0.000 C 
ATOM     17  C   UNL     1       1.084   4.323  20.490  0.00  0.00    +0.000 C 
ATOM     18  C   UNL     1       1.277   2.883  18.476  0.00  0.00    +0.000 C 
ATOM     19  C   UNL     1       3.227   3.100  19.994  0.00  0.00    +0.000 C 
ENDBRANCH  14  16
ENDBRANCH   8  10
BRANCH   1  21
ATOM     20  N   UNL     1      -0.877  10.002  17.465  0.00  0.00    +0.000 N 
ATOM     21  C   UNL     1      -0.651  10.127  18.820  0.00  0.00    +0.000 C 
ATOM     22  O   UNL     1      -1.574  10.141  19.634  0.00  0.00    +0.000 OA
ATOM     23  H   UNL     1      -0.087  10.083  16.835  0.00  0.00    +0.000 HD
BRANCH  20  24
ATOM     24  C   UNL     1      -2.181   9.716  16.911  0.00  0.00    +0.000 C 
BRANCH  24  25
ATOM     25  C   UNL     1      -2.669  10.813  15.972  0.00  0.00    +0.000 C 
BRANCH  25  27
ATOM     26  C   UNL     1      -4.529  11.507  17.528  0.00  0.00    +0.000 C 
ATOM     27  C   UNL     1      -4.170  11.072  16.117  0.00  0.00    +0.000 C 
ENDBRANCH  25  27
ENDBRANCH  24  25
ENDBRANCH  20  24
ENDBRANCH   1  21
TORSDOF 6
ENDMDL
MODEL 8
REMARK VINA RESULT:      -6.8      2.506      7.651
REMARK  Name = 
REMARK  12 active torsions:
REMARK  status: ('A' for Active; 'I' for Inactive)
REMARK    1  A    between atoms: C_1  and  C_2
REMARK    2  A    between atoms: C_2  and  C_3
REMARK    3  A    between atoms: C_3  and  C_4
REMARK    4  A    between atoms: C_4  and  N_5
REMARK    5  A    between atoms: C_6  and  C_8
REMARK    6  A    between atoms: C_8  and  C_9
REMARK    7  A    between atoms: C_15  and  C_17
REMARK    8  A    between atoms: C_19  and  C_20
REMARK    9  A    between atoms: N_21  and  C_22
REMARK   10  A    between atoms: C_22  and  C_23
REMARK   11  A    between atoms: C_22  and  C_24
REMARK   12  A    between atoms: C_22  and  C_25
REMARK                            x       y       z     vdW  Elec       q    Type
REMARK                         _______ _______ _______ _____ _____    ______ ____
ROOT
ATOM      1  C   UNL     1       0.855  10.582  19.485  0.00  0.00    +0.000 C 
ATOM      2  C   UNL     1       1.337  11.609  18.439  0.00  0.00    +0.000 C 
ATOM      3  C   UNL     1       1.060  11.240  20.877  0.00  0.00    +0.000 C 
ATOM      4  C   UNL     1       0.592  10.353  22.028  0.00  0.00    +0.000 C 
ATOM      5  C   UNL     1       1.272   9.004  21.962  0.00  0.00    +0.000 C 
ATOM      6  C   UNL     1       1.127   8.352  20.600  0.00  0.00    +0.000 C 
ATOM      7  N   UNL     1       1.524   9.230  19.485  0.00  0.00    +0.000 N 
ATOM      8  C   UNL     1       2.263   8.722  18.395  0.00  0.00    +0.000 C 
ATOM      9  O   UNL     1       2.761   9.452  17.535  0.00  0.00    +0.000 OA
ENDROOT
BRANCH   8  10
ATOM     10  C   UNL     1       2.448   7.245  18.288  0.00  0.00    +0.000 A 
ATOM     11  C   UNL     1       1.494   6.281  17.884  0.00  0.00    +0.000 A 
ATOM     12  C   UNL     1       2.112   5.050  18.007  0.00  0.00    +0.000 A 
ATOM     13  C   UNL     1       1.515   3.698  17.865  0.00  0.00    +0.000 C 
ATOM     14  N   UNL     1       3.427   5.329  18.322  0.00  0.00    +0.000 N 
ATOM     15  N   UNL     1       3.576   6.625  18.677  0.00  0.00    +0.000 NA
BRANCH  14  16
ATOM     16  C   UNL     1       4.624   4.455  18.328  0.00  0.00    +0.000 C 
ATOM     17  C   UNL     1       5.860   5.204  18.873  0.00  0.00    +0.000 C 
ATOM     18  C   UNL     1       4.415   3.219  19.248  0.00  0.00    +0.000 C 
ATOM     19  C   UNL     1       4.930   3.913  16.923  0.00  0.00    +0.000 C 
ENDBRANCH  14  16
ENDBRANCH   8  10
BRANCH   1  21
ATOM     20  N   UNL     1      -1.029  10.375  17.879  0.00  0.00    +0.000 N 
ATOM     21  C   UNL     1      -0.676  10.404  19.212  0.00  0.00    +0.000 C 
ATOM     22  O   UNL     1      -1.519  10.408  20.108  0.00  0.00    +0.000 OA
ATOM     23  H   UNL     1      -0.297  10.460  17.184  0.00  0.00    +0.000 HD
BRANCH  20  24
ATOM     24  C   UNL     1      -2.391  10.182  17.434  0.00  0.00    +0.000 C 
BRANCH  24  25
ATOM     25  C   UNL     1      -2.468   9.632  16.014  0.00  0.00    +0.000 C 
BRANCH  25  27
ATOM     26  C   UNL     1      -3.355   9.977  13.679  0.00  0.00    +0.000 C 
ATOM     27  C   UNL     1      -3.232  10.566  15.074  0.00  0.00    +0.000 C 
ENDBRANCH  25  27
ENDBRANCH  24  25
ENDBRANCH  20  24
ENDBRANCH   1  21
TORSDOF 6
ENDMDL
MODEL 9
REMARK VINA RESULT:      -6.8      1.746      3.145
REMARK  Name = 
REMARK  12 active torsions:
REMARK  status: ('A' for Active; 'I' for Inactive)
REMARK    1  A    between atoms: C_1  and  C_2
REMARK    2  A    between atoms: C_2  and  C_3
REMARK    3  A    between atoms: C_3  and  C_4
REMARK    4  A    between atoms: C_4  and  N_5
REMARK    5  A    between atoms: C_6  and  C_8
REMARK    6  A    between atoms: C_8  and  C_9
REMARK    7  A    between atoms: C_15  and  C_17
REMARK    8  A    between atoms: C_19  and  C_20
REMARK    9  A    between atoms: N_21  and  C_22
REMARK   10  A    between atoms: C_22  and  C_23
REMARK   11  A    between atoms: C_22  and  C_24
REMARK   12  A    between atoms: C_22  and  C_25
REMARK                            x       y       z     vdW  Elec       q    Type
REMARK                         _______ _______ _______ _____ _____    ______ ____
ROOT
ATOM      1  C   UNL     1       4.294   4.774  17.607  0.00  0.00    +0.000 C 
ATOM      2  C   UNL     1       5.536   5.335  16.884  0.00  0.00    +0.000 C 
ATOM      3  C   UNL     1       3.704   3.674  16.683  0.00  0.00    +0.000 C 
ATOM      4  C   UNL     1       2.477   2.990  17.281  0.00  0.00    +0.000 C 
ATOM      5  C   UNL     1       1.425   4.016  17.637  0.00  0.00    +0.000 C 
ATOM      6  C   UNL     1       1.980   5.130  18.506  0.00  0.00    +0.000 C 
ATOM      7  N   UNL     1       3.198   5.750  17.957  0.00  0.00    +0.000 N 
ATOM      8  C   UNL     1       3.384   7.148  18.013  0.00  0.00    +0.000 C 
ATOM      9  O   UNL     1       4.299   7.719  17.415  0.00  0.00    +0.000 OA
ENDROOT
BRANCH   8  10
ATOM     10  C   UNL     1       2.430   7.960  18.826  0.00  0.00    +0.000 A 
ATOM     11  C   UNL     1       1.910   7.657  20.106  0.00  0.00    +0.000 A 
ATOM     12  C   UNL     1       1.025   8.674  20.415  0.00  0.00    +0.000 A 
ATOM     13  C   UNL     1       0.090   8.769  21.564  0.00  0.00    +0.000 C 
ATOM     14  N   UNL     1       1.166   9.603  19.403  0.00  0.00    +0.000 N 
ATOM     15  N   UNL     1       1.858   9.086  18.363  0.00  0.00    +0.000 NA
BRANCH  14  16
ATOM     16  C   UNL     1       0.687  11.001  19.304  0.00  0.00    +0.000 C 
ATOM     17  C   UNL     1      -0.751  11.061  18.741  0.00  0.00    +0.000 C 
ATOM     18  C   UNL     1       0.642  11.683  20.701  0.00  0.00    +0.000 C 
ATOM     19  C   UNL     1       1.618  11.852  18.426  0.00  0.00    +0.000 C 
ENDBRANCH  14  16
ENDBRANCH   8  10
BRANCH   1  21
ATOM     20  N   UNL     1       4.248   2.920  19.261  0.00  0.00    +0.000 N 
ATOM     21  C   UNL     1       4.842   4.117  18.918  0.00  0.00    +0.000 C 
ATOM     22  O   UNL     1       5.654   4.675  19.656  0.00  0.00    +0.000 OA
ATOM     23  H   UNL     1       3.525   2.550  18.656  0.00  0.00    +0.000 HD
BRANCH  20  24
ATOM     24  C   UNL     1       4.648   2.151  20.418  0.00  0.00    +0.000 C 
BRANCH  24  25
ATOM     25  C   UNL     1       3.490   1.899  21.378  0.00  0.00    +0.000 C 
BRANCH  25  27
ATOM     26  C   UNL     1       1.148   2.814  21.173  0.00  0.00    +0.000 C 
ATOM     27  C   UNL     1       2.591   3.127  21.533  0.00  0.00    +0.000 C 
ENDBRANCH  25  27
ENDBRANCH  24  25
ENDBRANCH  20  24
ENDBRANCH   1  21
TORSDOF 6
ENDMDL
