MODEL 1
REMARK VINA RESULT:      -7.4      0.000      0.000
REMARK  Name = 
REMARK  3 active torsions:
REMARK  status: ('A' for Active; 'I' for Inactive)
REMARK    1  A    between atoms: C_2  and  C_4
REMARK    2  A    between atoms: C_11  and  C_12
REMARK    3  A    between atoms: C_16  and  N_17
REMARK                            x       y       z     vdW  Elec       q    Type
REMARK                         _______ _______ _______ _____ _____    ______ ____
ROOT
ATOM      1  C   UNL     1      -3.225  10.428  15.458  0.00  0.00    +0.000 A 
ATOM      2  C   UNL     1      -4.168  11.305  16.009  0.00  0.00    +0.000 A 
ATOM      3  C   UNL     1      -3.999  11.793  17.311  0.00  0.00    +0.000 A 
ATOM      4  C   UNL     1      -2.878  11.405  18.054  0.00  0.00    +0.000 A 
ATOM      5  C   UNL     1      -2.674  11.882  19.450  0.00  0.00    +0.000 A 
ATOM      6  O   UNL     1      -3.509  12.632  19.949  0.00  0.00    +0.000 OA
ATOM      7  N   UNL     1      -1.525  11.417  20.073  0.00  0.00    +0.000 N 
ATOM      8  C   UNL     1      -1.112  11.705  21.368  0.00  0.00    +0.000 A 
ATOM      9  C   UNL     1       0.043  11.116  21.718  0.00  0.00    +0.000 A 
ATOM     10  S   UNL     1       0.696  10.152  20.433  0.00  0.00    +0.000 S 
ATOM     11  C   UNL     1      -0.658  10.574  19.402  0.00  0.00    +0.000 A 
ATOM     12  N   UNL     1      -0.781  10.134  18.201  0.00  0.00    +0.000 NA
ATOM     13  C   UNL     1      -1.920  10.548  17.500  0.00  0.00    +0.000 A 
ATOM     14  C   UNL     1      -2.095  10.070  16.200  0.00  0.00    +0.000 A 
ENDROOT
BRANCH   8  15
ATOM     15  C   UNL     1      -1.813  12.578  22.309  0.00  0.00    +0.000 A 
ATOM     16  C   UNL     1      -1.333  13.868  22.555  0.00  0.00    +0.000 A 
ATOM     17  C   UNL     1      -1.921  14.661  23.547  0.00  0.00    +0.000 A 
ATOM     18 CL   UNL     1      -1.248  16.231  23.832  0.00  0.00    +0.000 Cl
ATOM     19  C   UNL     1      -3.020  14.205  24.297  0.00  0.00    +0.000 A 
ATOM     20  C   UNL     1      -3.471  12.895  24.052  0.00  0.00    +0.000 A 
ATOM     21 CL   UNL     1      -4.770  12.223  24.979  0.00  0.00    +0.000 Cl
ATOM     22  C   UNL     1      -2.887  12.094  23.063  0.00  0.00    +0.000 A 
BRANCH  19  23
ATOM     23  N   UNL     1      -3.488  14.937  25.413  0.00  0.00    +0.000 N 
ATOM     24  H   UNL     1      -4.309  14.519  25.849  0.00  0.00    +0.000 HD
ATOM     25  H   UNL     1      -2.753  15.174  26.075  0.00  0.00    +0.000 HD
ENDBRANCH  19  23
ENDBRANCH   8  15
BRANCH   1  27
ATOM     26  N   UNL     1      -4.736   9.695  13.695  0.00  0.00    +0.000 N 
ATOM     27  C   UNL     1      -3.443   9.904  14.085  0.00  0.00    +0.000 C 
ATOM     28  O   UNL     1      -2.508   9.703  13.321  0.00  0.00    +0.000 OA
ATOM     29  H   UNL     1      -4.884   9.423  12.732  0.00  0.00    +0.000 HD
ATOM     30  H   UNL     1      -5.532  10.047  14.207  0.00  0.00    +0.000 HD
ENDBRANCH   1  27
TORSDOF 3
ENDMDL
MODEL 2
REMARK VINA RESULT:      -7.4      0.407      1.809
REMARK  Name = 
REMARK  3 active torsions:
REMARK  status: ('A' for Active; 'I' for Inactive)
REMARK    1  A    between atoms: C_2  and  C_4
REMARK    2  A    between atoms: C_11  and  C_12
REMARK    3  A    between atoms: C_16  and  N_17
REMARK                            x       y       z     vdW  Elec       q    Type
REMARK                         _______ _______ _______ _____ _____    ______ ____
ROOT
ATOM      1  C   UNL     1      -3.249  10.471  15.516  0.00  0.00    +0.000 A 
ATOM      2  C   UNL     1      -4.214  11.325  16.066  0.00  0.00    +0.000 A 
ATOM      3  C   UNL     1      -4.059  11.815  17.368  0.00  0.00    +0.000 A 
ATOM      4  C   UNL     1      -2.930  11.454  18.113  0.00  0.00    +0.000 A 
ATOM      5  C   UNL     1      -2.740  11.936  19.509  0.00  0.00    +0.000 A 
ATOM      6  O   UNL     1      -3.593  12.664  20.008  0.00  0.00    +0.000 OA
ATOM      7  N   UNL     1      -1.581  11.498  20.134  0.00  0.00    +0.000 N 
ATOM      8  C   UNL     1      -1.177  11.795  21.430  0.00  0.00    +0.000 A 
ATOM      9  C   UNL     1      -0.008  11.234  21.781  0.00  0.00    +0.000 A 
ATOM     10  S   UNL     1       0.670  10.287  20.497  0.00  0.00    +0.000 S 
ATOM     11  C   UNL     1      -0.692  10.677  19.464  0.00  0.00    +0.000 A 
ATOM     12  N   UNL     1      -0.803  10.234  18.263  0.00  0.00    +0.000 NA
ATOM     13  C   UNL     1      -1.951  10.621  17.560  0.00  0.00    +0.000 A 
ATOM     14  C   UNL     1      -2.112  10.140  16.259  0.00  0.00    +0.000 A 
ENDROOT
BRANCH   8  15
ATOM     15  C   UNL     1      -1.901  12.650  22.370  0.00  0.00    +0.000 A 
ATOM     16  C   UNL     1      -2.887  12.103  23.196  0.00  0.00    +0.000 A 
ATOM     17  C   UNL     1      -3.672  12.934  24.002  0.00  0.00    +0.000 A 
ATOM     18 CL   UNL     1      -4.905  12.194  24.967  0.00  0.00    +0.000 Cl
ATOM     19  C   UNL     1      -3.476  14.326  24.033  0.00  0.00    +0.000 A 
ATOM     20  C   UNL     1      -2.498  14.860  23.174  0.00  0.00    +0.000 A 
ATOM     21 CL   UNL     1      -2.239  16.571  23.089  0.00  0.00    +0.000 Cl
ATOM     22  C   UNL     1      -1.709  14.036  22.362  0.00  0.00    +0.000 A 
BRANCH  19  23
ATOM     23  N   UNL     1      -4.388  15.171  24.708  0.00  0.00    +0.000 N 
ATOM     24  H   UNL     1      -5.348  14.831  24.675  0.00  0.00    +0.000 HD
ATOM     25  H   UNL     1      -4.080  15.429  25.642  0.00  0.00    +0.000 HD
ENDBRANCH  19  23
ENDBRANCH   8  15
BRANCH   1  27
ATOM     26  N   UNL     1      -4.741   9.741  13.736  0.00  0.00    +0.000 N 
ATOM     27  C   UNL     1      -3.452   9.942  14.142  0.00  0.00    +0.000 C 
ATOM     28  O   UNL     1      -2.508   9.732  13.392  0.00  0.00    +0.000 OA
ATOM     29  H   UNL     1      -4.878   9.466  12.771  0.00  0.00    +0.000 HD
ATOM     30  H   UNL     1      -5.541  10.101  14.235  0.00  0.00    +0.000 HD
ENDBRANCH   1  27
TORSDOF 3
ENDMDL
MODEL 3
REMARK VINA RESULT:      -7.1      6.097      7.648
REMARK  Name = 
REMARK  3 active torsions:
REMARK  status: ('A' for Active; 'I' for Inactive)
REMARK    1  A    between atoms: C_2  and  C_4
REMARK    2  A    between atoms: C_11  and  C_12
REMARK    3  A    between atoms: C_16  and  N_17
REMARK                            x       y       z     vdW  Elec       q    Type
REMARK                         _______ _______ _______ _____ _____    ______ ____
ROOT
ATOM      1  C   UNL     1       5.584   5.233  16.659  0.00  0.00    +0.000 A 
ATOM      2  C   UNL     1       5.403   6.386  15.883  0.00  0.00    +0.000 A 
ATOM      3  C   UNL     1       4.498   7.373  16.291  0.00  0.00    +0.000 A 
ATOM      4  C   UNL     1       3.782   7.204  17.482  0.00  0.00    +0.000 A 
ATOM      5  C   UNL     1       2.793   8.220  17.938  0.00  0.00    +0.000 A 
ATOM      6  O   UNL     1       2.610   9.221  17.252  0.00  0.00    +0.000 OA
ATOM      7  N   UNL     1       2.150   7.926  19.132  0.00  0.00    +0.000 N 
ATOM      8  C   UNL     1       1.184   8.700  19.764  0.00  0.00    +0.000 A 
ATOM      9  C   UNL     1       0.726   8.174  20.912  0.00  0.00    +0.000 A 
ATOM     10  S   UNL     1       1.484   6.658  21.280  0.00  0.00    +0.000 S 
ATOM     11  C   UNL     1       2.445   6.761  19.817  0.00  0.00    +0.000 A 
ATOM     12  N   UNL     1       3.287   5.854  19.473  0.00  0.00    +0.000 NA
ATOM     13  C   UNL     1       3.976   6.067  18.273  0.00  0.00    +0.000 A 
ATOM     14  C   UNL     1       4.885   5.089  17.861  0.00  0.00    +0.000 A 
ENDROOT
BRANCH   8  15
ATOM     15  C   UNL     1       0.683   9.988  19.287  0.00  0.00    +0.000 A 
ATOM     16  C   UNL     1       1.319  11.172  19.675  0.00  0.00    +0.000 A 
ATOM     17  C   UNL     1       0.771  12.412  19.331  0.00  0.00    +0.000 A 
ATOM     18 CL   UNL     1       1.584  13.838  19.882  0.00  0.00    +0.000 Cl
ATOM     19  C   UNL     1      -0.405  12.509  18.565  0.00  0.00    +0.000 A 
ATOM     20  C   UNL     1      -1.044  11.307  18.207  0.00  0.00    +0.000 A 
ATOM     21 CL   UNL     1      -2.536  11.330  17.329  0.00  0.00    +0.000 Cl
ATOM     22  C   UNL     1      -0.503  10.061  18.550  0.00  0.00    +0.000 A 
BRANCH  19  23
ATOM     23  N   UNL     1      -1.047  13.755  18.377  0.00  0.00    +0.000 N 
ATOM     24  H   UNL     1      -1.110  14.305  19.232  0.00  0.00    +0.000 HD
ATOM     25  H   UNL     1      -0.684  14.278  17.584  0.00  0.00    +0.000 HD
ENDBRANCH  19  23
ENDBRANCH   8  15
BRANCH   1  27
ATOM     26  N   UNL     1       6.006   3.149  15.473  0.00  0.00    +0.000 N 
ATOM     27  C   UNL     1       6.531   4.188  16.189  0.00  0.00    +0.000 C 
ATOM     28  O   UNL     1       7.733   4.272  16.401  0.00  0.00    +0.000 OA
ATOM     29  H   UNL     1       6.665   2.488  15.080  0.00  0.00    +0.000 HD
ATOM     30  H   UNL     1       5.070   3.154  15.096  0.00  0.00    +0.000 HD
ENDBRANCH   1  27
TORSDOF 3
ENDMDL
MODEL 4
REMARK VINA RESULT:      -7.1      7.195     10.147
REMARK  Name = 
REMARK  3 active torsions:
REMARK  status: ('A' for Active; 'I' for Inactive)
REMARK    1  A    between atoms: C_2  and  C_4
REMARK    2  A    between atoms: C_11  and  C_12
REMARK    3  A    between atoms: C_16  and  N_17
REMARK                            x       y       z     vdW  Elec       q    Type
REMARK                         _______ _______ _______ _____ _____    ______ ____
ROOT
ATOM      1  C   UNL     1      -0.253  10.227  21.002  0.00  0.00    +0.000 A 
ATOM      2  C   UNL     1       0.468  10.746  19.919  0.00  0.00    +0.000 A 
ATOM      3  C   UNL     1       1.395   9.944  19.242  0.00  0.00    +0.000 A 
ATOM      4  C   UNL     1       1.590   8.619  19.649  0.00  0.00    +0.000 A 
ATOM      5  C   UNL     1       2.583   7.742  18.969  0.00  0.00    +0.000 A 
ATOM      6  O   UNL     1       3.237   8.196  18.034  0.00  0.00    +0.000 OA
ATOM      7  N   UNL     1       2.680   6.454  19.476  0.00  0.00    +0.000 N 
ATOM      8  C   UNL     1       3.531   5.450  19.029  0.00  0.00    +0.000 A 
ATOM      9  C   UNL     1       3.417   4.295  19.705  0.00  0.00    +0.000 A 
ATOM     10  S   UNL     1       2.224   4.391  20.959  0.00  0.00    +0.000 S 
ATOM     11  C   UNL     1       1.885   6.058  20.536  0.00  0.00    +0.000 A 
ATOM     12  N   UNL     1       1.012   6.769  21.157  0.00  0.00    +0.000 NA
ATOM     13  C   UNL     1       0.856   8.088  20.714  0.00  0.00    +0.000 A 
ATOM     14  C   UNL     1      -0.070   8.894  21.382  0.00  0.00    +0.000 A 
ENDROOT
BRANCH   8  15
ATOM     15  C   UNL     1       4.472   5.569  17.916  0.00  0.00    +0.000 A 
ATOM     16  C   UNL     1       4.320   4.763  16.784  0.00  0.00    +0.000 A 
ATOM     17  C   UNL     1       5.287   4.777  15.773  0.00  0.00    +0.000 A 
ATOM     18 CL   UNL     1       5.060   3.721  14.420  0.00  0.00    +0.000 Cl
ATOM     19  C   UNL     1       6.414   5.616  15.846  0.00  0.00    +0.000 A 
ATOM     20  C   UNL     1       6.562   6.399  17.006  0.00  0.00    +0.000 A 
ATOM     21 CL   UNL     1       7.956   7.406  17.217  0.00  0.00    +0.000 Cl
ATOM     22  C   UNL     1       5.600   6.389  18.023  0.00  0.00    +0.000 A 
BRANCH  19  23
ATOM     23  N   UNL     1       7.471   5.492  14.915  0.00  0.00    +0.000 N 
ATOM     24  H   UNL     1       7.530   4.564  14.499  0.00  0.00    +0.000 HD
ATOM     25  H   UNL     1       7.494   6.245  14.232  0.00  0.00    +0.000 HD
ENDBRANCH  19  23
ENDBRANCH   8  15
BRANCH   1  27
ATOM     26  N   UNL     1      -1.253  11.000  23.083  0.00  0.00    +0.000 N 
ATOM     27  C   UNL     1      -1.210  11.107  21.721  0.00  0.00    +0.000 C 
ATOM     28  O   UNL     1      -1.904  11.920  21.124  0.00  0.00    +0.000 OA
ATOM     29  H   UNL     1      -1.840  11.663  23.574  0.00  0.00    +0.000 HD
ATOM     30  H   UNL     1      -0.555  10.508  23.621  0.00  0.00    +0.000 HD
ENDBRANCH   1  27
TORSDOF 3
ENDMDL
MODEL 5
REMARK VINA RESULT:      -7.0      3.540      5.014
REMARK  Name = 
REMARK  3 active torsions:
REMARK  status: ('A' for Active; 'I' for Inactive)
REMARK    1  A    between atoms: C_2  and  C_4
REMARK    2  A    between atoms: C_11  and  C_12
REMARK    3  A    between atoms: C_16  and  N_17
REMARK                            x       y       z     vdW  Elec       q    Type
REMARK                         _______ _______ _______ _____ _____    ______ ____
ROOT
ATOM      1  C   UNL     1       2.126   7.442  19.618  0.00  0.00    +0.000 A 
ATOM      2  C   UNL     1       1.650   7.351  20.933  0.00  0.00    +0.000 A 
ATOM      3  C   UNL     1       0.903   8.398  21.485  0.00  0.00    +0.000 A 
ATOM      4  C   UNL     1       0.627   9.533  20.712  0.00  0.00    +0.000 A 
ATOM      5  C   UNL     1      -0.145  10.677  21.269  0.00  0.00    +0.000 A 
ATOM      6  O   UNL     1      -0.544  10.617  22.429  0.00  0.00    +0.000 OA
ATOM      7  N   UNL     1      -0.342  11.739  20.398  0.00  0.00    +0.000 N 
ATOM      8  C   UNL     1      -1.016  12.923  20.675  0.00  0.00    +0.000 A 
ATOM      9  C   UNL     1      -1.055  13.784  19.645  0.00  0.00    +0.000 A 
ATOM     10  S   UNL     1      -0.241  13.162  18.246  0.00  0.00    +0.000 S 
ATOM     11  C   UNL     1       0.158  11.689  19.110  0.00  0.00    +0.000 A 
ATOM     12  N   UNL     1       0.826  10.729  18.576  0.00  0.00    +0.000 NA
ATOM     13  C   UNL     1       1.078   9.619  19.390  0.00  0.00    +0.000 A 
ATOM     14  C   UNL     1       1.820   8.567  18.847  0.00  0.00    +0.000 A 
ENDROOT
BRANCH   8  15
ATOM     15  C   UNL     1      -1.665  13.253  21.943  0.00  0.00    +0.000 A 
ATOM     16  C   UNL     1      -2.993  12.879  22.167  0.00  0.00    +0.000 A 
ATOM     17  C   UNL     1      -3.660  13.303  23.321  0.00  0.00    +0.000 A 
ATOM     18 CL   UNL     1      -5.318  12.842  23.514  0.00  0.00    +0.000 Cl
ATOM     19  C   UNL     1      -3.014  14.083  24.298  0.00  0.00    +0.000 A 
ATOM     20  C   UNL     1      -1.686  14.472  24.041  0.00  0.00    +0.000 A 
ATOM     21 CL   UNL     1      -0.837  15.494  25.152  0.00  0.00    +0.000 Cl
ATOM     22  C   UNL     1      -1.013  14.053  22.887  0.00  0.00    +0.000 A 
BRANCH  19  23
ATOM     23  N   UNL     1      -3.744  14.656  25.366  0.00  0.00    +0.000 N 
ATOM     24  H   UNL     1      -3.436  15.598  25.600  0.00  0.00    +0.000 HD
ATOM     25  H   UNL     1      -4.752  14.575  25.252  0.00  0.00    +0.000 HD
ENDBRANCH  19  23
ENDBRANCH   8  15
BRANCH   1  27
ATOM     26  N   UNL     1       3.567   5.510  19.964  0.00  0.00    +0.000 N 
ATOM     27  C   UNL     1       2.940   6.328  19.066  0.00  0.00    +0.000 C 
ATOM     28  O   UNL     1       3.016   6.127  17.861  0.00  0.00    +0.000 OA
ATOM     29  H   UNL     1       4.046   4.702  19.588  0.00  0.00    +0.000 HD
ATOM     30  H   UNL     1       3.357   5.509  20.952  0.00  0.00    +0.000 HD
ENDBRANCH   1  27
TORSDOF 3
ENDMDL
MODEL 6
REMARK VINA RESULT:      -7.0      6.182      7.891
REMARK  Name = 
REMARK  3 active torsions:
REMARK  status: ('A' for Active; 'I' for Inactive)
REMARK    1  A    between atoms: C_2  and  C_4
REMARK    2  A    between atoms: C_11  and  C_12
REMARK    3  A    between atoms: C_16  and  N_17
REMARK                            x       y       z     vdW  Elec       q    Type
REMARK                         _______ _______ _______ _____ _____    ______ ____
ROOT
ATOM      1  C   UNL     1       5.643   5.321  16.415  0.00  0.00    +0.000 A 
ATOM      2  C   UNL     1       5.368   6.487  15.688  0.00  0.00    +0.000 A 
ATOM      3  C   UNL     1       4.434   7.412  16.171  0.00  0.00    +0.000 A 
ATOM      4  C   UNL     1       3.784   7.169  17.387  0.00  0.00    +0.000 A 
ATOM      5  C   UNL     1       2.768   8.116  17.923  0.00  0.00    +0.000 A 
ATOM      6  O   UNL     1       2.502   9.128  17.280  0.00  0.00    +0.000 OA
ATOM      7  N   UNL     1       2.199   7.751  19.134  0.00  0.00    +0.000 N 
ATOM      8  C   UNL     1       1.226   8.453  19.836  0.00  0.00    +0.000 A 
ATOM      9  C   UNL     1       0.850   7.867  20.985  0.00  0.00    +0.000 A 
ATOM     10  S   UNL     1       1.700   6.382  21.265  0.00  0.00    +0.000 S 
ATOM     11  C   UNL     1       2.584   6.582  19.764  0.00  0.00    +0.000 A 
ATOM     12  N   UNL     1       3.454   5.731  19.351  0.00  0.00    +0.000 NA
ATOM     13  C   UNL     1       4.074   6.018  18.129  0.00  0.00    +0.000 A 
ATOM     14  C   UNL     1       5.010   5.103  17.642  0.00  0.00    +0.000 A 
ENDROOT
BRANCH   8  15
ATOM     15  C   UNL     1       0.639   9.728  19.427  0.00  0.00    +0.000 A 
ATOM     16  C   UNL     1      -0.493   9.745  18.606  0.00  0.00    +0.000 A 
ATOM     17  C   UNL     1      -0.982  10.957  18.106  0.00  0.00    +0.000 A 
ATOM     18 CL   UNL     1      -2.360  10.902  17.058  0.00  0.00    +0.000 Cl
ATOM     19  C   UNL     1      -0.380  12.185  18.434  0.00  0.00    +0.000 A 
ATOM     20  C   UNL     1       0.774  12.144  19.239  0.00  0.00    +0.000 A 
ATOM     21 CL   UNL     1       1.625  13.599  19.632  0.00  0.00    +0.000 Cl
ATOM     22  C   UNL     1       1.271  10.935  19.742  0.00  0.00    +0.000 A 
BRANCH  19  23
ATOM     23  N   UNL     1      -0.767  13.378  17.782  0.00  0.00    +0.000 N 
ATOM     24  H   UNL     1      -1.410  13.945  18.334  0.00  0.00    +0.000 HD
ATOM     25  H   UNL     1       0.018  13.905  17.407  0.00  0.00    +0.000 HD
ENDBRANCH  19  23
ENDBRANCH   8  15
BRANCH   1  27
ATOM     26  N   UNL     1       6.181   3.523  14.863  0.00  0.00    +0.000 N 
ATOM     27  C   UNL     1       6.618   4.343  15.867  0.00  0.00    +0.000 C 
ATOM     28  O   UNL     1       7.773   4.297  16.268  0.00  0.00    +0.000 OA
ATOM     29  H   UNL     1       6.872   2.921  14.433  0.00  0.00    +0.000 HD
ATOM     30  H   UNL     1       5.318   3.674  14.363  0.00  0.00    +0.000 HD
ENDBRANCH   1  27
TORSDOF 3
ENDMDL
MODEL 7
REMARK VINA RESULT:      -6.9      7.301     10.006
REMARK  Name = 
REMARK  3 active torsions:
REMARK  status: ('A' for Active; 'I' for Inactive)
REMARK    1  A    between atoms: C_2  and  C_4
REMARK    2  A    between atoms: C_11  and  C_12
REMARK    3  A    between atoms: C_16  and  N_17
REMARK                            x       y       z     vdW  Elec       q    Type
REMARK                         _______ _______ _______ _____ _____    ______ ____
ROOT
ATOM      1  C   UNL     1      -0.122  10.324  20.190  0.00  0.00    +0.000 A 
ATOM      2  C   UNL     1       0.698  10.697  19.117  0.00  0.00    +0.000 A 
ATOM      3  C   UNL     1       1.651   9.802  18.616  0.00  0.00    +0.000 A 
ATOM      4  C   UNL     1       1.774   8.530  19.189  0.00  0.00    +0.000 A 
ATOM      5  C   UNL     1       2.791   7.559  18.700  0.00  0.00    +0.000 A 
ATOM      6  O   UNL     1       3.531   7.887  17.776  0.00  0.00    +0.000 OA
ATOM      7  N   UNL     1       2.809   6.338  19.359  0.00  0.00    +0.000 N 
ATOM      8  C   UNL     1       3.663   5.271  19.103  0.00  0.00    +0.000 A 
ATOM      9  C   UNL     1       3.461   4.207  19.897  0.00  0.00    +0.000 A 
ATOM     10  S   UNL     1       2.176   4.474  21.029  0.00  0.00    +0.000 S 
ATOM     11  C   UNL     1       1.921   6.086  20.389  0.00  0.00    +0.000 A 
ATOM     12  N   UNL     1       1.023   6.883  20.849  0.00  0.00    +0.000 NA
ATOM     13  C   UNL     1       0.942   8.143  20.245  0.00  0.00    +0.000 A 
ATOM     14  C   UNL     1      -0.009   9.041  20.736  0.00  0.00    +0.000 A 
ENDROOT
BRANCH   8  15
ATOM     15  C   UNL     1       4.692   5.239  18.065  0.00  0.00    +0.000 A 
ATOM     16  C   UNL     1       5.818   6.060  18.172  0.00  0.00    +0.000 A 
ATOM     17  C   UNL     1       6.741   6.131  17.124  0.00  0.00    +0.000 A 
ATOM     18 CL   UNL     1       8.090   7.203  17.303  0.00  0.00    +0.000 Cl
ATOM     19  C   UNL     1       6.587   5.363  15.955  0.00  0.00    +0.000 A 
ATOM     20  C   UNL     1       5.433   4.563  15.856  0.00  0.00    +0.000 A 
ATOM     21 CL   UNL     1       5.121   3.642  14.423  0.00  0.00    +0.000 Cl
ATOM     22  C   UNL     1       4.503   4.489  16.900  0.00  0.00    +0.000 A 
BRANCH  19  23
ATOM     23  N   UNL     1       7.421   5.576  14.833  0.00  0.00    +0.000 N 
ATOM     24  H   UNL     1       8.309   5.081  14.895  0.00  0.00    +0.000 HD
ATOM     25  H   UNL     1       6.942   5.440  13.945  0.00  0.00    +0.000 HD
ENDBRANCH  19  23
ENDBRANCH   8  15
BRANCH   1  27
ATOM     26  N   UNL     1      -1.894  11.949  19.810  0.00  0.00    +0.000 N 
ATOM     27  C   UNL     1      -1.107  11.302  20.721  0.00  0.00    +0.000 C 
ATOM     28  O   UNL     1      -1.235  11.493  21.923  0.00  0.00    +0.000 OA
ATOM     29  H   UNL     1      -2.622  12.547  20.180  0.00  0.00    +0.000 HD
ATOM     30  H   UNL     1      -1.970  11.666  18.844  0.00  0.00    +0.000 HD
ENDBRANCH   1  27
TORSDOF 3
ENDMDL
MODEL 8
REMARK VINA RESULT:      -6.8      5.863      8.911
REMARK  Name = 
REMARK  3 active torsions:
REMARK  status: ('A' for Active; 'I' for Inactive)
REMARK    1  A    between atoms: C_2  and  C_4
REMARK    2  A    between atoms: C_11  and  C_12
REMARK    3  A    between atoms: C_16  and  N_17
REMARK                            x       y       z     vdW  Elec       q    Type
REMARK                         _______ _______ _______ _____ _____    ______ ____
ROOT
ATOM      1  C   UNL     1      -1.284  11.455  22.714  0.00  0.00    +0.000 A 
ATOM      2  C   UNL     1      -1.081  10.265  23.426  0.00  0.00    +0.000 A 
ATOM      3  C   UNL     1      -0.320   9.232  22.864  0.00  0.00    +0.000 A 
ATOM      4  C   UNL     1       0.242   9.399  21.593  0.00  0.00    +0.000 A 
ATOM      5  C   UNL     1       1.037   8.315  20.953  0.00  0.00    +0.000 A 
ATOM      6  O   UNL     1       1.200   7.260  21.558  0.00  0.00    +0.000 OA
ATOM      7  N   UNL     1       1.531   8.611  19.690  0.00  0.00    +0.000 N 
ATOM      8  C   UNL     1       2.290   7.773  18.881  0.00  0.00    +0.000 A 
ATOM      9  C   UNL     1       2.634   8.315  17.702  0.00  0.00    +0.000 A 
ATOM     10  S   UNL     1       2.024   9.928  17.526  0.00  0.00    +0.000 S 
ATOM     11  C   UNL     1       1.281   9.841  19.111  0.00  0.00    +0.000 A 
ATOM     12  N   UNL     1       0.606  10.811  19.617  0.00  0.00    +0.000 NA
ATOM     13  C   UNL     1       0.062  10.594  20.888  0.00  0.00    +0.000 A 
ATOM     14  C   UNL     1      -0.694  11.621  21.458  0.00  0.00    +0.000 A 
ENDROOT
BRANCH   8  15
ATOM     15  C   UNL     1       2.726   6.422  19.232  0.00  0.00    +0.000 A 
ATOM     16  C   UNL     1       4.066   6.057  19.075  0.00  0.00    +0.000 A 
ATOM     17  C   UNL     1       4.466   4.732  19.284  0.00  0.00    +0.000 A 
ATOM     18 CL   UNL     1       6.133   4.339  19.027  0.00  0.00    +0.000 Cl
ATOM     19  C   UNL     1       3.550   3.743  19.685  0.00  0.00    +0.000 A 
ATOM     20  C   UNL     1       2.201   4.124  19.812  0.00  0.00    +0.000 A 
ATOM     21 CL   UNL     1       0.991   2.958  20.229  0.00  0.00    +0.000 Cl
ATOM     22  C   UNL     1       1.793   5.447  19.602  0.00  0.00    +0.000 A 
BRANCH  19  23
ATOM     23  N   UNL     1       3.924   2.380  19.717  0.00  0.00    +0.000 N 
ATOM     24  H   UNL     1       4.625   2.141  19.018  0.00  0.00    +0.000 HD
ATOM     25  H   UNL     1       4.153   2.048  20.651  0.00  0.00    +0.000 HD
ENDBRANCH  19  23
ENDBRANCH   8  15
BRANCH   1  27
ATOM     26  N   UNL     1      -3.412  12.207  23.629  0.00  0.00    +0.000 N 
ATOM     27  C   UNL     1      -2.118  12.525  23.321  0.00  0.00    +0.000 C 
ATOM     28  O   UNL     1      -1.658  13.631  23.569  0.00  0.00    +0.000 OA
ATOM     29  H   UNL     1      -3.948  12.909  24.123  0.00  0.00    +0.000 HD
ATOM     30  H   UNL     1      -3.760  11.260  23.642  0.00  0.00    +0.000 HD
ENDBRANCH   1  27
TORSDOF 3
ENDMDL
MODEL 9
REMARK VINA RESULT:      -6.8      7.901     10.717
REMARK  Name = 
REMARK  3 active torsions:
REMARK  status: ('A' for Active; 'I' for Inactive)
REMARK    1  A    between atoms: C_2  and  C_4
REMARK    2  A    between atoms: C_11  and  C_12
REMARK    3  A    between atoms: C_16  and  N_17
REMARK                            x       y       z     vdW  Elec       q    Type
REMARK                         _______ _______ _______ _____ _____    ______ ____
ROOT
ATOM      1  C   UNL     1       0.300   9.083  21.070  0.00  0.00    +0.000 A 
ATOM      2  C   UNL     1       1.049   9.672  20.043  0.00  0.00    +0.000 A 
ATOM      3  C   UNL     1       1.970   8.907  19.317  0.00  0.00    +0.000 A 
ATOM      4  C   UNL     1       2.130   7.548  19.618  0.00  0.00    +0.000 A 
ATOM      5  C   UNL     1       3.115   6.707  18.884  0.00  0.00    +0.000 A 
ATOM      6  O   UNL     1       3.794   7.221  18.000  0.00  0.00    +0.000 OA
ATOM      7  N   UNL     1       3.176   5.381  19.287  0.00  0.00    +0.000 N 
ATOM      8  C   UNL     1       4.013   4.397  18.772  0.00  0.00    +0.000 A 
ATOM      9  C   UNL     1       3.864   3.194  19.350  0.00  0.00    +0.000 A 
ATOM     10  S   UNL     1       2.652   3.215  20.590  0.00  0.00    +0.000 S 
ATOM     11  C   UNL     1       2.355   4.918  20.299  0.00  0.00    +0.000 A 
ATOM     12  N   UNL     1       1.488   5.596  20.962  0.00  0.00    +0.000 NA
ATOM     13  C   UNL     1       1.367   6.949  20.626  0.00  0.00    +0.000 A 
ATOM     14  C   UNL     1       0.448   7.719  21.343  0.00  0.00    +0.000 A 
ENDROOT
BRANCH   8  15
ATOM     15  C   UNL     1       4.975   4.584  17.686  0.00  0.00    +0.000 A 
ATOM     16  C   UNL     1       5.990   5.538  17.809  0.00  0.00    +0.000 A 
ATOM     17  C   UNL     1       6.832   5.814  16.726  0.00  0.00    +0.000 A 
ATOM     18 CL   UNL     1       8.039   7.039  16.931  0.00  0.00    +0.000 Cl
ATOM     19  C   UNL     1       6.709   5.126  15.505  0.00  0.00    +0.000 A 
ATOM     20  C   UNL     1       5.664   4.189  15.394  0.00  0.00    +0.000 A 
ATOM     21 CL   UNL     1       5.390   3.350  13.904  0.00  0.00    +0.000 Cl
ATOM     22  C   UNL     1       4.815   3.909  16.471  0.00  0.00    +0.000 A 
BRANCH  19  23
ATOM     23  N   UNL     1       7.440   5.536  14.366  0.00  0.00    +0.000 N 
ATOM     24  H   UNL     1       8.408   5.218  14.377  0.00  0.00    +0.000 HD
ATOM     25  H   UNL     1       6.960   5.345  13.490  0.00  0.00    +0.000 HD
ENDBRANCH  19  23
ENDBRANCH   8  15
BRANCH   1  27
ATOM     26  N   UNL     1      -0.896   9.557  23.138  0.00  0.00    +0.000 N 
ATOM     27  C   UNL     1      -0.651   9.923  21.844  0.00  0.00    +0.000 C 
ATOM     28  O   UNL     1      -1.163  10.922  21.357  0.00  0.00    +0.000 OA
ATOM     29  H   UNL     1      -1.473  10.181  23.687  0.00  0.00    +0.000 HD
ATOM     30  H   UNL     1      -0.337   8.880  23.636  0.00  0.00    +0.000 HD
ENDBRANCH   1  27
TORSDOF 3
ENDMDL
