MODEL 1
REMARK VINA RESULT:      -6.3      0.000      0.000
REMARK  Name = 
REMARK  7 active torsions:
REMARK  status: ('A' for Active; 'I' for Inactive)
REMARK    1  A    between atoms: C_1  and  C_2
REMARK    2  A    between atoms: C_15  and  C_16
REMARK    3  A    between atoms: C_17  and  O_18
REMARK    4  A    between atoms: C_17  and  C_19
REMARK    5  A    between atoms: C_19  and  C_21
REMARK    6  A    between atoms: C_21  and  O_22
REMARK    7  A    between atoms: C_25  and  O_26
REMARK                            x       y       z     vdW  Elec       q    Type
REMARK                         _______ _______ _______ _____ _____    ______ ____
ROOT
ATOM      1  C   UNL     1       4.685   3.019  16.332  0.00  0.00    +0.000 C 
ATOM      2  C   UNL     1       4.791   4.558  16.626  0.00  0.00    +0.000 C 
ATOM      3  C   UNL     1       4.778   5.257  15.230  0.00  0.00    +0.000 C 
ATOM      4  C   UNL     1       5.971   4.833  14.361  0.00  0.00    +0.000 C 
ATOM      5  C   UNL     1       7.274   5.088  15.078  0.00  0.00    +0.000 C 
ATOM      6  O   UNL     1       8.319   5.339  14.483  0.00  0.00    +0.000 OA
ATOM      7  C   UNL     1       7.280   5.038  16.553  0.00  0.00    +0.000 C 
ATOM      8  C   UNL     1       6.153   4.888  17.271  0.00  0.00    +0.000 C 
ATOM      9  C   UNL     1       6.286   5.156  18.758  0.00  0.00    +0.000 C 
ATOM     10  C   UNL     1       5.040   5.764  19.401  0.00  0.00    +0.000 C 
ATOM     11  C   UNL     1       3.853   4.888  19.039  0.00  0.00    +0.000 C 
ATOM     12  C   UNL     1       3.539   5.048  17.511  0.00  0.00    +0.000 C 
ATOM     13  C   UNL     1       2.278   4.291  17.099  0.00  0.00    +0.000 C 
ATOM     14  C   UNL     1       1.223   4.226  18.161  0.00  0.00    +0.000 C 
ATOM     15  C   UNL     1       1.693   3.836  19.586  0.00  0.00    +0.000 C 
ATOM     16  C   UNL     1       0.283   3.939  20.317  0.00  0.00    +0.000 C 
ATOM     17  C   UNL     1       2.524   2.465  20.020  0.00  0.00    +0.000 C 
ATOM     18  C   UNL     1       2.472   2.751  21.536  0.00  0.00    +0.000 C 
ATOM     19  C   UNL     1       2.882   4.280  21.560  0.00  0.00    +0.000 C 
ATOM     20  C   UNL     1       2.677   4.874  20.100  0.00  0.00    +0.000 C 
ENDROOT
BRANCH  17  21
ATOM     21  O   UNL     1       1.809   1.365  19.512  0.00  0.00    +0.000 OA
ATOM     22  H   UNL     1       2.417   0.599  19.536  0.00  0.00    +0.000 HD
ENDBRANCH  17  21
BRANCH  17  23
ATOM     23  C   UNL     1       4.134   2.065  20.118  0.00  0.00    +0.000 C 
ATOM     24  O   UNL     1       4.793   1.959  21.184  0.00  0.00    +0.000 OA
BRANCH  23  25
ATOM     25  C   UNL     1       4.825   1.460  18.894  0.00  0.00    +0.000 C 
BRANCH  25  26
ATOM     26  O   UNL     1       4.078   0.337  18.407  0.00  0.00    +0.000 OA
ATOM     27  H   UNL     1       4.125   0.370  17.430  0.00  0.00    +0.000 HD
ENDBRANCH  25  26
ENDBRANCH  23  25
ENDBRANCH  17  23
BRANCH  20  28
ATOM     28  O   UNL     1       2.115   6.172  20.234  0.00  0.00    +0.000 OA
ATOM     29  H   UNL     1       1.304   6.236  19.706  0.00  0.00    +0.000 HD
ENDBRANCH  20  28
TORSDOF 5
ENDMDL
MODEL 2
REMARK VINA RESULT:      -5.9      9.994     12.699
REMARK  Name = 
REMARK  7 active torsions:
REMARK  status: ('A' for Active; 'I' for Inactive)
REMARK    1  A    between atoms: C_1  and  C_2
REMARK    2  A    between atoms: C_15  and  C_16
REMARK    3  A    between atoms: C_17  and  O_18
REMARK    4  A    between atoms: C_17  and  C_19
REMARK    5  A    between atoms: C_19  and  C_21
REMARK    6  A    between atoms: C_21  and  O_22
REMARK    7  A    between atoms: C_25  and  O_26
REMARK                            x       y       z     vdW  Elec       q    Type
REMARK                         _______ _______ _______ _____ _____    ______ ____
ROOT
ATOM      1  C   UNL     1       7.150  12.975  22.000  0.00  0.00    +0.000 C 
ATOM      2  C   UNL     1       8.543  13.188  22.693  0.00  0.00    +0.000 C 
ATOM      3  C   UNL     1       8.509  12.316  23.987  0.00  0.00    +0.000 C 
ATOM      4  C   UNL     1       7.399  12.758  24.953  0.00  0.00    +0.000 C 
ATOM      5  C   UNL     1       7.537  14.221  25.294  0.00  0.00    +0.000 C 
ATOM      6  O   UNL     1       7.162  14.688  26.367  0.00  0.00    +0.000 OA
ATOM      7  C   UNL     1       8.153  15.115  24.295  0.00  0.00    +0.000 C 
ATOM      8  C   UNL     1       8.693  14.654  23.153  0.00  0.00    +0.000 C 
ATOM      9  C   UNL     1       9.544  15.647  22.384  0.00  0.00    +0.000 C 
ATOM     10  C   UNL     1      10.722  15.021  21.641  0.00  0.00    +0.000 C 
ATOM     11  C   UNL     1      10.187  13.884  20.789  0.00  0.00    +0.000 C 
ATOM     12  C   UNL     1       9.733  12.708  21.722  0.00  0.00    +0.000 C 
ATOM     13  C   UNL     1       9.297  11.477  20.930  0.00  0.00    +0.000 C 
ATOM     14  C   UNL     1      10.040  11.277  19.644  0.00  0.00    +0.000 C 
ATOM     15  C   UNL     1      10.207  12.522  18.735  0.00  0.00    +0.000 C 
ATOM     16  C   UNL     1      11.051  11.834  17.574  0.00  0.00    +0.000 C 
ATOM     17  C   UNL     1       8.995  13.489  18.138  0.00  0.00    +0.000 C 
ATOM     18  C   UNL     1       9.930  14.352  17.264  0.00  0.00    +0.000 C 
ATOM     19  C   UNL     1      11.101  14.645  18.288  0.00  0.00    +0.000 C 
ATOM     20  C   UNL     1      11.009  13.585  19.469  0.00  0.00    +0.000 C 
ENDROOT
BRANCH  17  21
ATOM     21  O   UNL     1       8.061  12.647  17.507  0.00  0.00    +0.000 OA
ATOM     22  H   UNL     1       7.181  13.051  17.643  0.00  0.00    +0.000 HD
ENDBRANCH  17  21
BRANCH  17  23
ATOM     23  C   UNL     1       8.211  14.844  18.694  0.00  0.00    +0.000 C 
ATOM     24  O   UNL     1       8.665  16.016  18.649  0.00  0.00    +0.000 OA
BRANCH  23  25
ATOM     25  C   UNL     1       6.712  14.767  18.991  0.00  0.00    +0.000 C 
BRANCH  25  26
ATOM     26  O   UNL     1       5.972  14.632  17.769  0.00  0.00    +0.000 OA
ATOM     27  H   UNL     1       6.613  14.368  17.079  0.00  0.00    +0.000 HD
ENDBRANCH  25  26
ENDBRANCH  23  25
ENDBRANCH  17  23
BRANCH  20  28
ATOM     28  O   UNL     1      12.332  13.177  19.790  0.00  0.00    +0.000 OA
ATOM     29  H   UNL     1      12.476  13.250  20.746  0.00  0.00    +0.000 HD
ENDBRANCH  20  28
TORSDOF 5
ENDMDL
MODEL 3
REMARK VINA RESULT:      -5.9     10.020     12.799
REMARK  Name = 
REMARK  7 active torsions:
REMARK  status: ('A' for Active; 'I' for Inactive)
REMARK    1  A    between atoms: C_1  and  C_2
REMARK    2  A    between atoms: C_15  and  C_16
REMARK    3  A    between atoms: C_17  and  O_18
REMARK    4  A    between atoms: C_17  and  C_19
REMARK    5  A    between atoms: C_19  and  C_21
REMARK    6  A    between atoms: C_21  and  O_22
REMARK    7  A    between atoms: C_25  and  O_26
REMARK                            x       y       z     vdW  Elec       q    Type
REMARK                         _______ _______ _______ _____ _____    ______ ____
ROOT
ATOM      1  C   UNL     1      10.862  12.334  19.021  0.00  0.00    +0.000 C 
ATOM      2  C   UNL     1       9.335  12.387  19.386  0.00  0.00    +0.000 C 
ATOM      3  C   UNL     1       9.073  11.141  20.289  0.00  0.00    +0.000 C 
ATOM      4  C   UNL     1       9.363   9.824  19.554  0.00  0.00    +0.000 C 
ATOM      5  C   UNL     1       8.569   9.739  18.274  0.00  0.00    +0.000 C 
ATOM      6  O   UNL     1       8.205   8.668  17.792  0.00  0.00    +0.000 OA
ATOM      7  C   UNL     1       8.215  10.995  17.587  0.00  0.00    +0.000 C 
ATOM      8  C   UNL     1       8.474  12.203  18.119  0.00  0.00    +0.000 C 
ATOM      9  C   UNL     1       7.789  13.375  17.444  0.00  0.00    +0.000 C 
ATOM     10  C   UNL     1       7.405  14.509  18.393  0.00  0.00    +0.000 C 
ATOM     11  C   UNL     1       8.642  14.895  19.184  0.00  0.00    +0.000 C 
ATOM     12  C   UNL     1       8.996  13.742  20.186  0.00  0.00    +0.000 C 
ATOM     13  C   UNL     1      10.159  14.112  21.105  0.00  0.00    +0.000 C 
ATOM     14  C   UNL     1      10.228  15.567  21.457  0.00  0.00    +0.000 C 
ATOM     15  C   UNL     1      10.070  16.574  20.288  0.00  0.00    +0.000 C 
ATOM     16  C   UNL     1      10.174  17.915  21.139  0.00  0.00    +0.000 C 
ATOM     17  C   UNL     1      10.982  16.641  18.902  0.00  0.00    +0.000 C 
ATOM     18  C   UNL     1      10.323  17.932  18.370  0.00  0.00    +0.000 C 
ATOM     19  C   UNL     1       8.794  17.600  18.606  0.00  0.00    +0.000 C 
ATOM     20  C   UNL     1       8.699  16.407  19.653  0.00  0.00    +0.000 C 
ENDROOT
BRANCH  17  21
ATOM     21  O   UNL     1      12.333  16.679  19.291  0.00  0.00    +0.000 OA
ATOM     22  H   UNL     1      12.820  17.137  18.577  0.00  0.00    +0.000 HD
ENDBRANCH  17  21
BRANCH  17  23
ATOM     23  C   UNL     1      10.873  15.930  17.404  0.00  0.00    +0.000 C 
ATOM     24  O   UNL     1      10.414  16.480  16.370  0.00  0.00    +0.000 OA
BRANCH  23  25
ATOM     25  C   UNL     1      11.659  14.646  17.131  0.00  0.00    +0.000 C 
BRANCH  25  26
ATOM     26  O   UNL     1      11.165  14.005  15.946  0.00  0.00    +0.000 OA
ATOM     27  H   UNL     1      10.222  14.253  15.864  0.00  0.00    +0.000 HD
ENDBRANCH  25  26
ENDBRANCH  23  25
ENDBRANCH  17  23
BRANCH  20  28
ATOM     28  O   UNL     1       7.625  16.692  20.539  0.00  0.00    +0.000 OA
ATOM     29  H   UNL     1       7.972  17.031  21.379  0.00  0.00    +0.000 HD
ENDBRANCH  20  28
TORSDOF 5
ENDMDL
MODEL 4
REMARK VINA RESULT:      -5.7      2.060      6.036
REMARK  Name = 
REMARK  7 active torsions:
REMARK  status: ('A' for Active; 'I' for Inactive)
REMARK    1  A    between atoms: C_1  and  C_2
REMARK    2  A    between atoms: C_15  and  C_16
REMARK    3  A    between atoms: C_17  and  O_18
REMARK    4  A    between atoms: C_17  and  C_19
REMARK    5  A    between atoms: C_19  and  C_21
REMARK    6  A    between atoms: C_21  and  O_22
REMARK    7  A    between atoms: C_25  and  O_26
REMARK                            x       y       z     vdW  Elec       q    Type
REMARK                         _______ _______ _______ _____ _____    ______ ____
ROOT
ATOM      1  C   UNL     1       3.848   5.604  20.083  0.00  0.00    +0.000 C 
ATOM      2  C   UNL     1       3.059   4.554  19.221  0.00  0.00    +0.000 C 
ATOM      3  C   UNL     1       1.558   4.728  19.612  0.00  0.00    +0.000 C 
ATOM      4  C   UNL     1       1.310   4.438  21.100  0.00  0.00    +0.000 C 
ATOM      5  C   UNL     1       1.805   3.060  21.466  0.00  0.00    +0.000 C 
ATOM      6  O   UNL     1       1.299   2.395  22.367  0.00  0.00    +0.000 OA
ATOM      7  C   UNL     1       2.935   2.498  20.702  0.00  0.00    +0.000 C 
ATOM      8  C   UNL     1       3.456   3.119  19.629  0.00  0.00    +0.000 C 
ATOM      9  C   UNL     1       4.398   2.283  18.783  0.00  0.00    +0.000 C 
ATOM     10  C   UNL     1       4.350   2.599  17.290  0.00  0.00    +0.000 C 
ATOM     11  C   UNL     1       4.542   4.096  17.123  0.00  0.00    +0.000 C 
ATOM     12  C   UNL     1       3.269   4.843  17.652  0.00  0.00    +0.000 C 
ATOM     13  C   UNL     1       3.337   6.349  17.403  0.00  0.00    +0.000 C 
ATOM     14  C   UNL     1       4.065   6.733  16.150  0.00  0.00    +0.000 C 
ATOM     15  C   UNL     1       5.429   6.041  15.898  0.00  0.00    +0.000 C 
ATOM     16  C   UNL     1       5.765   6.724  14.499  0.00  0.00    +0.000 C 
ATOM     17  C   UNL     1       6.741   6.025  16.916  0.00  0.00    +0.000 C 
ATOM     18  C   UNL     1       7.674   5.302  15.921  0.00  0.00    +0.000 C 
ATOM     19  C   UNL     1       6.722   4.143  15.416  0.00  0.00    +0.000 C 
ATOM     20  C   UNL     1       5.223   4.541  15.764  0.00  0.00    +0.000 C 
ENDROOT
BRANCH  17  21
ATOM     21  O   UNL     1       7.020   7.361  17.260  0.00  0.00    +0.000 OA
ATOM     22  H   UNL     1       6.191   7.738  17.616  0.00  0.00    +0.000 HD
ENDBRANCH  17  21
BRANCH  17  23
ATOM     23  C   UNL     1       7.239   5.034  18.153  0.00  0.00    +0.000 C 
ATOM     24  O   UNL     1       8.093   4.117  18.051  0.00  0.00    +0.000 OA
BRANCH  23  25
ATOM     25  C   UNL     1       6.914   5.425  19.596  0.00  0.00    +0.000 C 
BRANCH  25  26
ATOM     26  O   UNL     1       8.108   5.424  20.391  0.00  0.00    +0.000 OA
ATOM     27  H   UNL     1       8.861   5.365  19.768  0.00  0.00    +0.000 HD
ENDBRANCH  25  26
ENDBRANCH  23  25
ENDBRANCH  17  23
BRANCH  20  28
ATOM     28  O   UNL     1       4.408   4.177  14.658  0.00  0.00    +0.000 OA
ATOM     29  H   UNL     1       3.514   4.533  14.777  0.00  0.00    +0.000 HD
ENDBRANCH  20  28
TORSDOF 5
ENDMDL
MODEL 5
REMARK VINA RESULT:      -5.7      9.203     12.175
REMARK  Name = 
REMARK  7 active torsions:
REMARK  status: ('A' for Active; 'I' for Inactive)
REMARK    1  A    between atoms: C_1  and  C_2
REMARK    2  A    between atoms: C_15  and  C_16
REMARK    3  A    between atoms: C_17  and  O_18
REMARK    4  A    between atoms: C_17  and  C_19
REMARK    5  A    between atoms: C_19  and  C_21
REMARK    6  A    between atoms: C_21  and  O_22
REMARK    7  A    between atoms: C_25  and  O_26
REMARK                            x       y       z     vdW  Elec       q    Type
REMARK                         _______ _______ _______ _____ _____    ______ ____
ROOT
ATOM      1  C   UNL     1      -1.941  13.671  23.136  0.00  0.00    +0.000 C 
ATOM      2  C   UNL     1      -2.808  14.098  21.897  0.00  0.00    +0.000 C 
ATOM      3  C   UNL     1      -3.350  15.523  22.232  0.00  0.00    +0.000 C 
ATOM      4  C   UNL     1      -4.238  15.524  23.485  0.00  0.00    +0.000 C 
ATOM      5  C   UNL     1      -5.370  14.538  23.339  0.00  0.00    +0.000 C 
ATOM      6  O   UNL     1      -6.457  14.692  23.892  0.00  0.00    +0.000 OA
ATOM      7  C   UNL     1      -5.157  13.349  22.492  0.00  0.00    +0.000 C 
ATOM      8  C   UNL     1      -4.039  13.178  21.763  0.00  0.00    +0.000 C 
ATOM      9  C   UNL     1      -4.099  12.073  20.726  0.00  0.00    +0.000 C 
ATOM     10  C   UNL     1      -3.293  12.356  19.459  0.00  0.00    +0.000 C 
ATOM     11  C   UNL     1      -1.882  12.731  19.876  0.00  0.00    +0.000 C 
ATOM     12  C   UNL     1      -1.904  14.138  20.567  0.00  0.00    +0.000 C 
ATOM     13  C   UNL     1      -0.500  14.638  20.903  0.00  0.00    +0.000 C 
ATOM     14  C   UNL     1       0.557  14.205  19.933  0.00  0.00    +0.000 C 
ATOM     15  C   UNL     1       0.557  12.709  19.524  0.00  0.00    +0.000 C 
ATOM     16  C   UNL     1       1.779  12.760  18.506  0.00  0.00    +0.000 C 
ATOM     17  C   UNL     1       0.645  11.399  20.542  0.00  0.00    +0.000 C 
ATOM     18  C   UNL     1       0.734  10.355  19.408  0.00  0.00    +0.000 C 
ATOM     19  C   UNL     1      -0.416  10.864  18.448  0.00  0.00    +0.000 C 
ATOM     20  C   UNL     1      -0.751  12.371  18.827  0.00  0.00    +0.000 C 
ENDROOT
BRANCH  17  21
ATOM     21  O   UNL     1       1.761  11.592  21.377  0.00  0.00    +0.000 OA
ATOM     22  H   UNL     1       1.447  12.098  22.153  0.00  0.00    +0.000 HD
ENDBRANCH  17  21
BRANCH  17  23
ATOM     23  C   UNL     1      -0.479  10.476  21.347  0.00  0.00    +0.000 C 
ATOM     24  O   UNL     1      -0.987   9.410  20.915  0.00  0.00    +0.000 OA
BRANCH  23  25
ATOM     25  C   UNL     1      -0.703  10.714  22.841  0.00  0.00    +0.000 C 
BRANCH  25  26
ATOM     26  O   UNL     1       0.246   9.963  23.611  0.00  0.00    +0.000 OA
ATOM     27  H   UNL     1       1.123  10.116  23.204  0.00  0.00    +0.000 HD
ENDBRANCH  25  26
ENDBRANCH  23  25
ENDBRANCH  17  23
BRANCH  20  28
ATOM     28  O   UNL     1      -0.951  13.089  17.617  0.00  0.00    +0.000 OA
ATOM     29  H   UNL     1      -1.847  13.460  17.598  0.00  0.00    +0.000 HD
ENDBRANCH  20  28
TORSDOF 5
ENDMDL
MODEL 6
REMARK VINA RESULT:      -5.7     11.241     13.737
REMARK  Name = 
REMARK  7 active torsions:
REMARK  status: ('A' for Active; 'I' for Inactive)
REMARK    1  A    between atoms: C_1  and  C_2
REMARK    2  A    between atoms: C_15  and  C_16
REMARK    3  A    between atoms: C_17  and  O_18
REMARK    4  A    between atoms: C_17  and  C_19
REMARK    5  A    between atoms: C_19  and  C_21
REMARK    6  A    between atoms: C_21  and  O_22
REMARK    7  A    between atoms: C_25  and  O_26
REMARK                            x       y       z     vdW  Elec       q    Type
REMARK                         _______ _______ _______ _____ _____    ______ ____
ROOT
ATOM      1  C   UNL     1      -2.995  13.043  20.298  0.00  0.00    +0.000 C 
ATOM      2  C   UNL     1      -2.361  13.476  21.668  0.00  0.00    +0.000 C 
ATOM      3  C   UNL     1      -0.917  13.962  21.331  0.00  0.00    +0.000 C 
ATOM      4  C   UNL     1      -0.059  12.845  20.717  0.00  0.00    +0.000 C 
ATOM      5  C   UNL     1      -0.024  11.639  21.622  0.00  0.00    +0.000 C 
ATOM      6  O   UNL     1       0.932  10.868  21.658  0.00  0.00    +0.000 OA
ATOM      7  C   UNL     1      -1.184  11.388  22.498  0.00  0.00    +0.000 C 
ATOM      8  C   UNL     1      -2.209  12.254  22.598  0.00  0.00    +0.000 C 
ATOM      9  C   UNL     1      -3.165  12.005  23.749  0.00  0.00    +0.000 C 
ATOM     10  C   UNL     1      -3.767  13.273  24.351  0.00  0.00    +0.000 C 
ATOM     11  C   UNL     1      -4.369  14.087  23.220  0.00  0.00    +0.000 C 
ATOM     12  C   UNL     1      -3.216  14.668  22.330  0.00  0.00    +0.000 C 
ATOM     13  C   UNL     1      -3.741  15.602  21.242  0.00  0.00    +0.000 C 
ATOM     14  C   UNL     1      -4.960  16.381  21.633  0.00  0.00    +0.000 C 
ATOM     15  C   UNL     1      -6.103  15.587  22.316  0.00  0.00    +0.000 C 
ATOM     16  C   UNL     1      -7.101  16.804  22.556  0.00  0.00    +0.000 C 
ATOM     17  C   UNL     1      -6.883  14.248  21.716  0.00  0.00    +0.000 C 
ATOM     18  C   UNL     1      -7.915  14.170  22.861  0.00  0.00    +0.000 C 
ATOM     19  C   UNL     1      -6.974  14.362  24.119  0.00  0.00    +0.000 C 
ATOM     20  C   UNL     1      -5.602  14.995  23.623  0.00  0.00    +0.000 C 
ENDROOT
BRANCH  17  21
ATOM     21  O   UNL     1      -7.328  14.569  20.421  0.00  0.00    +0.000 OA
ATOM     22  H   UNL     1      -6.775  14.056  19.798  0.00  0.00    +0.000 HD
ENDBRANCH  17  21
BRANCH  17  23
ATOM     23  C   UNL     1      -6.613  12.611  21.804  0.00  0.00    +0.000 C 
ATOM     24  O   UNL     1      -6.884  11.882  22.793  0.00  0.00    +0.000 OA
BRANCH  23  25
ATOM     25  C   UNL     1      -6.322  11.835  20.519  0.00  0.00    +0.000 C 
BRANCH  25  26
ATOM     26  O   UNL     1      -7.533  11.632  19.777  0.00  0.00    +0.000 OA
ATOM     27  H   UNL     1      -7.841  12.516  19.494  0.00  0.00    +0.000 HD
ENDBRANCH  25  26
ENDBRANCH  23  25
ENDBRANCH  17  23
BRANCH  20  28
ATOM     28  O   UNL     1      -5.206  15.974  24.575  0.00  0.00    +0.000 OA
ATOM     29  H   UNL     1      -4.630  15.570  25.243  0.00  0.00    +0.000 HD
ENDBRANCH  20  28
TORSDOF 5
ENDMDL
MODEL 7
REMARK VINA RESULT:      -5.7      9.122     10.928
REMARK  Name = 
REMARK  7 active torsions:
REMARK  status: ('A' for Active; 'I' for Inactive)
REMARK    1  A    between atoms: C_1  and  C_2
REMARK    2  A    between atoms: C_15  and  C_16
REMARK    3  A    between atoms: C_17  and  O_18
REMARK    4  A    between atoms: C_17  and  C_19
REMARK    5  A    between atoms: C_19  and  C_21
REMARK    6  A    between atoms: C_21  and  O_22
REMARK    7  A    between atoms: C_25  and  O_26
REMARK                            x       y       z     vdW  Elec       q    Type
REMARK                         _______ _______ _______ _____ _____    ______ ____
ROOT
ATOM      1  C   UNL     1       3.582  13.826  20.482  0.00  0.00    +0.000 C 
ATOM      2  C   UNL     1       3.030  14.486  19.167  0.00  0.00    +0.000 C 
ATOM      3  C   UNL     1       4.252  14.591  18.202  0.00  0.00    +0.000 C 
ATOM      4  C   UNL     1       5.367  15.480  18.775  0.00  0.00    +0.000 C 
ATOM      5  C   UNL     1       4.835  16.848  19.121  0.00  0.00    +0.000 C 
ATOM      6  O   UNL     1       5.536  17.857  19.089  0.00  0.00    +0.000 OA
ATOM      7  C   UNL     1       3.417  16.970  19.506  0.00  0.00    +0.000 C 
ATOM      8  C   UNL     1       2.565  15.931  19.447  0.00  0.00    +0.000 C 
ATOM      9  C   UNL     1       1.095  16.282  19.583  0.00  0.00    +0.000 C 
ATOM     10  C   UNL     1       0.159  15.388  18.773  0.00  0.00    +0.000 C 
ATOM     11  C   UNL     1       0.478  13.944  19.115  0.00  0.00    +0.000 C 
ATOM     12  C   UNL     1       1.879  13.568  18.518  0.00  0.00    +0.000 C 
ATOM     13  C   UNL     1       2.213  12.091  18.716  0.00  0.00    +0.000 C 
ATOM     14  C   UNL     1       1.024  11.179  18.681  0.00  0.00    +0.000 C 
ATOM     15  C   UNL     1      -0.209  11.611  19.516  0.00  0.00    +0.000 C 
ATOM     16  C   UNL     1      -1.165  10.396  19.137  0.00  0.00    +0.000 C 
ATOM     17  C   UNL     1      -0.242  11.949  21.142  0.00  0.00    +0.000 C 
ATOM     18  C   UNL     1      -1.773  12.137  21.208  0.00  0.00    +0.000 C 
ATOM     19  C   UNL     1      -2.011  13.053  19.939  0.00  0.00    +0.000 C 
ATOM     20  C   UNL     1      -0.739  12.937  18.994  0.00  0.00    +0.000 C 
ENDROOT
BRANCH  17  21
ATOM     21  O   UNL     1       0.337  10.854  21.808  0.00  0.00    +0.000 OA
ATOM     22  H   UNL     1       0.518  10.175  21.129  0.00  0.00    +0.000 HD
ENDBRANCH  17  21
BRANCH  17  23
ATOM     23  C   UNL     1      -0.002  13.322  22.047  0.00  0.00    +0.000 C 
ATOM     24  O   UNL     1       1.052  14.008  22.060  0.00  0.00    +0.000 OA
BRANCH  23  25
ATOM     25  C   UNL     1      -1.210  14.021  22.672  0.00  0.00    +0.000 C 
BRANCH  25  26
ATOM     26  O   UNL     1      -0.846  14.613  23.927  0.00  0.00    +0.000 OA
ATOM     27  H   UNL     1       0.113  14.458  24.044  0.00  0.00    +0.000 HD
ENDBRANCH  25  26
ENDBRANCH  23  25
ENDBRANCH  17  23
BRANCH  20  28
ATOM     28  O   UNL     1      -1.199  12.875  17.651  0.00  0.00    +0.000 OA
ATOM     29  H   UNL     1      -1.285  13.771  17.291  0.00  0.00    +0.000 HD
ENDBRANCH  20  28
TORSDOF 5
ENDMDL
MODEL 8
REMARK VINA RESULT:      -5.6     10.419     13.310
REMARK  Name = 
REMARK  7 active torsions:
REMARK  status: ('A' for Active; 'I' for Inactive)
REMARK    1  A    between atoms: C_1  and  C_2
REMARK    2  A    between atoms: C_15  and  C_16
REMARK    3  A    between atoms: C_17  and  O_18
REMARK    4  A    between atoms: C_17  and  C_19
REMARK    5  A    between atoms: C_19  and  C_21
REMARK    6  A    between atoms: C_21  and  O_22
REMARK    7  A    between atoms: C_25  and  O_26
REMARK                            x       y       z     vdW  Elec       q    Type
REMARK                         _______ _______ _______ _____ _____    ______ ____
ROOT
ATOM      1  C   UNL     1       7.279  16.285  17.829  0.00  0.00    +0.000 C 
ATOM      2  C   UNL     1       6.981  15.601  19.212  0.00  0.00    +0.000 C 
ATOM      3  C   UNL     1       5.429  15.450  19.282  0.00  0.00    +0.000 C 
ATOM      4  C   UNL     1       4.713  16.808  19.234  0.00  0.00    +0.000 C 
ATOM      5  C   UNL     1       5.215  17.717  20.328  0.00  0.00    +0.000 C 
ATOM      6  O   UNL     1       4.513  18.587  20.839  0.00  0.00    +0.000 OA
ATOM      7  C   UNL     1       6.602  17.543  20.799  0.00  0.00    +0.000 C 
ATOM      8  C   UNL     1       7.385  16.537  20.370  0.00  0.00    +0.000 C 
ATOM      9  C   UNL     1       8.661  16.319  21.162  0.00  0.00    +0.000 C 
ATOM     10  C   UNL     1       9.101  14.859  21.253  0.00  0.00    +0.000 C 
ATOM     11  C   UNL     1       9.151  14.297  19.844  0.00  0.00    +0.000 C 
ATOM     12  C   UNL     1       7.690  14.159  19.290  0.00  0.00    +0.000 C 
ATOM     13  C   UNL     1       7.654  13.483  17.921  0.00  0.00    +0.000 C 
ATOM     14  C   UNL     1       8.721  12.451  17.714  0.00  0.00    +0.000 C 
ATOM     15  C   UNL     1      10.162  12.848  18.126  0.00  0.00    +0.000 C 
ATOM     16  C   UNL     1      10.879  11.474  17.763  0.00  0.00    +0.000 C 
ATOM     17  C   UNL     1      11.024  14.163  17.591  0.00  0.00    +0.000 C 
ATOM     18  C   UNL     1      12.329  13.772  18.316  0.00  0.00    +0.000 C 
ATOM     19  C   UNL     1      11.768  13.395  19.747  0.00  0.00    +0.000 C 
ATOM     20  C   UNL     1      10.205  13.136  19.618  0.00  0.00    +0.000 C 
ENDROOT
BRANCH  17  21
ATOM     21  O   UNL     1      10.995  14.138  16.184  0.00  0.00    +0.000 OA
ATOM     22  H   UNL     1      11.260  15.030  15.882  0.00  0.00    +0.000 HD
ENDBRANCH  17  21
BRANCH  17  23
ATOM     23  C   UNL     1      11.175  15.738  18.100  0.00  0.00    +0.000 C 
ATOM     24  O   UNL     1      11.942  16.136  19.014  0.00  0.00    +0.000 OA
BRANCH  23  25
ATOM     25  C   UNL     1      10.614  16.859  17.224  0.00  0.00    +0.000 C 
BRANCH  25  26
ATOM     26  O   UNL     1      11.305  18.089  17.489  0.00  0.00    +0.000 OA
ATOM     27  H   UNL     1      11.399  18.550  16.631  0.00  0.00    +0.000 HD
ENDBRANCH  25  26
ENDBRANCH  23  25
ENDBRANCH  17  23
BRANCH  20  28
ATOM     28  O   UNL     1       9.883  12.010  20.423  0.00  0.00    +0.000 OA
ATOM     29  H   UNL     1       8.991  12.112  20.790  0.00  0.00    +0.000 HD
ENDBRANCH  20  28
TORSDOF 5
ENDMDL
MODEL 9
REMARK VINA RESULT:      -5.6      9.341     11.498
REMARK  Name = 
REMARK  7 active torsions:
REMARK  status: ('A' for Active; 'I' for Inactive)
REMARK    1  A    between atoms: C_1  and  C_2
REMARK    2  A    between atoms: C_15  and  C_16
REMARK    3  A    between atoms: C_17  and  O_18
REMARK    4  A    between atoms: C_17  and  C_19
REMARK    5  A    between atoms: C_19  and  C_21
REMARK    6  A    between atoms: C_21  and  O_22
REMARK    7  A    between atoms: C_25  and  O_26
REMARK                            x       y       z     vdW  Elec       q    Type
REMARK                         _______ _______ _______ _____ _____    ______ ____
ROOT
ATOM      1  C   UNL     1      -0.946  12.413  18.842  0.00  0.00    +0.000 C 
ATOM      2  C   UNL     1       0.027  12.143  20.044  0.00  0.00    +0.000 C 
ATOM      3  C   UNL     1       1.460  12.102  19.427  0.00  0.00    +0.000 C 
ATOM      4  C   UNL     1       1.615  10.971  18.399  0.00  0.00    +0.000 C 
ATOM      5  C   UNL     1       1.253   9.640  19.009  0.00  0.00    +0.000 C 
ATOM      6  O   UNL     1       1.754   8.583  18.633  0.00  0.00    +0.000 OA
ATOM      7  C   UNL     1       0.262   9.618  20.102  0.00  0.00    +0.000 C 
ATOM      8  C   UNL     1      -0.235  10.745  20.643  0.00  0.00    +0.000 C 
ATOM      9  C   UNL     1      -1.001  10.565  21.940  0.00  0.00    +0.000 C 
ATOM     10  C   UNL     1      -0.865  11.731  22.916  0.00  0.00    +0.000 C 
ATOM     11  C   UNL     1      -1.213  13.007  22.172  0.00  0.00    +0.000 C 
ATOM     12  C   UNL     1      -0.083  13.324  21.132  0.00  0.00    +0.000 C 
ATOM     13  C   UNL     1      -0.302  14.663  20.430  0.00  0.00    +0.000 C 
ATOM     14  C   UNL     1      -0.963  15.705  21.282  0.00  0.00    +0.000 C 
ATOM     15  C   UNL     1      -2.212  15.258  22.084  0.00  0.00    +0.000 C 
ATOM     16  C   UNL     1      -2.506  16.640  22.817  0.00  0.00    +0.000 C 
ATOM     17  C   UNL     1      -3.595  14.570  21.471  0.00  0.00    +0.000 C 
ATOM     18  C   UNL     1      -4.352  14.570  22.816  0.00  0.00    +0.000 C 
ATOM     19  C   UNL     1      -3.234  14.003  23.783  0.00  0.00    +0.000 C 
ATOM     20  C   UNL     1      -1.825  14.164  23.064  0.00  0.00    +0.000 C 
ENDROOT
BRANCH  17  21
ATOM     21  O   UNL     1      -4.053  15.402  20.434  0.00  0.00    +0.000 OA
ATOM     22  H   UNL     1      -4.966  15.120  20.230  0.00  0.00    +0.000 HD
ENDBRANCH  17  21
BRANCH  17  23
ATOM     23  C   UNL     1      -4.076  13.009  21.164  0.00  0.00    +0.000 C 
ATOM     24  O   UNL     1      -4.713  12.275  21.962  0.00  0.00    +0.000 OA
BRANCH  23  25
ATOM     25  C   UNL     1      -4.059  12.496  19.723  0.00  0.00    +0.000 C 
BRANCH  25  26
ATOM     26  O   UNL     1      -5.117  13.102  18.967  0.00  0.00    +0.000 OA
ATOM     27  H   UNL     1      -4.909  14.057  18.908  0.00  0.00    +0.000 HD
ENDBRANCH  25  26
ENDBRANCH  23  25
ENDBRANCH  17  23
BRANCH  20  28
ATOM     28  O   UNL     1      -0.884  14.586  24.043  0.00  0.00    +0.000 OA
ATOM     29  H   UNL     1      -0.782  15.549  24.007  0.00  0.00    +0.000 HD
ENDBRANCH  20  28
TORSDOF 5
ENDMDL
