MODEL 1
REMARK VINA RESULT:      -6.9      0.000      0.000
REMARK  Name = 
REMARK  10 active torsions:
REMARK  status: ('A' for Active; 'I' for Inactive)
REMARK    1  A    between atoms: C_1  and  C_2
REMARK    2  A    between atoms: C_2  and  C_3
REMARK    3  A    between atoms: C_2  and  C_4
REMARK    4  A    between atoms: C_2  and  C_5
REMARK    5  A    between atoms: C_8  and  O_9
REMARK    6  A    between atoms: O_9  and  C_10
REMARK    7  A    between atoms: C_10  and  C_11
REMARK    8  A    between atoms: C_11  and  O_12
REMARK    9  A    between atoms: C_11  and  C_13
REMARK   10  A    between atoms: C_13  and  N_14
REMARK                            x       y       z     vdW  Elec       q    Type
REMARK                         _______ _______ _______ _____ _____    ______ ____
ROOT
ATOM      1  O   UNL     1       5.110   5.618  16.874  0.00  0.00    +0.000 OA
ENDROOT
BRANCH   1   5
ATOM      2  C   UNL     1       2.988   3.538  18.962  0.00  0.00    +0.000 C 
ATOM      3  C   UNL     1       2.521   4.436  17.787  0.00  0.00    +0.000 C 
ATOM      4  C   UNL     1       2.940   5.908  17.971  0.00  0.00    +0.000 C 
ATOM      5  C   UNL     1       4.476   6.042  18.067  0.00  0.00    +0.000 C 
ATOM      6  C   UNL     1       4.996   5.175  19.233  0.00  0.00    +0.000 C 
ATOM      7  C   UNL     1       4.535   3.712  19.093  0.00  0.00    +0.000 C 
BRANCH   2   9
ATOM      8  C   UNL     1       2.729   2.694  21.374  0.00  0.00    +0.000 C 
ATOM      9  C   UNL     1       2.091   3.601  20.291  0.00  0.00    +0.000 C 
ATOM     10  C   UNL     1       0.613   3.154  20.167  0.00  0.00    +0.000 C 
ATOM     11  C   UNL     1       2.095   5.040  20.846  0.00  0.00    +0.000 C 
ENDBRANCH   2   9
ENDBRANCH   1   5
BRANCH   1  12
ATOM     12  C   UNL     1       6.477   5.980  16.870  0.00  0.00    +0.000 C 
BRANCH  12  13
ATOM     13  C   UNL     1       7.307   4.866  16.227  0.00  0.00    +0.000 C 
BRANCH  13  14
ATOM     14  O   UNL     1       7.958   4.077  17.192  0.00  0.00    +0.000 OA
ATOM     15  H   UNL     1       8.564   4.664  17.699  0.00  0.00    +0.000 HD
ENDBRANCH  13  14
BRANCH  13  16
ATOM     16  C   UNL     1       6.408   4.003  15.307  0.00  0.00    +0.000 C 
BRANCH  16  17
ATOM     17  N   UNL     1       6.077   4.644  14.016  0.00  0.00    +0.000 NA
ATOM     18  C   UNL     1       5.317   3.740  13.123  0.00  0.00    +0.000 C 
ATOM     19  C   UNL     1       6.356   3.039  12.272  0.00  0.00    +0.000 C 
ATOM     20  C   UNL     1       7.218   4.221  11.920  0.00  0.00    +0.000 C 
ATOM     21  C   UNL     1       7.335   4.918  13.269  0.00  0.00    +0.000 C 
ENDBRANCH  16  17
ENDBRANCH  13  16
ENDBRANCH  12  13
ENDBRANCH   1  12
TORSDOF 7
ENDMDL
MODEL 2
REMARK VINA RESULT:      -6.8      0.759      1.362
REMARK  Name = 
REMARK  10 active torsions:
REMARK  status: ('A' for Active; 'I' for Inactive)
REMARK    1  A    between atoms: C_1  and  C_2
REMARK    2  A    between atoms: C_2  and  C_3
REMARK    3  A    between atoms: C_2  and  C_4
REMARK    4  A    between atoms: C_2  and  C_5
REMARK    5  A    between atoms: C_8  and  O_9
REMARK    6  A    between atoms: O_9  and  C_10
REMARK    7  A    between atoms: C_10  and  C_11
REMARK    8  A    between atoms: C_11  and  O_12
REMARK    9  A    between atoms: C_11  and  C_13
REMARK   10  A    between atoms: C_13  and  N_14
REMARK                            x       y       z     vdW  Elec       q    Type
REMARK                         _______ _______ _______ _____ _____    ______ ____
ROOT
ATOM      1  O   UNL     1       5.403   5.560  17.447  0.00  0.00    +0.000 OA
ENDROOT
BRANCH   1   5
ATOM      2  C   UNL     1       2.380   3.831  18.476  0.00  0.00    +0.000 C 
ATOM      3  C   UNL     1       2.560   5.366  18.348  0.00  0.00    +0.000 C 
ATOM      4  C   UNL     1       3.728   5.893  19.203  0.00  0.00    +0.000 C 
ATOM      5  C   UNL     1       5.064   5.239  18.784  0.00  0.00    +0.000 C 
ATOM      6  C   UNL     1       4.946   3.705  18.905  0.00  0.00    +0.000 C 
ATOM      7  C   UNL     1       3.745   3.170  18.102  0.00  0.00    +0.000 C 
BRANCH   2   9
ATOM      8  C   UNL     1       0.794   4.498  20.384  0.00  0.00    +0.000 C 
ATOM      9  C   UNL     1       1.614   3.323  19.791  0.00  0.00    +0.000 C 
ATOM     10  C   UNL     1       2.486   2.776  20.949  0.00  0.00    +0.000 C 
ATOM     11  C   UNL     1       0.608   2.218  19.407  0.00  0.00    +0.000 C 
ENDBRANCH   2   9
ENDBRANCH   1   5
BRANCH   1  12
ATOM     12  C   UNL     1       6.757   5.958  17.348  0.00  0.00    +0.000 C 
BRANCH  12  13
ATOM     13  C   UNL     1       7.564   4.875  16.627  0.00  0.00    +0.000 C 
BRANCH  13  14
ATOM     14  O   UNL     1       8.186   3.998  17.533  0.00  0.00    +0.000 OA
ATOM     15  H   UNL     1       7.531   3.776  18.233  0.00  0.00    +0.000 HD
ENDBRANCH  13  14
BRANCH  13  16
ATOM     16  C   UNL     1       6.653   4.111  15.636  0.00  0.00    +0.000 C 
BRANCH  16  17
ATOM     17  N   UNL     1       6.330   4.868  14.407  0.00  0.00    +0.000 NA
ATOM     18  C   UNL     1       5.348   4.158  13.556  0.00  0.00    +0.000 C 
ATOM     19  C   UNL     1       6.169   3.336  12.584  0.00  0.00    +0.000 C 
ATOM     20  C   UNL     1       7.193   4.369  12.198  0.00  0.00    +0.000 C 
ATOM     21  C   UNL     1       7.548   4.961  13.555  0.00  0.00    +0.000 C 
ENDBRANCH  16  17
ENDBRANCH  13  16
ENDBRANCH  12  13
ENDBRANCH   1  12
TORSDOF 7
ENDMDL
MODEL 3
REMARK VINA RESULT:      -6.6      1.747      3.429
REMARK  Name = 
REMARK  10 active torsions:
REMARK  status: ('A' for Active; 'I' for Inactive)
REMARK    1  A    between atoms: C_1  and  C_2
REMARK    2  A    between atoms: C_2  and  C_3
REMARK    3  A    between atoms: C_2  and  C_4
REMARK    4  A    between atoms: C_2  and  C_5
REMARK    5  A    between atoms: C_8  and  O_9
REMARK    6  A    between atoms: O_9  and  C_10
REMARK    7  A    between atoms: C_10  and  C_11
REMARK    8  A    between atoms: C_11  and  O_12
REMARK    9  A    between atoms: C_11  and  C_13
REMARK   10  A    between atoms: C_13  and  N_14
REMARK                            x       y       z     vdW  Elec       q    Type
REMARK                         _______ _______ _______ _____ _____    ______ ____
ROOT
ATOM      1  O   UNL     1       4.703   3.730  16.386  0.00  0.00    +0.000 OA
ENDROOT
BRANCH   1   5
ATOM      2  C   UNL     1       3.333   3.593  19.746  0.00  0.00    +0.000 C 
ATOM      3  C   UNL     1       3.454   2.405  18.756  0.00  0.00    +0.000 C 
ATOM      4  C   UNL     1       2.744   2.682  17.417  0.00  0.00    +0.000 C 
ATOM      5  C   UNL     1       3.340   3.925  16.717  0.00  0.00    +0.000 C 
ATOM      6  C   UNL     1       3.234   5.144  17.656  0.00  0.00    +0.000 C 
ATOM      7  C   UNL     1       3.888   4.860  19.021  0.00  0.00    +0.000 C 
BRANCH   2   9
ATOM      8  C   UNL     1       2.045   2.911  21.862  0.00  0.00    +0.000 C 
ATOM      9  C   UNL     1       1.941   3.707  20.536  0.00  0.00    +0.000 C 
ATOM     10  C   UNL     1       0.674   3.182  19.814  0.00  0.00    +0.000 C 
ATOM     11  C   UNL     1       1.681   5.180  20.912  0.00  0.00    +0.000 C 
ENDBRANCH   2   9
ENDBRANCH   1   5
BRANCH   1  12
ATOM     12  C   UNL     1       4.986   4.219  15.090  0.00  0.00    +0.000 C 
BRANCH  12  13
ATOM     13  C   UNL     1       6.492   4.148  14.825  0.00  0.00    +0.000 C 
BRANCH  13  14
ATOM     14  O   UNL     1       6.786   4.252  13.454  0.00  0.00    +0.000 OA
ATOM     15  H   UNL     1       7.753   4.411  13.366  0.00  0.00    +0.000 HD
ENDBRANCH  13  14
BRANCH  13  16
ATOM     16  C   UNL     1       7.223   5.240  15.644  0.00  0.00    +0.000 C 
BRANCH  16  17
ATOM     17  N   UNL     1       6.671   5.445  17.001  0.00  0.00    +0.000 NA
ATOM     18  C   UNL     1       6.578   6.881  17.354  0.00  0.00    +0.000 C 
ATOM     19  C   UNL     1       7.878   7.214  18.057  0.00  0.00    +0.000 C 
ATOM     20  C   UNL     1       7.976   6.015  18.961  0.00  0.00    +0.000 C 
ATOM     21  C   UNL     1       7.618   4.886  18.004  0.00  0.00    +0.000 C 
ENDBRANCH  16  17
ENDBRANCH  13  16
ENDBRANCH  12  13
ENDBRANCH   1  12
TORSDOF 7
ENDMDL
MODEL 4
REMARK VINA RESULT:      -6.6      1.040      1.562
REMARK  Name = 
REMARK  10 active torsions:
REMARK  status: ('A' for Active; 'I' for Inactive)
REMARK    1  A    between atoms: C_1  and  C_2
REMARK    2  A    between atoms: C_2  and  C_3
REMARK    3  A    between atoms: C_2  and  C_4
REMARK    4  A    between atoms: C_2  and  C_5
REMARK    5  A    between atoms: C_8  and  O_9
REMARK    6  A    between atoms: O_9  and  C_10
REMARK    7  A    between atoms: C_10  and  C_11
REMARK    8  A    between atoms: C_11  and  O_12
REMARK    9  A    between atoms: C_11  and  C_13
REMARK   10  A    between atoms: C_13  and  N_14
REMARK                            x       y       z     vdW  Elec       q    Type
REMARK                         _______ _______ _______ _____ _____    ______ ____
ROOT
ATOM      1  O   UNL     1       5.094   6.258  17.903  0.00  0.00    +0.000 OA
ENDROOT
BRANCH   1   5
ATOM      2  C   UNL     1       3.188   4.026  20.042  0.00  0.00    +0.000 C 
ATOM      3  C   UNL     1       4.371   3.626  19.122  0.00  0.00    +0.000 C 
ATOM      4  C   UNL     1       4.131   4.020  17.652  0.00  0.00    +0.000 C 
ATOM      5  C   UNL     1       3.935   5.546  17.510  0.00  0.00    +0.000 C 
ATOM      6  C   UNL     1       2.757   5.999  18.397  0.00  0.00    +0.000 C 
ATOM      7  C   UNL     1       2.956   5.559  19.860  0.00  0.00    +0.000 C 
BRANCH   2   9
ATOM      8  C   UNL     1       2.312   1.727  19.301  0.00  0.00    +0.000 C 
ATOM      9  C   UNL     1       1.918   3.047  20.013  0.00  0.00    +0.000 C 
ATOM     10  C   UNL     1       0.645   3.562  19.296  0.00  0.00    +0.000 C 
ATOM     11  C   UNL     1       1.518   2.678  21.457  0.00  0.00    +0.000 C 
ENDBRANCH   2   9
ENDBRANCH   1   5
BRANCH   1  12
ATOM     12  C   UNL     1       5.870   6.626  16.780  0.00  0.00    +0.000 C 
BRANCH  12  13
ATOM     13  C   UNL     1       7.178   5.832  16.771  0.00  0.00    +0.000 C 
BRANCH  13  14
ATOM     14  O   UNL     1       7.458   5.273  18.030  0.00  0.00    +0.000 OA
ATOM     15  H   UNL     1       7.286   5.963  18.710  0.00  0.00    +0.000 HD
ENDBRANCH  13  14
BRANCH  13  16
ATOM     16  C   UNL     1       7.127   4.745  15.669  0.00  0.00    +0.000 C 
BRANCH  16  17
ATOM     17  N   UNL     1       6.583   5.221  14.379  0.00  0.00    +0.000 NA
ATOM     18  C   UNL     1       5.493   4.352  13.878  0.00  0.00    +0.000 C 
ATOM     19  C   UNL     1       6.164   3.331  12.982  0.00  0.00    +0.000 C 
ATOM     20  C   UNL     1       7.079   4.248  12.216  0.00  0.00    +0.000 C 
ATOM     21  C   UNL     1       7.638   5.118  13.334  0.00  0.00    +0.000 C 
ENDBRANCH  16  17
ENDBRANCH  13  16
ENDBRANCH  12  13
ENDBRANCH   1  12
TORSDOF 7
ENDMDL
MODEL 5
REMARK VINA RESULT:      -6.5      1.397      1.835
REMARK  Name = 
REMARK  10 active torsions:
REMARK  status: ('A' for Active; 'I' for Inactive)
REMARK    1  A    between atoms: C_1  and  C_2
REMARK    2  A    between atoms: C_2  and  C_3
REMARK    3  A    between atoms: C_2  and  C_4
REMARK    4  A    between atoms: C_2  and  C_5
REMARK    5  A    between atoms: C_8  and  O_9
REMARK    6  A    between atoms: O_9  and  C_10
REMARK    7  A    between atoms: C_10  and  C_11
REMARK    8  A    between atoms: C_11  and  O_12
REMARK    9  A    between atoms: C_11  and  C_13
REMARK   10  A    between atoms: C_13  and  N_14
REMARK                            x       y       z     vdW  Elec       q    Type
REMARK                         _______ _______ _______ _____ _____    ______ ____
ROOT
ATOM      1  O   UNL     1       5.492   5.162  17.193  0.00  0.00    +0.000 OA
ENDROOT
BRANCH   1   5
ATOM      2  C   UNL     1       3.406   3.956  19.911  0.00  0.00    +0.000 C 
ATOM      3  C   UNL     1       4.371   3.103  19.048  0.00  0.00    +0.000 C 
ATOM      4  C   UNL     1       4.060   3.206  17.542  0.00  0.00    +0.000 C 
ATOM      5  C   UNL     1       4.173   4.666  17.049  0.00  0.00    +0.000 C 
ATOM      6  C   UNL     1       3.220   5.561  17.867  0.00  0.00    +0.000 C 
ATOM      7  C   UNL     1       3.481   5.423  19.379  0.00  0.00    +0.000 C 
BRANCH   2   9
ATOM      8  C   UNL     1       1.993   2.579  21.556  0.00  0.00    +0.000 C 
ATOM      9  C   UNL     1       1.963   3.313  20.191  0.00  0.00    +0.000 C 
ATOM     10  C   UNL     1       1.435   2.286  19.158  0.00  0.00    +0.000 C 
ATOM     11  C   UNL     1       0.911   4.437  20.305  0.00  0.00    +0.000 C 
ENDBRANCH   2   9
ENDBRANCH   1   5
BRANCH   1  12
ATOM     12  C   UNL     1       6.408   4.398  16.434  0.00  0.00    +0.000 C 
BRANCH  12  13
ATOM     13  C   UNL     1       6.327   4.806  14.961  0.00  0.00    +0.000 C 
BRANCH  13  14
ATOM     14  O   UNL     1       7.460   5.536  14.558  0.00  0.00    +0.000 OA
ATOM     15  H   UNL     1       7.757   6.075  15.326  0.00  0.00    +0.000 HD
ENDBRANCH  13  14
BRANCH  13  16
ATOM     16  C   UNL     1       6.121   3.551  14.077  0.00  0.00    +0.000 C 
BRANCH  16  17
ATOM     17  N   UNL     1       6.185   3.822  12.624  0.00  0.00    +0.000 NA
ATOM     18  C   UNL     1       5.104   3.134  11.881  0.00  0.00    +0.000 C 
ATOM     19  C   UNL     1       5.687   1.804  11.449  0.00  0.00    +0.000 C 
ATOM     20  C   UNL     1       7.028   2.277  10.958  0.00  0.00    +0.000 C 
ATOM     21  C   UNL     1       7.436   3.233  12.071  0.00  0.00    +0.000 C 
ENDBRANCH  16  17
ENDBRANCH  13  16
ENDBRANCH  12  13
ENDBRANCH   1  12
TORSDOF 7
ENDMDL
MODEL 6
REMARK VINA RESULT:      -6.5      1.322      1.691
REMARK  Name = 
REMARK  10 active torsions:
REMARK  status: ('A' for Active; 'I' for Inactive)
REMARK    1  A    between atoms: C_1  and  C_2
REMARK    2  A    between atoms: C_2  and  C_3
REMARK    3  A    between atoms: C_2  and  C_4
REMARK    4  A    between atoms: C_2  and  C_5
REMARK    5  A    between atoms: C_8  and  O_9
REMARK    6  A    between atoms: O_9  and  C_10
REMARK    7  A    between atoms: C_10  and  C_11
REMARK    8  A    between atoms: C_11  and  O_12
REMARK    9  A    between atoms: C_11  and  C_13
REMARK   10  A    between atoms: C_13  and  N_14
REMARK                            x       y       z     vdW  Elec       q    Type
REMARK                         _______ _______ _______ _____ _____    ______ ____
ROOT
ATOM      1  O   UNL     1       6.179   4.071  18.026  0.00  0.00    +0.000 OA
ENDROOT
BRANCH   1   5
ATOM      2  C   UNL     1       3.199   2.761  19.635  0.00  0.00    +0.000 C 
ATOM      3  C   UNL     1       3.627   2.521  18.163  0.00  0.00    +0.000 C 
ATOM      4  C   UNL     1       3.826   3.837  17.388  0.00  0.00    +0.000 C 
ATOM      5  C   UNL     1       4.917   4.712  18.046  0.00  0.00    +0.000 C 
ATOM      6  C   UNL     1       4.534   4.994  19.514  0.00  0.00    +0.000 C 
ATOM      7  C   UNL     1       4.274   3.687  20.287  0.00  0.00    +0.000 C 
BRANCH   2   9
ATOM      8  C   UNL     1       0.795   2.268  18.877  0.00  0.00    +0.000 C 
ATOM      9  C   UNL     1       1.648   3.102  19.866  0.00  0.00    +0.000 C 
ATOM     10  C   UNL     1       1.214   4.577  19.676  0.00  0.00    +0.000 C 
ATOM     11  C   UNL     1       1.234   2.677  21.290  0.00  0.00    +0.000 C 
ENDBRANCH   2   9
ENDBRANCH   1   5
BRANCH   1  12
ATOM     12  C   UNL     1       7.224   5.010  17.867  0.00  0.00    +0.000 C 
BRANCH  12  13
ATOM     13  C   UNL     1       7.023   5.795  16.568  0.00  0.00    +0.000 C 
BRANCH  13  14
ATOM     14  O   UNL     1       7.729   7.012  16.579  0.00  0.00    +0.000 OA
ATOM     15  H   UNL     1       7.844   7.300  15.645  0.00  0.00    +0.000 HD
ENDBRANCH  13  14
BRANCH  13  16
ATOM     16  C   UNL     1       7.426   4.920  15.356  0.00  0.00    +0.000 C 
BRANCH  16  17
ATOM     17  N   UNL     1       6.722   5.267  14.102  0.00  0.00    +0.000 NA
ATOM     18  C   UNL     1       5.595   4.347  13.822  0.00  0.00    +0.000 C 
ATOM     19  C   UNL     1       6.171   3.250  12.951  0.00  0.00    +0.000 C 
ATOM     20  C   UNL     1       6.971   4.094  11.996  0.00  0.00    +0.000 C 
ATOM     21  C   UNL     1       7.646   5.070  12.951  0.00  0.00    +0.000 C 
ENDBRANCH  16  17
ENDBRANCH  13  16
ENDBRANCH  12  13
ENDBRANCH   1  12
TORSDOF 7
ENDMDL
MODEL 7
REMARK VINA RESULT:      -6.5      1.472      2.190
REMARK  Name = 
REMARK  10 active torsions:
REMARK  status: ('A' for Active; 'I' for Inactive)
REMARK    1  A    between atoms: C_1  and  C_2
REMARK    2  A    between atoms: C_2  and  C_3
REMARK    3  A    between atoms: C_2  and  C_4
REMARK    4  A    between atoms: C_2  and  C_5
REMARK    5  A    between atoms: C_8  and  O_9
REMARK    6  A    between atoms: O_9  and  C_10
REMARK    7  A    between atoms: C_10  and  C_11
REMARK    8  A    between atoms: C_11  and  O_12
REMARK    9  A    between atoms: C_11  and  C_13
REMARK   10  A    between atoms: C_13  and  N_14
REMARK                            x       y       z     vdW  Elec       q    Type
REMARK                         _______ _______ _______ _____ _____    ______ ____
ROOT
ATOM      1  O   UNL     1       5.046   4.340  16.129  0.00  0.00    +0.000 OA
ENDROOT
BRANCH   1   5
ATOM      2  C   UNL     1       2.204   4.417  18.388  0.00  0.00    +0.000 C 
ATOM      3  C   UNL     1       3.309   5.499  18.267  0.00  0.00    +0.000 C 
ATOM      4  C   UNL     1       4.721   4.922  18.485  0.00  0.00    +0.000 C 
ATOM      5  C   UNL     1       5.041   3.823  17.447  0.00  0.00    +0.000 C 
ATOM      6  C   UNL     1       3.976   2.710  17.533  0.00  0.00    +0.000 C 
ATOM      7  C   UNL     1       2.554   3.280  17.375  0.00  0.00    +0.000 C 
BRANCH   2   9
ATOM      8  C   UNL     1       1.504   5.302  20.696  0.00  0.00    +0.000 C 
ATOM      9  C   UNL     1       1.781   4.012  19.882  0.00  0.00    +0.000 C 
ATOM     10  C   UNL     1       2.803   3.190  20.707  0.00  0.00    +0.000 C 
ATOM     11  C   UNL     1       0.464   3.209  19.845  0.00  0.00    +0.000 C 
ENDBRANCH   2   9
ENDBRANCH   1   5
BRANCH   1  12
ATOM     12  C   UNL     1       6.225   5.079  15.878  0.00  0.00    +0.000 C 
BRANCH  12  13
ATOM     13  C   UNL     1       6.513   5.103  14.375  0.00  0.00    +0.000 C 
BRANCH  13  14
ATOM     14  O   UNL     1       7.847   5.458  14.105  0.00  0.00    +0.000 OA
ATOM     15  H   UNL     1       8.407   4.665  14.271  0.00  0.00    +0.000 HD
ENDBRANCH  13  14
BRANCH  13  16
ATOM     16  C   UNL     1       6.154   3.734  13.748  0.00  0.00    +0.000 C 
BRANCH  16  17
ATOM     17  N   UNL     1       6.183   3.724  12.269  0.00  0.00    +0.000 NA
ATOM     18  C   UNL     1       5.145   2.834  11.697  0.00  0.00    +0.000 C 
ATOM     19  C   UNL     1       5.818   1.489  11.513  0.00  0.00    +0.000 C 
ATOM     20  C   UNL     1       7.116   1.949  10.908  0.00  0.00    +0.000 C 
ATOM     21  C   UNL     1       7.466   3.126  11.808  0.00  0.00    +0.000 C 
ENDBRANCH  16  17
ENDBRANCH  13  16
ENDBRANCH  12  13
ENDBRANCH   1  12
TORSDOF 7
ENDMDL
MODEL 8
REMARK VINA RESULT:      -6.4      1.308      1.482
REMARK  Name = 
REMARK  10 active torsions:
REMARK  status: ('A' for Active; 'I' for Inactive)
REMARK    1  A    between atoms: C_1  and  C_2
REMARK    2  A    between atoms: C_2  and  C_3
REMARK    3  A    between atoms: C_2  and  C_4
REMARK    4  A    between atoms: C_2  and  C_5
REMARK    5  A    between atoms: C_8  and  O_9
REMARK    6  A    between atoms: O_9  and  C_10
REMARK    7  A    between atoms: C_10  and  C_11
REMARK    8  A    between atoms: C_11  and  O_12
REMARK    9  A    between atoms: C_11  and  C_13
REMARK   10  A    between atoms: C_13  and  N_14
REMARK                            x       y       z     vdW  Elec       q    Type
REMARK                         _______ _______ _______ _____ _____    ______ ____
ROOT
ATOM      1  O   UNL     1       5.667   4.015  16.786  0.00  0.00    +0.000 OA
ENDROOT
BRANCH   1   5
ATOM      2  C   UNL     1       3.083   2.969  19.113  0.00  0.00    +0.000 C 
ATOM      3  C   UNL     1       2.860   3.495  17.671  0.00  0.00    +0.000 C 
ATOM      4  C   UNL     1       3.478   4.889  17.453  0.00  0.00    +0.000 C 
ATOM      5  C   UNL     1       5.003   4.867  17.702  0.00  0.00    +0.000 C 
ATOM      6  C   UNL     1       5.283   4.362  19.133  0.00  0.00    +0.000 C 
ATOM      7  C   UNL     1       4.620   2.995  19.385  0.00  0.00    +0.000 C 
BRANCH   2   9
ATOM      8  C   UNL     1       2.349   2.814  21.570  0.00  0.00    +0.000 C 
ATOM      9  C   UNL     1       2.094   3.556  20.233  0.00  0.00    +0.000 C 
ATOM     10  C   UNL     1       0.573   3.447  19.960  0.00  0.00    +0.000 C 
ATOM     11  C   UNL     1       2.416   5.045  20.475  0.00  0.00    +0.000 C 
ENDBRANCH   2   9
ENDBRANCH   1   5
BRANCH   1  12
ATOM     12  C   UNL     1       6.825   4.635  16.263  0.00  0.00    +0.000 C 
BRANCH  12  13
ATOM     13  C   UNL     1       6.610   4.972  14.785  0.00  0.00    +0.000 C 
BRANCH  13  14
ATOM     14  O   UNL     1       7.757   5.548  14.210  0.00  0.00    +0.000 OA
ATOM     15  H   UNL     1       8.341   4.816  13.908  0.00  0.00    +0.000 HD
ENDBRANCH  13  14
BRANCH  13  16
ATOM     16  C   UNL     1       6.169   3.704  14.014  0.00  0.00    +0.000 C 
BRANCH  16  17
ATOM     17  N   UNL     1       6.170   3.863  12.544  0.00  0.00    +0.000 NA
ATOM     18  C   UNL     1       5.098   3.071  11.896  0.00  0.00    +0.000 C 
ATOM     19  C   UNL     1       5.731   1.740  11.545  0.00  0.00    +0.000 C 
ATOM     20  C   UNL     1       7.030   2.235  10.969  0.00  0.00    +0.000 C 
ATOM     21  C   UNL     1       7.428   3.292  11.990  0.00  0.00    +0.000 C 
ENDBRANCH  16  17
ENDBRANCH  13  16
ENDBRANCH  12  13
ENDBRANCH   1  12
TORSDOF 7
ENDMDL
MODEL 9
REMARK VINA RESULT:      -6.4      1.038      1.471
REMARK  Name = 
REMARK  10 active torsions:
REMARK  status: ('A' for Active; 'I' for Inactive)
REMARK    1  A    between atoms: C_1  and  C_2
REMARK    2  A    between atoms: C_2  and  C_3
REMARK    3  A    between atoms: C_2  and  C_4
REMARK    4  A    between atoms: C_2  and  C_5
REMARK    5  A    between atoms: C_8  and  O_9
REMARK    6  A    between atoms: O_9  and  C_10
REMARK    7  A    between atoms: C_10  and  C_11
REMARK    8  A    between atoms: C_11  and  O_12
REMARK    9  A    between atoms: C_11  and  C_13
REMARK   10  A    between atoms: C_13  and  N_14
REMARK                            x       y       z     vdW  Elec       q    Type
REMARK                         _______ _______ _______ _____ _____    ______ ____
ROOT
ATOM      1  O   UNL     1       5.522   5.056  17.042  0.00  0.00    +0.000 OA
ENDROOT
BRANCH   1   5
ATOM      2  C   UNL     1       3.199   3.247  19.169  0.00  0.00    +0.000 C 
ATOM      3  C   UNL     1       2.926   3.740  17.724  0.00  0.00    +0.000 C 
ATOM      4  C   UNL     1       3.139   5.258  17.572  0.00  0.00    +0.000 C 
ATOM      5  C   UNL     1       4.590   5.655  17.924  0.00  0.00    +0.000 C 
ATOM      6  C   UNL     1       4.913   5.199  19.363  0.00  0.00    +0.000 C 
ATOM      7  C   UNL     1       4.648   3.693  19.546  0.00  0.00    +0.000 C 
BRANCH   2   9
ATOM      8  C   UNL     1       2.033   4.982  20.663  0.00  0.00    +0.000 C 
ATOM      9  C   UNL     1       2.019   3.494  20.228  0.00  0.00    +0.000 C 
ATOM     10  C   UNL     1       2.056   2.661  21.534  0.00  0.00    +0.000 C 
ATOM     11  C   UNL     1       0.657   3.234  19.552  0.00  0.00    +0.000 C 
ENDBRANCH   2   9
ENDBRANCH   1   5
BRANCH   1  12
ATOM     12  C   UNL     1       5.428   5.616  15.747  0.00  0.00    +0.000 C 
BRANCH  12  13
ATOM     13  C   UNL     1       6.535   5.048  14.855  0.00  0.00    +0.000 C 
BRANCH  13  14
ATOM     14  O   UNL     1       7.700   4.761  15.589  0.00  0.00    +0.000 OA
ATOM     15  H   UNL     1       7.729   5.375  16.358  0.00  0.00    +0.000 HD
ENDBRANCH  13  14
BRANCH  13  16
ATOM     16  C   UNL     1       6.017   3.796  14.105  0.00  0.00    +0.000 C 
BRANCH  16  17
ATOM     17  N   UNL     1       6.013   3.936  12.633  0.00  0.00    +0.000 NA
ATOM     18  C   UNL     1       5.076   2.989  11.985  0.00  0.00    +0.000 C 
ATOM     19  C   UNL     1       5.899   1.760  11.659  0.00  0.00    +0.000 C 
ATOM     20  C   UNL     1       7.120   2.431  11.089  0.00  0.00    +0.000 C 
ATOM     21  C   UNL     1       7.348   3.547  12.100  0.00  0.00    +0.000 C 
ENDBRANCH  16  17
ENDBRANCH  13  16
ENDBRANCH  12  13
ENDBRANCH   1  12
TORSDOF 7
ENDMDL
