MODEL 1
REMARK VINA RESULT:      -8.2      0.000      0.000
REMARK  Name = 
REMARK  7 active torsions:
REMARK  status: ('A' for Active; 'I' for Inactive)
REMARK    1  A    between atoms: C_1  and  C_2
REMARK    2  A    between atoms: C_5  and  O_6
REMARK    3  A    between atoms: O_6  and  C_7
REMARK    4  A    between atoms: C_10  and  C_11
REMARK    5  A    between atoms: C_11  and  N_12
REMARK    6  A    between atoms: C_14  and  C_15
REMARK    7  A    between atoms: C_17  and  C_18
REMARK                            x       y       z     vdW  Elec       q    Type
REMARK                         _______ _______ _______ _____ _____    ______ ____
ROOT
ATOM      1  C   UNL     1       7.239   5.629  16.384  0.00  0.00    +0.000 A 
ATOM      2  N   UNL     1       7.696   4.701  17.195  0.00  0.00    +0.000 NA
ATOM      3  C   UNL     1       6.825   4.525  18.244  0.00  0.00    +0.000 A 
ATOM      4  C   UNL     1       5.769   5.412  18.292  0.00  0.00    +0.000 A 
ATOM      5  S   UNL     1       5.920   6.534  16.986  0.00  0.00    +0.000 S 
ENDROOT
BRANCH   1   6
ATOM      6  O   UNL     1       7.680   5.789  15.122  0.00  0.00    +0.000 OA
BRANCH   6  11
ATOM      7  C   UNL     1       5.542   2.159  11.364  0.00  0.00    +0.000 C 
ATOM      8  C   UNL     1       6.002   3.262  12.267  0.00  0.00    +0.000 A 
ATOM      9  C   UNL     1       5.305   3.531  13.444  0.00  0.00    +0.000 A 
ATOM     10  C   UNL     1       5.811   4.451  14.352  0.00  0.00    +0.000 A 
ATOM     11  C   UNL     1       7.048   5.060  14.129  0.00  0.00    +0.000 A 
ATOM     12  C   UNL     1       7.686   4.903  12.903  0.00  0.00    +0.000 A 
ATOM     13  C   UNL     1       7.158   4.003  11.969  0.00  0.00    +0.000 A 
ENDBRANCH   6  11
ENDBRANCH   1   6
BRANCH   4  14
ATOM     14  C   UNL     1       4.568   5.485  19.180  0.00  0.00    +0.000 C 
BRANCH  14  15
ATOM     15  N   UNL     1       3.245   5.495  18.522  0.00  0.00    +0.000 NA
ATOM     16  C   UNL     1       2.389   4.337  18.882  0.00  0.00    +0.000 C 
ATOM     17  C   UNL     1       1.985   4.313  20.372  0.00  0.00    +0.000 C 
ATOM     18  C   UNL     1       1.073   3.135  20.684  0.00  0.00    +0.000 C 
ATOM     19  O   UNL     1       1.295   5.524  20.735  0.00  0.00    +0.000 OA
ATOM     20  C   UNL     1       2.094   6.683  20.447  0.00  0.00    +0.000 C 
ATOM     21  C   UNL     1       1.320   7.923  20.863  0.00  0.00    +0.000 C 
ATOM     22  C   UNL     1       2.497   6.714  18.950  0.00  0.00    +0.000 C 
ENDBRANCH  14  15
ENDBRANCH   4  14
TORSDOF 4
ENDMDL
MODEL 2
REMARK VINA RESULT:      -8.0      1.175      1.783
REMARK  Name = 
REMARK  7 active torsions:
REMARK  status: ('A' for Active; 'I' for Inactive)
REMARK    1  A    between atoms: C_1  and  C_2
REMARK    2  A    between atoms: C_5  and  O_6
REMARK    3  A    between atoms: O_6  and  C_7
REMARK    4  A    between atoms: C_10  and  C_11
REMARK    5  A    between atoms: C_11  and  N_12
REMARK    6  A    between atoms: C_14  and  C_15
REMARK    7  A    between atoms: C_17  and  C_18
REMARK                            x       y       z     vdW  Elec       q    Type
REMARK                         _______ _______ _______ _____ _____    ______ ____
ROOT
ATOM      1  C   UNL     1       7.213   5.617  16.402  0.00  0.00    +0.000 A 
ATOM      2  N   UNL     1       7.579   4.514  17.014  0.00  0.00    +0.000 NA
ATOM      3  C   UNL     1       6.800   4.315  18.130  0.00  0.00    +0.000 A 
ATOM      4  C   UNL     1       5.926   5.339  18.430  0.00  0.00    +0.000 A 
ATOM      5  S   UNL     1       6.139   6.614  17.282  0.00  0.00    +0.000 S 
ENDROOT
BRANCH   1   6
ATOM      6  O   UNL     1       7.546   5.900  15.128  0.00  0.00    +0.000 OA
BRANCH   6  11
ATOM      7  C   UNL     1       5.578   2.136  11.411  0.00  0.00    +0.000 C 
ATOM      8  C   UNL     1       6.002   3.271  12.291  0.00  0.00    +0.000 A 
ATOM      9  C   UNL     1       5.239   3.605  13.409  0.00  0.00    +0.000 A 
ATOM     10  C   UNL     1       5.705   4.557  14.305  0.00  0.00    +0.000 A 
ATOM     11  C   UNL     1       6.963   5.137  14.132  0.00  0.00    +0.000 A 
ATOM     12  C   UNL     1       7.672   4.914  12.956  0.00  0.00    +0.000 A 
ATOM     13  C   UNL     1       7.186   3.981  12.033  0.00  0.00    +0.000 A 
ENDBRANCH   6  11
ENDBRANCH   1   6
BRANCH   4  14
ATOM     14  C   UNL     1       4.851   5.462  19.462  0.00  0.00    +0.000 C 
BRANCH  14  15
ATOM     15  N   UNL     1       3.456   5.523  18.978  0.00  0.00    +0.000 NA
ATOM     16  C   UNL     1       3.154   4.548  17.900  0.00  0.00    +0.000 C 
ATOM     17  C   UNL     1       3.249   3.077  18.359  0.00  0.00    +0.000 C 
ATOM     18  C   UNL     1       2.888   2.117  17.234  0.00  0.00    +0.000 C 
ATOM     19  O   UNL     1       2.362   2.828  19.465  0.00  0.00    +0.000 OA
ATOM     20  C   UNL     1       2.634   3.717  20.561  0.00  0.00    +0.000 C 
ATOM     21  C   UNL     1       1.678   3.396  21.697  0.00  0.00    +0.000 C 
ATOM     22  C   UNL     1       2.534   5.196  20.105  0.00  0.00    +0.000 C 
ENDBRANCH  14  15
ENDBRANCH   4  14
TORSDOF 4
ENDMDL
MODEL 3
REMARK VINA RESULT:      -8.0      1.359      2.211
REMARK  Name = 
REMARK  7 active torsions:
REMARK  status: ('A' for Active; 'I' for Inactive)
REMARK    1  A    between atoms: C_1  and  C_2
REMARK    2  A    between atoms: C_5  and  O_6
REMARK    3  A    between atoms: O_6  and  C_7
REMARK    4  A    between atoms: C_10  and  C_11
REMARK    5  A    between atoms: C_11  and  N_12
REMARK    6  A    between atoms: C_14  and  C_15
REMARK    7  A    between atoms: C_17  and  C_18
REMARK                            x       y       z     vdW  Elec       q    Type
REMARK                         _______ _______ _______ _____ _____    ______ ____
ROOT
ATOM      1  C   UNL     1       7.083   5.813  16.671  0.00  0.00    +0.000 A 
ATOM      2  N   UNL     1       7.651   5.079  17.601  0.00  0.00    +0.000 NA
ATOM      3  C   UNL     1       6.771   4.869  18.636  0.00  0.00    +0.000 A 
ATOM      4  C   UNL     1       5.576   5.552  18.545  0.00  0.00    +0.000 A 
ATOM      5  S   UNL     1       5.598   6.530  17.119  0.00  0.00    +0.000 S 
ENDROOT
BRANCH   1   6
ATOM      6  O   UNL     1       7.554   5.906  15.413  0.00  0.00    +0.000 OA
BRANCH   6  11
ATOM      7  C   UNL     1       5.011   2.835  11.417  0.00  0.00    +0.000 C 
ATOM      8  C   UNL     1       5.798   3.489  12.511  0.00  0.00    +0.000 A 
ATOM      9  C   UNL     1       6.948   4.214  12.201  0.00  0.00    +0.000 A 
ATOM     10  C   UNL     1       7.595   4.940  13.191  0.00  0.00    +0.000 A 
ATOM     11  C   UNL     1       7.067   5.005  14.482  0.00  0.00    +0.000 A 
ATOM     12  C   UNL     1       6.002   4.183  14.837  0.00  0.00    +0.000 A 
ATOM     13  C   UNL     1       5.370   3.421  13.848  0.00  0.00    +0.000 A 
ENDBRANCH   6  11
ENDBRANCH   1   6
BRANCH   4  14
ATOM     14  C   UNL     1       4.336   5.510  19.379  0.00  0.00    +0.000 C 
BRANCH  14  15
ATOM     15  N   UNL     1       3.102   5.025  18.726  0.00  0.00    +0.000 NA
ATOM     16  C   UNL     1       3.293   3.788  17.928  0.00  0.00    +0.000 C 
ATOM     17  C   UNL     1       3.684   2.562  18.781  0.00  0.00    +0.000 C 
ATOM     18  C   UNL     1       3.825   1.310  17.927  0.00  0.00    +0.000 C 
ATOM     19  O   UNL     1       2.693   2.307  19.793  0.00  0.00    +0.000 OA
ATOM     20  C   UNL     1       2.492   3.459  20.628  0.00  0.00    +0.000 C 
ATOM     21  C   UNL     1       1.449   3.123  21.680  0.00  0.00    +0.000 C 
ATOM     22  C   UNL     1       2.094   4.692  19.775  0.00  0.00    +0.000 C 
ENDBRANCH  14  15
ENDBRANCH   4  14
TORSDOF 4
ENDMDL
MODEL 4
REMARK VINA RESULT:      -7.9      0.331      1.078
REMARK  Name = 
REMARK  7 active torsions:
REMARK  status: ('A' for Active; 'I' for Inactive)
REMARK    1  A    between atoms: C_1  and  C_2
REMARK    2  A    between atoms: C_5  and  O_6
REMARK    3  A    between atoms: O_6  and  C_7
REMARK    4  A    between atoms: C_10  and  C_11
REMARK    5  A    between atoms: C_11  and  N_12
REMARK    6  A    between atoms: C_14  and  C_15
REMARK    7  A    between atoms: C_17  and  C_18
REMARK                            x       y       z     vdW  Elec       q    Type
REMARK                         _______ _______ _______ _____ _____    ______ ____
ROOT
ATOM      1  C   UNL     1       7.184   5.644  16.356  0.00  0.00    +0.000 A 
ATOM      2  N   UNL     1       7.688   4.816  17.244  0.00  0.00    +0.000 NA
ATOM      3  C   UNL     1       6.838   4.707  18.319  0.00  0.00    +0.000 A 
ATOM      4  C   UNL     1       5.749   5.554  18.301  0.00  0.00    +0.000 A 
ATOM      5  S   UNL     1       5.839   6.552  16.892  0.00  0.00    +0.000 S 
ENDROOT
BRANCH   1   6
ATOM      6  O   UNL     1       7.602   5.699  15.077  0.00  0.00    +0.000 OA
BRANCH   6  11
ATOM      7  C   UNL     1       4.675   2.884  11.156  0.00  0.00    +0.000 C 
ATOM      8  C   UNL     1       5.538   3.456  12.238  0.00  0.00    +0.000 A 
ATOM      9  C   UNL     1       6.786   3.991  11.920  0.00  0.00    +0.000 A 
ATOM     10  C   UNL     1       7.523   4.652  12.893  0.00  0.00    +0.000 A 
ATOM     11  C   UNL     1       6.996   4.844  14.172  0.00  0.00    +0.000 A 
ATOM     12  C   UNL     1       5.818   4.203  14.539  0.00  0.00    +0.000 A 
ATOM     13  C   UNL     1       5.090   3.505  13.569  0.00  0.00    +0.000 A 
ENDBRANCH   6  11
ENDBRANCH   1   6
BRANCH   4  14
ATOM     14  C   UNL     1       4.559   5.666  19.197  0.00  0.00    +0.000 C 
BRANCH  14  15
ATOM     15  N   UNL     1       3.229   5.662  18.554  0.00  0.00    +0.000 NA
ATOM     16  C   UNL     1       2.384   4.502  18.932  0.00  0.00    +0.000 C 
ATOM     17  C   UNL     1       1.995   4.487  20.426  0.00  0.00    +0.000 C 
ATOM     18  C   UNL     1       1.094   3.306  20.757  0.00  0.00    +0.000 C 
ATOM     19  O   UNL     1       1.302   5.697  20.786  0.00  0.00    +0.000 OA
ATOM     20  C   UNL     1       2.089   6.859  20.480  0.00  0.00    +0.000 C 
ATOM     21  C   UNL     1       1.312   8.097  20.894  0.00  0.00    +0.000 C 
ATOM     22  C   UNL     1       2.477   6.880  18.979  0.00  0.00    +0.000 C 
ENDBRANCH  14  15
ENDBRANCH   4  14
TORSDOF 4
ENDMDL
MODEL 5
REMARK VINA RESULT:      -7.6      1.633      1.869
REMARK  Name = 
REMARK  7 active torsions:
REMARK  status: ('A' for Active; 'I' for Inactive)
REMARK    1  A    between atoms: C_1  and  C_2
REMARK    2  A    between atoms: C_5  and  O_6
REMARK    3  A    between atoms: O_6  and  C_7
REMARK    4  A    between atoms: C_10  and  C_11
REMARK    5  A    between atoms: C_11  and  N_12
REMARK    6  A    between atoms: C_14  and  C_15
REMARK    7  A    between atoms: C_17  and  C_18
REMARK                            x       y       z     vdW  Elec       q    Type
REMARK                         _______ _______ _______ _____ _____    ______ ____
ROOT
ATOM      1  C   UNL     1       7.165   5.520  16.326  0.00  0.00    +0.000 A 
ATOM      2  N   UNL     1       7.994   4.764  17.011  0.00  0.00    +0.000 NA
ATOM      3  C   UNL     1       7.355   4.247  18.114  0.00  0.00    +0.000 A 
ATOM      4  C   UNL     1       6.076   4.716  18.330  0.00  0.00    +0.000 A 
ATOM      5  S   UNL     1       5.696   5.888  17.117  0.00  0.00    +0.000 S 
ENDROOT
BRANCH   1   6
ATOM      6  O   UNL     1       7.383   5.885  15.048  0.00  0.00    +0.000 OA
BRANCH   6  11
ATOM      7  C   UNL     1       5.689   1.980  11.340  0.00  0.00    +0.000 C 
ATOM      8  C   UNL     1       6.028   3.144  12.220  0.00  0.00    +0.000 A 
ATOM      9  C   UNL     1       5.254   3.410  13.348  0.00  0.00    +0.000 A 
ATOM     10  C   UNL     1       5.650   4.395  14.243  0.00  0.00    +0.000 A 
ATOM     11  C   UNL     1       6.853   5.078  14.056  0.00  0.00    +0.000 A 
ATOM     12  C   UNL     1       7.564   4.919  12.871  0.00  0.00    +0.000 A 
ATOM     13  C   UNL     1       7.146   3.951  11.950  0.00  0.00    +0.000 A 
ENDBRANCH   6  11
ENDBRANCH   1   6
BRANCH   4  14
ATOM     14  C   UNL     1       5.027   4.329  19.323  0.00  0.00    +0.000 C 
BRANCH  14  15
ATOM     15  N   UNL     1       4.349   3.033  19.114  0.00  0.00    +0.000 NA
ATOM     16  C   UNL     1       3.613   2.544  20.307  0.00  0.00    +0.000 C 
ATOM     17  C   UNL     1       2.425   3.445  20.708  0.00  0.00    +0.000 C 
ATOM     18  C   UNL     1       1.676   2.880  21.907  0.00  0.00    +0.000 C 
ATOM     19  O   UNL     1       1.494   3.578  19.618  0.00  0.00    +0.000 OA
ATOM     20  C   UNL     1       2.141   4.089  18.440  0.00  0.00    +0.000 C 
ATOM     21  C   UNL     1       1.107   4.219  17.334  0.00  0.00    +0.000 C 
ATOM     22  C   UNL     1       3.332   3.184  18.032  0.00  0.00    +0.000 C 
ENDBRANCH  14  15
ENDBRANCH   4  14
TORSDOF 4
ENDMDL
MODEL 6
REMARK VINA RESULT:      -7.1      1.658      2.156
REMARK  Name = 
REMARK  7 active torsions:
REMARK  status: ('A' for Active; 'I' for Inactive)
REMARK    1  A    between atoms: C_1  and  C_2
REMARK    2  A    between atoms: C_5  and  O_6
REMARK    3  A    between atoms: O_6  and  C_7
REMARK    4  A    between atoms: C_10  and  C_11
REMARK    5  A    between atoms: C_11  and  N_12
REMARK    6  A    between atoms: C_14  and  C_15
REMARK    7  A    between atoms: C_17  and  C_18
REMARK                            x       y       z     vdW  Elec       q    Type
REMARK                         _______ _______ _______ _____ _____    ______ ____
ROOT
ATOM      1  C   UNL     1       6.894   5.680  16.533  0.00  0.00    +0.000 A 
ATOM      2  N   UNL     1       7.836   5.150  17.280  0.00  0.00    +0.000 NA
ATOM      3  C   UNL     1       7.282   4.602  18.413  0.00  0.00    +0.000 A 
ATOM      4  C   UNL     1       5.932   4.830  18.582  0.00  0.00    +0.000 A 
ATOM      5  S   UNL     1       5.363   5.815  17.280  0.00  0.00    +0.000 S 
ENDROOT
BRANCH   1   6
ATOM      6  O   UNL     1       7.068   5.985  15.233  0.00  0.00    +0.000 OA
BRANCH   6  11
ATOM      7  C   UNL     1       5.414   2.467  11.139  0.00  0.00    +0.000 C 
ATOM      8  C   UNL     1       5.974   3.255  12.284  0.00  0.00    +0.000 A 
ATOM      9  C   UNL     1       7.078   4.082  12.082  0.00  0.00    +0.000 A 
ATOM     10  C   UNL     1       7.508   4.922  13.101  0.00  0.00    +0.000 A 
ATOM     11  C   UNL     1       6.804   4.993  14.304  0.00  0.00    +0.000 A 
ATOM     12  C   UNL     1       5.788   4.080  14.567  0.00  0.00    +0.000 A 
ATOM     13  C   UNL     1       5.376   3.207  13.554  0.00  0.00    +0.000 A 
ENDBRANCH   6  11
ENDBRANCH   1   6
BRANCH   4  14
ATOM     14  C   UNL     1       4.954   4.322  19.592  0.00  0.00    +0.000 C 
BRANCH  14  15
ATOM     15  N   UNL     1       4.321   3.015  19.318  0.00  0.00    +0.000 NA
ATOM     16  C   UNL     1       3.527   2.484  20.454  0.00  0.00    +0.000 C 
ATOM     17  C   UNL     1       2.295   3.350  20.800  0.00  0.00    +0.000 C 
ATOM     18  C   UNL     1       1.490   2.743  21.940  0.00  0.00    +0.000 C 
ATOM     19  O   UNL     1       1.429   3.484  19.658  0.00  0.00    +0.000 OA
ATOM     20  C   UNL     1       2.133   4.034  18.532  0.00  0.00    +0.000 C 
ATOM     21  C   UNL     1       1.165   4.164  17.368  0.00  0.00    +0.000 C 
ATOM     22  C   UNL     1       3.367   3.165  18.179  0.00  0.00    +0.000 C 
ENDBRANCH  14  15
ENDBRANCH   4  14
TORSDOF 4
ENDMDL
MODEL 7
REMARK VINA RESULT:      -7.1      5.243      8.216
REMARK  Name = 
REMARK  7 active torsions:
REMARK  status: ('A' for Active; 'I' for Inactive)
REMARK    1  A    between atoms: C_1  and  C_2
REMARK    2  A    between atoms: C_5  and  O_6
REMARK    3  A    between atoms: O_6  and  C_7
REMARK    4  A    between atoms: C_10  and  C_11
REMARK    5  A    between atoms: C_11  and  N_12
REMARK    6  A    between atoms: C_14  and  C_15
REMARK    7  A    between atoms: C_17  and  C_18
REMARK                            x       y       z     vdW  Elec       q    Type
REMARK                         _______ _______ _______ _____ _____    ______ ____
ROOT
ATOM      1  C   UNL     1       1.612   8.717  19.458  0.00  0.00    +0.000 A 
ATOM      2  N   UNL     1       0.977   9.130  20.532  0.00  0.00    +0.000 NA
ATOM      3  C   UNL     1      -0.157   9.818  20.171  0.00  0.00    +0.000 A 
ATOM      4  C   UNL     1      -0.313  10.033  18.817  0.00  0.00    +0.000 A 
ATOM      5  S   UNL     1       1.055   9.380  17.985  0.00  0.00    +0.000 S 
ENDROOT
BRANCH   1   6
ATOM      6  O   UNL     1       2.550   7.751  19.481  0.00  0.00    +0.000 OA
BRANCH   6  11
ATOM      7  C   UNL     1       1.596   2.198  19.127  0.00  0.00    +0.000 C 
ATOM      8  C   UNL     1       1.656   3.694  19.179  0.00  0.00    +0.000 A 
ATOM      9  C   UNL     1       1.463   4.354  20.392  0.00  0.00    +0.000 A 
ATOM     10  C   UNL     1       1.662   5.726  20.472  0.00  0.00    +0.000 A 
ATOM     11  C   UNL     1       2.118   6.441  19.363  0.00  0.00    +0.000 A 
ATOM     12  C   UNL     1       2.184   5.822  18.119  0.00  0.00    +0.000 A 
ATOM     13  C   UNL     1       1.949   4.445  18.028  0.00  0.00    +0.000 A 
ENDBRANCH   6  11
ENDBRANCH   1   6
BRANCH   4  14
ATOM     14  C   UNL     1      -1.435  10.620  18.024  0.00  0.00    +0.000 C 
BRANCH  14  15
ATOM     15  N   UNL     1      -2.627   9.772  17.813  0.00  0.00    +0.000 NA
ATOM     16  C   UNL     1      -3.912  10.468  18.072  0.00  0.00    +0.000 C 
ATOM     17  C   UNL     1      -4.190  11.627  17.089  0.00  0.00    +0.000 C 
ATOM     18  C   UNL     1      -5.536  12.282  17.364  0.00  0.00    +0.000 C 
ATOM     19  O   UNL     1      -4.189  11.154  15.729  0.00  0.00    +0.000 OA
ATOM     20  C   UNL     1      -2.949  10.503  15.404  0.00  0.00    +0.000 C 
ATOM     21  C   UNL     1      -3.006  10.042  13.958  0.00  0.00    +0.000 C 
ATOM     22  C   UNL     1      -2.669   9.336  16.386  0.00  0.00    +0.000 C 
ENDBRANCH  14  15
ENDBRANCH   4  14
TORSDOF 4
ENDMDL
MODEL 8
REMARK VINA RESULT:      -7.0      1.424      2.344
REMARK  Name = 
REMARK  7 active torsions:
REMARK  status: ('A' for Active; 'I' for Inactive)
REMARK    1  A    between atoms: C_1  and  C_2
REMARK    2  A    between atoms: C_5  and  O_6
REMARK    3  A    between atoms: O_6  and  C_7
REMARK    4  A    between atoms: C_10  and  C_11
REMARK    5  A    between atoms: C_11  and  N_12
REMARK    6  A    between atoms: C_14  and  C_15
REMARK    7  A    between atoms: C_17  and  C_18
REMARK                            x       y       z     vdW  Elec       q    Type
REMARK                         _______ _______ _______ _____ _____    ______ ____
ROOT
ATOM      1  C   UNL     1       7.099   5.705  16.345  0.00  0.00    +0.000 A 
ATOM      2  N   UNL     1       7.609   4.974  17.311  0.00  0.00    +0.000 NA
ATOM      3  C   UNL     1       6.679   4.797  18.308  0.00  0.00    +0.000 A 
ATOM      4  C   UNL     1       5.504   5.504  18.152  0.00  0.00    +0.000 A 
ATOM      5  S   UNL     1       5.611   6.459  16.715  0.00  0.00    +0.000 S 
ENDROOT
BRANCH   1   6
ATOM      6  O   UNL     1       7.628   5.768  15.109  0.00  0.00    +0.000 OA
BRANCH   6  11
ATOM      7  C   UNL     1       5.569   2.117  11.328  0.00  0.00    +0.000 C 
ATOM      8  C   UNL     1       6.004   3.223  12.239  0.00  0.00    +0.000 A 
ATOM      9  C   UNL     1       5.307   3.462  13.423  0.00  0.00    +0.000 A 
ATOM     10  C   UNL     1       5.793   4.386  14.337  0.00  0.00    +0.000 A 
ATOM     11  C   UNL     1       7.011   5.031  14.113  0.00  0.00    +0.000 A 
ATOM     12  C   UNL     1       7.645   4.904  12.881  0.00  0.00    +0.000 A 
ATOM     13  C   UNL     1       7.137   3.999  11.942  0.00  0.00    +0.000 A 
ENDBRANCH   6  11
ENDBRANCH   1   6
BRANCH   4  14
ATOM     14  C   UNL     1       4.228   5.499  18.930  0.00  0.00    +0.000 C 
BRANCH  14  15
ATOM     15  N   UNL     1       4.119   4.530  20.040  0.00  0.00    +0.000 NA
ATOM     16  C   UNL     1       2.746   4.399  20.589  0.00  0.00    +0.000 C 
ATOM     17  C   UNL     1       1.735   3.815  19.579  0.00  0.00    +0.000 C 
ATOM     18  C   UNL     1       0.354   3.659  20.199  0.00  0.00    +0.000 C 
ATOM     19  O   UNL     1       2.167   2.524  19.111  0.00  0.00    +0.000 OA
ATOM     20  C   UNL     1       3.479   2.593  18.529  0.00  0.00    +0.000 C 
ATOM     21  C   UNL     1       3.871   1.208  18.044  0.00  0.00    +0.000 C 
ATOM     22  C   UNL     1       4.499   3.175  19.542  0.00  0.00    +0.000 C 
ENDBRANCH  14  15
ENDBRANCH   4  14
TORSDOF 4
ENDMDL
MODEL 9
REMARK VINA RESULT:      -6.9      4.212      8.275
REMARK  Name = 
REMARK  7 active torsions:
REMARK  status: ('A' for Active; 'I' for Inactive)
REMARK    1  A    between atoms: C_1  and  C_2
REMARK    2  A    between atoms: C_5  and  O_6
REMARK    3  A    between atoms: O_6  and  C_7
REMARK    4  A    between atoms: C_10  and  C_11
REMARK    5  A    between atoms: C_11  and  N_12
REMARK    6  A    between atoms: C_14  and  C_15
REMARK    7  A    between atoms: C_17  and  C_18
REMARK                            x       y       z     vdW  Elec       q    Type
REMARK                         _______ _______ _______ _____ _____    ______ ____
ROOT
ATOM      1  C   UNL     1       1.359  10.062  18.614  0.00  0.00    +0.000 A 
ATOM      2  N   UNL     1       2.074   9.587  17.619  0.00  0.00    +0.000 NA
ATOM      3  C   UNL     1       2.452   8.293  17.889  0.00  0.00    +0.000 A 
ATOM      4  C   UNL     1       2.128   7.832  19.149  0.00  0.00    +0.000 A 
ATOM      5  S   UNL     1       1.360   9.106  20.031  0.00  0.00    +0.000 S 
ENDROOT
BRANCH   1   6
ATOM      6  O   UNL     1       0.577  11.152  18.506  0.00  0.00    +0.000 OA
BRANCH   6  11
ATOM      7  C   UNL     1      -4.972  10.923  17.495  0.00  0.00    +0.000 C 
ATOM      8  C   UNL     1      -3.533  10.849  17.905  0.00  0.00    +0.000 A 
ATOM      9  C   UNL     1      -2.676   9.952  17.270  0.00  0.00    +0.000 A 
ATOM     10  C   UNL     1      -1.316   9.983  17.545  0.00  0.00    +0.000 A 
ATOM     11  C   UNL     1      -0.789  10.950  18.404  0.00  0.00    +0.000 A 
ATOM     12  C   UNL     1      -1.645  11.759  19.144  0.00  0.00    +0.000 A 
ATOM     13  C   UNL     1      -3.021  11.705  18.894  0.00  0.00    +0.000 A 
ENDBRANCH   6  11
ENDBRANCH   1   6
BRANCH   4  14
ATOM     14  C   UNL     1       2.253   6.483  19.780  0.00  0.00    +0.000 C 
BRANCH  14  15
ATOM     15  N   UNL     1       1.482   5.380  19.169  0.00  0.00    +0.000 NA
ATOM     16  C   UNL     1       2.210   4.667  18.089  0.00  0.00    +0.000 C 
ATOM     17  C   UNL     1       3.465   3.918  18.587  0.00  0.00    +0.000 C 
ATOM     18  C   UNL     1       4.152   3.167  17.455  0.00  0.00    +0.000 C 
ATOM     19  O   UNL     1       3.120   2.968  19.613  0.00  0.00    +0.000 OA
ATOM     20  C   UNL     1       2.446   3.608  20.709  0.00  0.00    +0.000 C 
ATOM     21  C   UNL     1       2.123   2.560  21.761  0.00  0.00    +0.000 C 
ATOM     22  C   UNL     1       1.182   4.357  20.214  0.00  0.00    +0.000 C 
ENDBRANCH  14  15
ENDBRANCH   4  14
TORSDOF 4
ENDMDL
