MODEL 1
REMARK VINA RESULT:      -8.3      0.000      0.000
REMARK  Name = 
REMARK  8 active torsions:
REMARK  status: ('A' for Active; 'I' for Inactive)
REMARK    1  A    between atoms: C_1  and  N_2
REMARK    2  A    between atoms: C_5  and  C_6
REMARK    3  A    between atoms: C_8  and  C_9
REMARK    4  A    between atoms: C_13  and  C_14
REMARK    5  A    between atoms: N_16  and  C_17
REMARK    6  A    between atoms: C_17  and  C_18
REMARK    7  A    between atoms: C_17  and  C_19
REMARK    8  A    between atoms: C_22  and  C_23
REMARK                            x       y       z     vdW  Elec       q    Type
REMARK                         _______ _______ _______ _____ _____    ______ ____
ROOT
ATOM      1  C   UNL     1       3.618   5.742  18.515  0.00  0.00    +0.000 A 
ATOM      2  C   UNL     1       3.110   4.580  19.119  0.00  0.00    +0.000 A 
ATOM      3  C   UNL     1       2.117   4.648  20.094  0.00  0.00    +0.000 A 
ATOM      4  C   UNL     1       1.611   5.889  20.473  0.00  0.00    +0.000 A 
ATOM      5  C   UNL     1       2.080   7.072  19.899  0.00  0.00    +0.000 A 
ATOM      6  C   UNL     1       3.093   6.987  18.932  0.00  0.00    +0.000 A 
ENDROOT
BRANCH   1  14
ATOM      7  C   UNL     1       8.084   7.625  18.247  0.00  0.00    +0.000 C 
ATOM      8  N   UNL     1       7.757   7.342  16.868  0.00  0.00    +0.000 N 
ATOM      9  C   UNL     1       6.653   6.515  16.709  0.00  0.00    +0.000 A 
ATOM     10  N   UNL     1       6.656   5.726  15.630  0.00  0.00    +0.000 NA
ATOM     11  C   UNL     1       5.606   4.899  15.467  0.00  0.00    +0.000 A 
ATOM     12  C   UNL     1       5.596   4.012  14.259  0.00  0.00    +0.000 C 
ATOM     13  C   UNL     1       4.567   4.837  16.370  0.00  0.00    +0.000 A 
ATOM     14  C   UNL     1       4.645   5.680  17.461  0.00  0.00    +0.000 A 
ATOM     15  N   UNL     1       5.688   6.515  17.631  0.00  0.00    +0.000 NA
ATOM     16  H   UNL     1       8.496   6.929  16.312  0.00  0.00    +0.000 HD
ENDBRANCH   1  14
BRANCH   5  17
ATOM     17  C   UNL     1       1.497   8.371  20.372  0.00  0.00    +0.000 C 
ATOM     18  O   UNL     1       1.449   8.613  21.575  0.00  0.00    +0.000 OA
ATOM     19  N   UNL     1       1.053   9.264  19.417  0.00  0.00    +0.000 N 
ATOM     20  H   UNL     1       0.790   8.916  18.507  0.00  0.00    +0.000 HD
BRANCH  19  21
ATOM     21  C   UNL     1       0.431  10.527  19.792  0.00  0.00    +0.000 C 
ATOM     22  C   UNL     1       1.404  11.684  19.562  0.00  0.00    +0.000 C 
BRANCH  21  23
ATOM     23  C   UNL     1      -0.825  10.706  18.980  0.00  0.00    +0.000 A 
ATOM     24  C   UNL     1      -1.910  11.496  19.317  0.00  0.00    +0.000 A 
ATOM     25  S   UNL     1      -3.110  11.406  18.100  0.00  0.00    +0.000 S 
ATOM     26  C   UNL     1      -2.121  10.312  17.219  0.00  0.00    +0.000 A 
ATOM     27  C   UNL     1      -2.604   9.720  15.942  0.00  0.00    +0.000 C 
ATOM     28  N   UNL     1      -0.952  10.041  17.761  0.00  0.00    +0.000 NA
ENDBRANCH  21  23
ENDBRANCH  19  21
ENDBRANCH   5  17
TORSDOF 4
ENDMDL
MODEL 2
REMARK VINA RESULT:      -8.2      2.719      4.331
REMARK  Name = 
REMARK  8 active torsions:
REMARK  status: ('A' for Active; 'I' for Inactive)
REMARK    1  A    between atoms: C_1  and  N_2
REMARK    2  A    between atoms: C_5  and  C_6
REMARK    3  A    between atoms: C_8  and  C_9
REMARK    4  A    between atoms: C_13  and  C_14
REMARK    5  A    between atoms: N_16  and  C_17
REMARK    6  A    between atoms: C_17  and  C_18
REMARK    7  A    between atoms: C_17  and  C_19
REMARK    8  A    between atoms: C_22  and  C_23
REMARK                            x       y       z     vdW  Elec       q    Type
REMARK                         _______ _______ _______ _____ _____    ______ ____
ROOT
ATOM      1  C   UNL     1       2.153   7.189  19.442  0.00  0.00    +0.000 A 
ATOM      2  C   UNL     1       2.277   7.743  18.157  0.00  0.00    +0.000 A 
ATOM      3  C   UNL     1       1.877   9.051  17.893  0.00  0.00    +0.000 A 
ATOM      4  C   UNL     1       1.351   9.829  18.921  0.00  0.00    +0.000 A 
ATOM      5  C   UNL     1       1.211   9.325  20.216  0.00  0.00    +0.000 A 
ATOM      6  C   UNL     1       1.602   8.000  20.461  0.00  0.00    +0.000 A 
ENDROOT
BRANCH   1  14
ATOM      7  C   UNL     1       6.376   4.932  18.645  0.00  0.00    +0.000 C 
ATOM      8  N   UNL     1       5.448   3.842  18.843  0.00  0.00    +0.000 N 
ATOM      9  C   UNL     1       4.232   4.231  19.392  0.00  0.00    +0.000 A 
ATOM     10  N   UNL     1       3.615   3.328  20.160  0.00  0.00    +0.000 NA
ATOM     11  C   UNL     1       2.445   3.692  20.721  0.00  0.00    +0.000 A 
ATOM     12  C   UNL     1       1.741   2.686  21.580  0.00  0.00    +0.000 C 
ATOM     13  C   UNL     1       1.896   4.942  20.541  0.00  0.00    +0.000 A 
ATOM     14  C   UNL     1       2.602   5.817  19.740  0.00  0.00    +0.000 A 
ATOM     15  N   UNL     1       3.769   5.463  19.169  0.00  0.00    +0.000 NA
ATOM     16  H   UNL     1       5.778   3.075  19.416  0.00  0.00    +0.000 HD
ENDBRANCH   1  14
BRANCH   5  17
ATOM     17  C   UNL     1       0.620  10.218  21.266  0.00  0.00    +0.000 C 
ATOM     18  O   UNL     1       0.875  10.015  22.450  0.00  0.00    +0.000 OA
ATOM     19  N   UNL     1      -0.180  11.263  20.848  0.00  0.00    +0.000 N 
ATOM     20  H   UNL     1      -0.637  11.201  19.951  0.00  0.00    +0.000 HD
BRANCH  19  21
ATOM     21  C   UNL     1      -0.830  12.150  21.805  0.00  0.00    +0.000 C 
ATOM     22  C   UNL     1      -0.066  13.470  21.906  0.00  0.00    +0.000 C 
BRANCH  21  23
ATOM     23  C   UNL     1      -2.252  12.378  21.362  0.00  0.00    +0.000 A 
ATOM     24  C   UNL     1      -2.701  12.433  20.055  0.00  0.00    +0.000 A 
ATOM     25  S   UNL     1      -4.390  12.704  20.019  0.00  0.00    +0.000 S 
ATOM     26  C   UNL     1      -4.409  12.751  21.736  0.00  0.00    +0.000 A 
ATOM     27  C   UNL     1      -5.675  13.025  22.469  0.00  0.00    +0.000 C 
ATOM     28  N   UNL     1      -3.248  12.547  22.322  0.00  0.00    +0.000 NA
ENDBRANCH  21  23
ENDBRANCH  19  21
ENDBRANCH   5  17
TORSDOF 4
ENDMDL
MODEL 3
REMARK VINA RESULT:      -8.1      2.674      3.986
REMARK  Name = 
REMARK  8 active torsions:
REMARK  status: ('A' for Active; 'I' for Inactive)
REMARK    1  A    between atoms: C_1  and  N_2
REMARK    2  A    between atoms: C_5  and  C_6
REMARK    3  A    between atoms: C_8  and  C_9
REMARK    4  A    between atoms: C_13  and  C_14
REMARK    5  A    between atoms: N_16  and  C_17
REMARK    6  A    between atoms: C_17  and  C_18
REMARK    7  A    between atoms: C_17  and  C_19
REMARK    8  A    between atoms: C_22  and  C_23
REMARK                            x       y       z     vdW  Elec       q    Type
REMARK                         _______ _______ _______ _____ _____    ______ ____
ROOT
ATOM      1  C   UNL     1       2.211   7.165  19.386  0.00  0.00    +0.000 A 
ATOM      2  C   UNL     1       2.369   7.706  18.100  0.00  0.00    +0.000 A 
ATOM      3  C   UNL     1       1.990   9.016  17.816  0.00  0.00    +0.000 A 
ATOM      4  C   UNL     1       1.452   9.809  18.826  0.00  0.00    +0.000 A 
ATOM      5  C   UNL     1       1.277   9.318  20.121  0.00  0.00    +0.000 A 
ATOM      6  C   UNL     1       1.647   7.991  20.385  0.00  0.00    +0.000 A 
ENDROOT
BRANCH   1  14
ATOM      7  C   UNL     1       6.347   4.782  18.505  0.00  0.00    +0.000 C 
ATOM      8  N   UNL     1       5.400   3.722  18.764  0.00  0.00    +0.000 N 
ATOM      9  C   UNL     1       4.215   4.155  19.344  0.00  0.00    +0.000 A 
ATOM     10  N   UNL     1       3.603   3.289  20.157  0.00  0.00    +0.000 NA
ATOM     11  C   UNL     1       2.463   3.695  20.748  0.00  0.00    +0.000 A 
ATOM     12  C   UNL     1       1.765   2.731  21.657  0.00  0.00    +0.000 C 
ATOM     13  C   UNL     1       1.938   4.954  20.553  0.00  0.00    +0.000 A 
ATOM     14  C   UNL     1       2.637   5.791  19.705  0.00  0.00    +0.000 A 
ATOM     15  N   UNL     1       3.774   5.392  19.104  0.00  0.00    +0.000 NA
ATOM     16  H   UNL     1       5.731   2.961  19.346  0.00  0.00    +0.000 HD
ENDBRANCH   1  14
BRANCH   5  17
ATOM     17  C   UNL     1       0.675  10.228  21.150  0.00  0.00    +0.000 C 
ATOM     18  O   UNL     1       0.733   9.923  22.339  0.00  0.00    +0.000 OA
ATOM     19  N   UNL     1       0.090  11.399  20.713  0.00  0.00    +0.000 N 
ATOM     20  H   UNL     1      -0.243  11.454  19.762  0.00  0.00    +0.000 HD
BRANCH  19  21
ATOM     21  C   UNL     1      -0.559  12.316  21.642  0.00  0.00    +0.000 C 
ATOM     22  C   UNL     1       0.178  13.654  21.665  0.00  0.00    +0.000 C 
BRANCH  21  23
ATOM     23  C   UNL     1      -1.994  12.494  21.219  0.00  0.00    +0.000 A 
ATOM     24  C   UNL     1      -3.006  13.053  21.980  0.00  0.00    +0.000 A 
ATOM     25  S   UNL     1      -4.474  13.060  21.101  0.00  0.00    +0.000 S 
ATOM     26  C   UNL     1      -3.676  12.304  19.781  0.00  0.00    +0.000 A 
ATOM     27  C   UNL     1      -4.434  11.928  18.557  0.00  0.00    +0.000 C 
ATOM     28  N   UNL     1      -2.389  12.080  19.948  0.00  0.00    +0.000 NA
ENDBRANCH  21  23
ENDBRANCH  19  21
ENDBRANCH   5  17
TORSDOF 4
ENDMDL
MODEL 4
REMARK VINA RESULT:      -8.0      0.824      1.118
REMARK  Name = 
REMARK  8 active torsions:
REMARK  status: ('A' for Active; 'I' for Inactive)
REMARK    1  A    between atoms: C_1  and  N_2
REMARK    2  A    between atoms: C_5  and  C_6
REMARK    3  A    between atoms: C_8  and  C_9
REMARK    4  A    between atoms: C_13  and  C_14
REMARK    5  A    between atoms: N_16  and  C_17
REMARK    6  A    between atoms: C_17  and  C_18
REMARK    7  A    between atoms: C_17  and  C_19
REMARK    8  A    between atoms: C_22  and  C_23
REMARK                            x       y       z     vdW  Elec       q    Type
REMARK                         _______ _______ _______ _____ _____    ______ ____
ROOT
ATOM      1  C   UNL     1       3.744   5.720  18.552  0.00  0.00    +0.000 A 
ATOM      2  C   UNL     1       3.329   4.577  19.256  0.00  0.00    +0.000 A 
ATOM      3  C   UNL     1       2.332   4.649  20.226  0.00  0.00    +0.000 A 
ATOM      4  C   UNL     1       1.728   5.873  20.499  0.00  0.00    +0.000 A 
ATOM      5  C   UNL     1       2.102   7.036  19.824  0.00  0.00    +0.000 A 
ATOM      6  C   UNL     1       3.121   6.950  18.864  0.00  0.00    +0.000 A 
ENDROOT
BRANCH   1  14
ATOM      7  C   UNL     1       8.093   7.840  18.155  0.00  0.00    +0.000 C 
ATOM      8  N   UNL     1       7.786   7.450  16.797  0.00  0.00    +0.000 N 
ATOM      9  C   UNL     1       6.733   6.551  16.694  0.00  0.00    +0.000 A 
ATOM     10  N   UNL     1       6.785   5.694  15.669  0.00  0.00    +0.000 NA
ATOM     11  C   UNL     1       5.785   4.798  15.562  0.00  0.00    +0.000 A 
ATOM     12  C   UNL     1       5.830   3.836  14.415  0.00  0.00    +0.000 C 
ATOM     13  C   UNL     1       4.749   4.734  16.469  0.00  0.00    +0.000 A 
ATOM     14  C   UNL     1       4.776   5.649  17.502  0.00  0.00    +0.000 A 
ATOM     15  N   UNL     1       5.767   6.554  17.616  0.00  0.00    +0.000 NA
ATOM     16  H   UNL     1       8.549   7.045  16.267  0.00  0.00    +0.000 HD
ENDBRANCH   1  14
BRANCH   5  17
ATOM     17  C   UNL     1       1.416   8.320  20.187  0.00  0.00    +0.000 C 
ATOM     18  O   UNL     1       0.967   8.470  21.320  0.00  0.00    +0.000 OA
ATOM     19  N   UNL     1       1.337   9.304  19.221  0.00  0.00    +0.000 N 
ATOM     20  H   UNL     1       1.392   9.041  18.249  0.00  0.00    +0.000 HD
BRANCH  19  21
ATOM     21  C   UNL     1       0.647  10.562  19.475  0.00  0.00    +0.000 C 
ATOM     22  C   UNL     1       1.508  11.739  19.017  0.00  0.00    +0.000 C 
BRANCH  21  23
ATOM     23  C   UNL     1      -0.674  10.543  18.751  0.00  0.00    +0.000 A 
ATOM     24  C   UNL     1      -0.968   9.821  17.608  0.00  0.00    +0.000 A 
ATOM     25  S   UNL     1      -2.590  10.092  17.137  0.00  0.00    +0.000 S 
ATOM     26  C   UNL     1      -2.788  11.162  18.466  0.00  0.00    +0.000 A 
ATOM     27  C   UNL     1      -4.075  11.880  18.672  0.00  0.00    +0.000 C 
ATOM     28  N   UNL     1      -1.735  11.300  19.245  0.00  0.00    +0.000 NA
ENDBRANCH  21  23
ENDBRANCH  19  21
ENDBRANCH   5  17
TORSDOF 4
ENDMDL
MODEL 5
REMARK VINA RESULT:      -7.7      2.680      4.741
REMARK  Name = 
REMARK  8 active torsions:
REMARK  status: ('A' for Active; 'I' for Inactive)
REMARK    1  A    between atoms: C_1  and  N_2
REMARK    2  A    between atoms: C_5  and  C_6
REMARK    3  A    between atoms: C_8  and  C_9
REMARK    4  A    between atoms: C_13  and  C_14
REMARK    5  A    between atoms: N_16  and  C_17
REMARK    6  A    between atoms: C_17  and  C_18
REMARK    7  A    between atoms: C_17  and  C_19
REMARK    8  A    between atoms: C_22  and  C_23
REMARK                            x       y       z     vdW  Elec       q    Type
REMARK                         _______ _______ _______ _____ _____    ______ ____
ROOT
ATOM      1  C   UNL     1       1.291   8.704  19.624  0.00  0.00    +0.000 A 
ATOM      2  C   UNL     1       1.112   8.966  20.992  0.00  0.00    +0.000 A 
ATOM      3  C   UNL     1       0.198   9.923  21.430  0.00  0.00    +0.000 A 
ATOM      4  C   UNL     1      -0.558  10.627  20.497  0.00  0.00    +0.000 A 
ATOM      5  C   UNL     1      -0.419  10.400  19.127  0.00  0.00    +0.000 A 
ATOM      6  C   UNL     1       0.518   9.446  18.701  0.00  0.00    +0.000 A 
ENDROOT
BRANCH   1  14
ATOM      7  C   UNL     1       2.034   4.120  21.039  0.00  0.00    +0.000 C 
ATOM      8  N   UNL     1       3.249   4.451  20.330  0.00  0.00    +0.000 N 
ATOM      9  C   UNL     1       3.157   5.607  19.565  0.00  0.00    +0.000 A 
ATOM     10  N   UNL     1       3.909   5.646  18.461  0.00  0.00    +0.000 NA
ATOM     11  C   UNL     1       3.819   6.747  17.691  0.00  0.00    +0.000 A 
ATOM     12  C   UNL     1       4.661   6.805  16.453  0.00  0.00    +0.000 C 
ATOM     13  C   UNL     1       2.980   7.797  17.997  0.00  0.00    +0.000 A 
ATOM     14  C   UNL     1       2.232   7.673  19.151  0.00  0.00    +0.000 A 
ATOM     15  N   UNL     1       2.318   6.578  19.931  0.00  0.00    +0.000 NA
ATOM     16  H   UNL     1       3.612   3.737  19.711  0.00  0.00    +0.000 HD
ENDBRANCH   1  14
BRANCH   5  17
ATOM     17  C   UNL     1      -1.257  11.211  18.183  0.00  0.00    +0.000 C 
ATOM     18  O   UNL     1      -1.035  12.411  18.051  0.00  0.00    +0.000 OA
ATOM     19  N   UNL     1      -2.245  10.557  17.473  0.00  0.00    +0.000 N 
ATOM     20  H   UNL     1      -2.622   9.696  17.839  0.00  0.00    +0.000 HD
BRANCH  19  21
ATOM     21  C   UNL     1      -3.134  11.278  16.571  0.00  0.00    +0.000 C 
ATOM     22  C   UNL     1      -3.190  10.578  15.213  0.00  0.00    +0.000 C 
BRANCH  21  23
ATOM     23  C   UNL     1      -4.501  11.353  17.199  0.00  0.00    +0.000 A 
ATOM     24  C   UNL     1      -5.428  12.364  17.019  0.00  0.00    +0.000 A 
ATOM     25  S   UNL     1      -6.846  12.035  17.919  0.00  0.00    +0.000 S 
ATOM     26  C   UNL     1      -6.130  10.587  18.501  0.00  0.00    +0.000 A 
ATOM     27  C   UNL     1      -6.855   9.725  19.474  0.00  0.00    +0.000 C 
ATOM     28  N   UNL     1      -4.923  10.327  18.043  0.00  0.00    +0.000 NA
ENDBRANCH  21  23
ENDBRANCH  19  21
ENDBRANCH   5  17
TORSDOF 4
ENDMDL
MODEL 6
REMARK VINA RESULT:      -7.7      2.334      3.812
REMARK  Name = 
REMARK  8 active torsions:
REMARK  status: ('A' for Active; 'I' for Inactive)
REMARK    1  A    between atoms: C_1  and  N_2
REMARK    2  A    between atoms: C_5  and  C_6
REMARK    3  A    between atoms: C_8  and  C_9
REMARK    4  A    between atoms: C_13  and  C_14
REMARK    5  A    between atoms: N_16  and  C_17
REMARK    6  A    between atoms: C_17  and  C_18
REMARK    7  A    between atoms: C_17  and  C_19
REMARK    8  A    between atoms: C_22  and  C_23
REMARK                            x       y       z     vdW  Elec       q    Type
REMARK                         _______ _______ _______ _____ _____    ______ ____
ROOT
ATOM      1  C   UNL     1       2.088   7.714  19.506  0.00  0.00    +0.000 A 
ATOM      2  C   UNL     1       1.812   7.617  20.880  0.00  0.00    +0.000 A 
ATOM      3  C   UNL     1       0.906   8.477  21.497  0.00  0.00    +0.000 A 
ATOM      4  C   UNL     1       0.254   9.446  20.739  0.00  0.00    +0.000 A 
ATOM      5  C   UNL     1       0.492   9.580  19.370  0.00  0.00    +0.000 A 
ATOM      6  C   UNL     1       1.420   8.718  18.767  0.00  0.00    +0.000 A 
ENDROOT
BRANCH   1  14
ATOM      7  C   UNL     1       3.145   3.047  20.321  0.00  0.00    +0.000 C 
ATOM      8  N   UNL     1       4.273   3.515  19.549  0.00  0.00    +0.000 N 
ATOM      9  C   UNL     1       4.063   4.740  18.930  0.00  0.00    +0.000 A 
ATOM     10  N   UNL     1       4.705   4.938  17.775  0.00  0.00    +0.000 NA
ATOM     11  C   UNL     1       4.498   6.110  17.146  0.00  0.00    +0.000 A 
ATOM     12  C   UNL     1       5.217   6.345  15.852  0.00  0.00    +0.000 C 
ATOM     13  C   UNL     1       3.651   7.076  17.643  0.00  0.00    +0.000 A 
ATOM     14  C   UNL     1       3.020   6.789  18.837  0.00  0.00    +0.000 A 
ATOM     15  N   UNL     1       3.224   5.623  19.478  0.00  0.00    +0.000 NA
ATOM     16  H   UNL     1       4.605   2.891  18.823  0.00  0.00    +0.000 HD
ENDBRANCH   1  14
BRANCH   5  17
ATOM     17  C   UNL     1      -0.236  10.660  18.624  0.00  0.00    +0.000 C 
ATOM     18  O   UNL     1       0.232  11.794  18.588  0.00  0.00    +0.000 OA
ATOM     19  N   UNL     1      -1.409  10.320  17.981  0.00  0.00    +0.000 N 
ATOM     20  H   UNL     1      -1.929   9.517  18.302  0.00  0.00    +0.000 HD
BRANCH  19  21
ATOM     21  C   UNL     1      -2.202  11.318  17.274  0.00  0.00    +0.000 C 
ATOM     22  C   UNL     1      -2.618  10.788  15.902  0.00  0.00    +0.000 C 
BRANCH  21  23
ATOM     23  C   UNL     1      -3.407  11.659  18.111  0.00  0.00    +0.000 A 
ATOM     24  C   UNL     1      -3.393  12.272  19.351  0.00  0.00    +0.000 A 
ATOM     25  S   UNL     1      -4.990  12.470  19.933  0.00  0.00    +0.000 S 
ATOM     26  C   UNL     1      -5.591  11.713  18.514  0.00  0.00    +0.000 A 
ATOM     27  C   UNL     1      -7.051  11.480  18.344  0.00  0.00    +0.000 C 
ATOM     28  N   UNL     1      -4.681  11.355  17.632  0.00  0.00    +0.000 NA
ENDBRANCH  21  23
ENDBRANCH  19  21
ENDBRANCH   5  17
TORSDOF 4
ENDMDL
MODEL 7
REMARK VINA RESULT:      -7.7      2.342      4.183
REMARK  Name = 
REMARK  8 active torsions:
REMARK  status: ('A' for Active; 'I' for Inactive)
REMARK    1  A    between atoms: C_1  and  N_2
REMARK    2  A    between atoms: C_5  and  C_6
REMARK    3  A    between atoms: C_8  and  C_9
REMARK    4  A    between atoms: C_13  and  C_14
REMARK    5  A    between atoms: N_16  and  C_17
REMARK    6  A    between atoms: C_17  and  C_18
REMARK    7  A    between atoms: C_17  and  C_19
REMARK    8  A    between atoms: C_22  and  C_23
REMARK                            x       y       z     vdW  Elec       q    Type
REMARK                         _______ _______ _______ _____ _____    ______ ____
ROOT
ATOM      1  C   UNL     1       1.825   8.035  19.562  0.00  0.00    +0.000 A 
ATOM      2  C   UNL     1       1.574   8.013  20.944  0.00  0.00    +0.000 A 
ATOM      3  C   UNL     1       0.659   8.888  21.525  0.00  0.00    +0.000 A 
ATOM      4  C   UNL     1      -0.028   9.795  20.723  0.00  0.00    +0.000 A 
ATOM      5  C   UNL     1       0.183   9.853  19.345  0.00  0.00    +0.000 A 
ATOM      6  C   UNL     1       1.122   8.978  18.778  0.00  0.00    +0.000 A 
ENDROOT
BRANCH   1  14
ATOM      7  C   UNL     1       2.783   3.357  20.436  0.00  0.00    +0.000 C 
ATOM      8  N   UNL     1       3.945   3.804  19.703  0.00  0.00    +0.000 N 
ATOM      9  C   UNL     1       3.776   5.030  19.072  0.00  0.00    +0.000 A 
ATOM     10  N   UNL     1       4.463   5.212  17.941  0.00  0.00    +0.000 NA
ATOM     11  C   UNL     1       4.297   6.385  17.299  0.00  0.00    +0.000 A 
ATOM     12  C   UNL     1       5.066   6.603  16.032  0.00  0.00    +0.000 C 
ATOM     13  C   UNL     1       3.446   7.366  17.761  0.00  0.00    +0.000 A 
ATOM     14  C   UNL     1       2.768   7.094  18.932  0.00  0.00    +0.000 A 
ATOM     15  N   UNL     1       2.931   5.927  19.585  0.00  0.00    +0.000 NA
ATOM     16  H   UNL     1       4.295   3.172  18.993  0.00  0.00    +0.000 HD
ENDBRANCH   1  14
BRANCH   5  17
ATOM     17  C   UNL     1      -0.582  10.870  18.550  0.00  0.00    +0.000 C 
ATOM     18  O   UNL     1      -0.173  12.026  18.488  0.00  0.00    +0.000 OA
ATOM     19  N   UNL     1      -1.722  10.450  17.893  0.00  0.00    +0.000 N 
ATOM     20  H   UNL     1      -2.206   9.631  18.229  0.00  0.00    +0.000 HD
BRANCH  19  21
ATOM     21  C   UNL     1      -2.549  11.382  17.138  0.00  0.00    +0.000 C 
ATOM     22  C   UNL     1      -2.739  10.881  15.707  0.00  0.00    +0.000 C 
BRANCH  21  23
ATOM     23  C   UNL     1      -3.873  11.531  17.842  0.00  0.00    +0.000 A 
ATOM     24  C   UNL     1      -5.110  11.172  17.337  0.00  0.00    +0.000 A 
ATOM     25  S   UNL     1      -6.337  11.512  18.480  0.00  0.00    +0.000 S 
ATOM     26  C   UNL     1      -5.151  12.130  19.557  0.00  0.00    +0.000 A 
ATOM     27  C   UNL     1      -5.550  12.706  20.870  0.00  0.00    +0.000 C 
ATOM     28  N   UNL     1      -3.907  12.068  19.128  0.00  0.00    +0.000 NA
ENDBRANCH  21  23
ENDBRANCH  19  21
ENDBRANCH   5  17
TORSDOF 4
ENDMDL
MODEL 8
REMARK VINA RESULT:      -7.7      3.249      5.065
REMARK  Name = 
REMARK  8 active torsions:
REMARK  status: ('A' for Active; 'I' for Inactive)
REMARK    1  A    between atoms: C_1  and  N_2
REMARK    2  A    between atoms: C_5  and  C_6
REMARK    3  A    between atoms: C_8  and  C_9
REMARK    4  A    between atoms: C_13  and  C_14
REMARK    5  A    between atoms: N_16  and  C_17
REMARK    6  A    between atoms: C_17  and  C_18
REMARK    7  A    between atoms: C_17  and  C_19
REMARK    8  A    between atoms: C_22  and  C_23
REMARK                            x       y       z     vdW  Elec       q    Type
REMARK                         _______ _______ _______ _____ _____    ______ ____
ROOT
ATOM      1  C   UNL     1       1.534   8.355  19.703  0.00  0.00    +0.000 A 
ATOM      2  C   UNL     1       1.566   9.175  18.563  0.00  0.00    +0.000 A 
ATOM      3  C   UNL     1       1.018  10.456  18.578  0.00  0.00    +0.000 A 
ATOM      4  C   UNL     1       0.435  10.938  19.746  0.00  0.00    +0.000 A 
ATOM      5  C   UNL     1       0.381  10.164  20.906  0.00  0.00    +0.000 A 
ATOM      6  C   UNL     1       0.921   8.870  20.869  0.00  0.00    +0.000 A 
ENDROOT
BRANCH   1  14
ATOM      7  C   UNL     1       5.346   6.524  17.321  0.00  0.00    +0.000 C 
ATOM      8  N   UNL     1       4.609   5.348  17.725  0.00  0.00    +0.000 N 
ATOM      9  C   UNL     1       3.637   5.596  18.686  0.00  0.00    +0.000 A 
ATOM     10  N   UNL     1       3.376   4.596  19.534  0.00  0.00    +0.000 NA
ATOM     11  C   UNL     1       2.454   4.821  20.489  0.00  0.00    +0.000 A 
ATOM     12  C   UNL     1       2.149   3.707  21.443  0.00  0.00    +0.000 C 
ATOM     13  C   UNL     1       1.803   6.029  20.618  0.00  0.00    +0.000 A 
ATOM     14  C   UNL     1       2.137   7.011  19.707  0.00  0.00    +0.000 A 
ATOM     15  N   UNL     1       3.054   6.795  18.745  0.00  0.00    +0.000 NA
ATOM     16  H   UNL     1       5.161   4.577  18.081  0.00  0.00    +0.000 HD
ENDBRANCH   1  14
BRANCH   5  17
ATOM     17  C   UNL     1      -0.279  10.747  22.121  0.00  0.00    +0.000 C 
ATOM     18  O   UNL     1       0.027  10.335  23.236  0.00  0.00    +0.000 OA
ATOM     19  N   UNL     1      -1.203  11.756  21.931  0.00  0.00    +0.000 N 
ATOM     20  H   UNL     1      -1.673  11.827  21.041  0.00  0.00    +0.000 HD
BRANCH  19  21
ATOM     21  C   UNL     1      -1.924  12.345  23.052  0.00  0.00    +0.000 C 
ATOM     22  C   UNL     1      -1.275  13.667  23.462  0.00  0.00    +0.000 C 
BRANCH  21  23
ATOM     23  C   UNL     1      -3.361  12.548  22.648  0.00  0.00    +0.000 A 
ATOM     24  C   UNL     1      -3.825  12.766  21.363  0.00  0.00    +0.000 A 
ATOM     25  S   UNL     1      -5.528  12.935  21.369  0.00  0.00    +0.000 S 
ATOM     26  C   UNL     1      -5.534  12.728  23.074  0.00  0.00    +0.000 A 
ATOM     27  C   UNL     1      -6.807  12.814  23.840  0.00  0.00    +0.000 C 
ATOM     28  N   UNL     1      -4.357  12.512  23.623  0.00  0.00    +0.000 NA
ENDBRANCH  21  23
ENDBRANCH  19  21
ENDBRANCH   5  17
TORSDOF 4
ENDMDL
MODEL 9
REMARK VINA RESULT:      -7.7      2.357      3.968
REMARK  Name = 
REMARK  8 active torsions:
REMARK  status: ('A' for Active; 'I' for Inactive)
REMARK    1  A    between atoms: C_1  and  N_2
REMARK    2  A    between atoms: C_5  and  C_6
REMARK    3  A    between atoms: C_8  and  C_9
REMARK    4  A    between atoms: C_13  and  C_14
REMARK    5  A    between atoms: N_16  and  C_17
REMARK    6  A    between atoms: C_17  and  C_18
REMARK    7  A    between atoms: C_17  and  C_19
REMARK    8  A    between atoms: C_22  and  C_23
REMARK                            x       y       z     vdW  Elec       q    Type
REMARK                         _______ _______ _______ _____ _____    ______ ____
ROOT
ATOM      1  C   UNL     1       2.393   7.202  19.002  0.00  0.00    +0.000 A 
ATOM      2  C   UNL     1       2.943   7.782  17.847  0.00  0.00    +0.000 A 
ATOM      3  C   UNL     1       2.585   9.066  17.443  0.00  0.00    +0.000 A 
ATOM      4  C   UNL     1       1.673   9.795  18.201  0.00  0.00    +0.000 A 
ATOM      5  C   UNL     1       1.101   9.264  19.359  0.00  0.00    +0.000 A 
ATOM      6  C   UNL     1       1.458   7.963  19.742  0.00  0.00    +0.000 A 
ENDROOT
BRANCH   1  14
ATOM      7  C   UNL     1       6.508   4.688  18.447  0.00  0.00    +0.000 C 
ATOM      8  N   UNL     1       5.537   3.670  18.777  0.00  0.00    +0.000 N 
ATOM      9  C   UNL     1       4.345   4.172  19.284  0.00  0.00    +0.000 A 
ATOM     10  N   UNL     1       3.699   3.392  20.157  0.00  0.00    +0.000 NA
ATOM     11  C   UNL     1       2.552   3.868  20.679  0.00  0.00    +0.000 A 
ATOM     12  C   UNL     1       1.816   3.001  21.654  0.00  0.00    +0.000 C 
ATOM     13  C   UNL     1       2.054   5.112  20.357  0.00  0.00    +0.000 A 
ATOM     14  C   UNL     1       2.787   5.857  19.455  0.00  0.00    +0.000 A 
ATOM     15  N   UNL     1       3.932   5.388  18.922  0.00  0.00    +0.000 NA
ATOM     16  H   UNL     1       5.841   2.961  19.434  0.00  0.00    +0.000 HD
ENDBRANCH   1  14
BRANCH   5  17
ATOM     17  C   UNL     1       0.113  10.104  20.113  0.00  0.00    +0.000 C 
ATOM     18  O   UNL     1      -0.150   9.831  21.281  0.00  0.00    +0.000 OA
ATOM     19  N   UNL     1      -0.452  11.180  19.458  0.00  0.00    +0.000 N 
ATOM     20  H   UNL     1      -0.490  11.174  18.450  0.00  0.00    +0.000 HD
BRANCH  19  21
ATOM     21  C   UNL     1      -1.455  12.018  20.102  0.00  0.00    +0.000 C 
ATOM     22  C   UNL     1      -0.960  13.462  20.189  0.00  0.00    +0.000 C 
BRANCH  21  23
ATOM     23  C   UNL     1      -2.736  11.931  19.313  0.00  0.00    +0.000 A 
ATOM     24  C   UNL     1      -2.869  11.450  18.023  0.00  0.00    +0.000 A 
ATOM     25  S   UNL     1      -4.504  11.530  17.526  0.00  0.00    +0.000 S 
ATOM     26  C   UNL     1      -4.922  12.214  19.044  0.00  0.00    +0.000 A 
ATOM     27  C   UNL     1      -6.325  12.625  19.326  0.00  0.00    +0.000 C 
ATOM     28  N   UNL     1      -3.928  12.354  19.897  0.00  0.00    +0.000 NA
ENDBRANCH  21  23
ENDBRANCH  19  21
ENDBRANCH   5  17
TORSDOF 4
ENDMDL
