MODEL 1
REMARK VINA RESULT:     -10.0      0.000      0.000
REMARK  Name = 
REMARK  6 active torsions:
REMARK  status: ('A' for Active; 'I' for Inactive)
REMARK    1  A    between atoms: C_2  and  C_20
REMARK    2  A    between atoms: N_3  and  C_4
REMARK    3  A    between atoms: C_6  and  C_7
REMARK    4  A    between atoms: N_13  and  C_14
REMARK    5  A    between atoms: C_24  and  S_25
REMARK    6  A    between atoms: S_25  and  N_28
REMARK                            x       y       z     vdW  Elec       q    Type
REMARK                         _______ _______ _______ _____ _____    ______ ____
ROOT
ATOM      1  O   UNL     1       2.159   9.066  17.395  0.00  0.00    +0.000 OA
ATOM      2  C   UNL     1       2.037   8.717  18.555  0.00  0.00    +0.000 C 
ATOM      3  N   UNL     1       2.640   7.511  19.041  0.00  0.00    +0.000 N 
ATOM      4  H   UNL     1       2.356   7.136  19.941  0.00  0.00    +0.000 HD
ENDROOT
BRANCH   2   5
ATOM      5  C   UNL     1       1.103   9.377  19.492  0.00  0.00    +0.000 A 
ATOM      6  C   UNL     1       1.022   8.975  20.830  0.00  0.00    +0.000 A 
ATOM      7  C   UNL     1       0.089   9.583  21.672  0.00  0.00    +0.000 A 
ATOM      8  C   UNL     1      -0.764  10.579  21.181  0.00  0.00    +0.000 A 
ATOM      9  C   UNL     1      -0.683  10.974  19.839  0.00  0.00    +0.000 A 
ATOM     10  C   UNL     1       0.249  10.369  18.990  0.00  0.00    +0.000 A 
BRANCH   9  11
ATOM     11  S   UNL     1      -1.953  12.035  19.155  0.00  0.00    +0.000 S 
ATOM     12  O   UNL     1      -2.636  12.595  20.300  0.00  0.00    +0.000 OA
ATOM     13  O   UNL     1      -1.303  12.886  18.183  0.00  0.00    +0.000 OA
BRANCH  11  14
ATOM     14  N   UNL     1      -3.015  11.041  18.333  0.00  0.00    +0.000 NA
ATOM     15  C   UNL     1      -2.573  10.109  17.272  0.00  0.00    +0.000 C 
ATOM     16  C   UNL     1      -3.015  10.603  15.892  0.00  0.00    +0.000 C 
ATOM     17  O   UNL     1      -4.416  10.916  15.845  0.00  0.00    +0.000 OA
ATOM     18  C   UNL     1      -4.801  11.854  16.861  0.00  0.00    +0.000 C 
ATOM     19  C   UNL     1      -4.458  11.338  18.260  0.00  0.00    +0.000 C 
ENDBRANCH  11  14
ENDBRANCH   9  11
ENDBRANCH   2   5
BRANCH   3  20
ATOM     20  C   UNL     1       3.319   6.650  18.179  0.00  0.00    +0.000 A 
ATOM     21  C   UNL     1       4.049   6.996  17.065  0.00  0.00    +0.000 A 
ATOM     22  C   UNL     1       4.644   5.787  16.625  0.00  0.00    +0.000 A 
ATOM     23  N   UNL     1       4.347   4.769  17.444  0.00  0.00    +0.000 NA
ATOM     24  N   UNL     1       3.424   5.271  18.299  0.00  0.00    +0.000 N 
BRANCH  24  25
ATOM     25  C   UNL     1       2.639   4.410  19.114  0.00  0.00    +0.000 A 
ATOM     26  C   UNL     1       1.700   3.561  18.520  0.00  0.00    +0.000 A 
ATOM     27  C   UNL     1       0.921   2.719  19.316  0.00  0.00    +0.000 A 
ATOM     28  C   UNL     1       1.052   2.745  20.703  0.00  0.00    +0.000 A 
ATOM     29  C   UNL     1       1.956   3.616  21.304  0.00  0.00    +0.000 A 
ATOM     30  C   UNL     1       2.752   4.443  20.512  0.00  0.00    +0.000 A 
ENDBRANCH  24  25
BRANCH  22  31
ATOM     31  C   UNL     1       5.516   5.578  15.422  0.00  0.00    +0.000 C 
ATOM     32  C   UNL     1       6.981   5.288  15.743  0.00  0.00    +0.000 C 
ATOM     33  C   UNL     1       7.531   4.688  14.455  0.00  0.00    +0.000 C 
ATOM     34  C   UNL     1       6.354   3.992  13.777  0.00  0.00    +0.000 C 
ATOM     35  C   UNL     1       5.107   4.371  14.572  0.00  0.00    +0.000 C 
ENDBRANCH  22  31
ENDBRANCH   3  20
TORSDOF 6
ENDMDL
MODEL 2
REMARK VINA RESULT:      -9.8      3.685      9.154
REMARK  Name = 
REMARK  6 active torsions:
REMARK  status: ('A' for Active; 'I' for Inactive)
REMARK    1  A    between atoms: C_2  and  C_20
REMARK    2  A    between atoms: N_3  and  C_4
REMARK    3  A    between atoms: C_6  and  C_7
REMARK    4  A    between atoms: N_13  and  C_14
REMARK    5  A    between atoms: C_24  and  S_25
REMARK    6  A    between atoms: S_25  and  N_28
REMARK                            x       y       z     vdW  Elec       q    Type
REMARK                         _______ _______ _______ _____ _____    ______ ____
ROOT
ATOM      1  O   UNL     1       2.146   9.522  17.453  0.00  0.00    +0.000 OA
ATOM      2  C   UNL     1       1.678   9.101  18.495  0.00  0.00    +0.000 C 
ATOM      3  N   UNL     1       0.968   9.958  19.398  0.00  0.00    +0.000 N 
ATOM      4  H   UNL     1       0.773   9.641  20.342  0.00  0.00    +0.000 HD
ENDROOT
BRANCH   2   5
ATOM      5  C   UNL     1       1.974   7.748  19.012  0.00  0.00    +0.000 A 
ATOM      6  C   UNL     1       1.629   7.386  20.320  0.00  0.00    +0.000 A 
ATOM      7  C   UNL     1       1.974   6.118  20.793  0.00  0.00    +0.000 A 
ATOM      8  C   UNL     1       2.667   5.221  19.970  0.00  0.00    +0.000 A 
ATOM      9  C   UNL     1       3.015   5.590  18.664  0.00  0.00    +0.000 A 
ATOM     10  C   UNL     1       2.673   6.858  18.184  0.00  0.00    +0.000 A 
BRANCH   9  11
ATOM     11  S   UNL     1       4.136   4.556  17.726  0.00  0.00    +0.000 S 
ATOM     12  O   UNL     1       5.052   4.008  18.701  0.00  0.00    +0.000 OA
ATOM     13  O   UNL     1       3.314   3.693  16.906  0.00  0.00    +0.000 OA
BRANCH  11  14
ATOM     14  N   UNL     1       4.984   5.571  16.707  0.00  0.00    +0.000 NA
ATOM     15  C   UNL     1       5.361   5.183  15.330  0.00  0.00    +0.000 C 
ATOM     16  C   UNL     1       6.866   4.920  15.228  0.00  0.00    +0.000 C 
ATOM     17  O   UNL     1       7.647   6.000  15.762  0.00  0.00    +0.000 OA
ATOM     18  C   UNL     1       7.284   6.322  17.113  0.00  0.00    +0.000 C 
ATOM     19  C   UNL     1       5.802   6.684  17.223  0.00  0.00    +0.000 C 
ENDBRANCH  11  14
ENDBRANCH   9  11
ENDBRANCH   2   5
BRANCH   3  20
ATOM     20  C   UNL     1       0.862  11.327  19.153  0.00  0.00    +0.000 A 
ATOM     21  C   UNL     1       1.783  12.301  19.465  0.00  0.00    +0.000 A 
ATOM     22  C   UNL     1       1.270  13.491  18.889  0.00  0.00    +0.000 A 
ATOM     23  N   UNL     1       0.135  13.259  18.217  0.00  0.00    +0.000 NA
ATOM     24  N   UNL     1      -0.183  11.974  18.506  0.00  0.00    +0.000 N 
BRANCH  24  25
ATOM     25  C   UNL     1      -1.481  11.463  18.232  0.00  0.00    +0.000 A 
ATOM     26  C   UNL     1      -2.596  12.045  18.843  0.00  0.00    +0.000 A 
ATOM     27  C   UNL     1      -3.873  11.543  18.583  0.00  0.00    +0.000 A 
ATOM     28  C   UNL     1      -4.038  10.442  17.744  0.00  0.00    +0.000 A 
ATOM     29  C   UNL     1      -2.928   9.833  17.165  0.00  0.00    +0.000 A 
ATOM     30  C   UNL     1      -1.653  10.345  17.403  0.00  0.00    +0.000 A 
ENDBRANCH  24  25
BRANCH  22  31
ATOM     31  C   UNL     1       1.857  14.870  18.958  0.00  0.00    +0.000 C 
ATOM     32  C   UNL     1       2.945  15.149  17.923  0.00  0.00    +0.000 C 
ATOM     33  C   UNL     1       3.049  16.668  17.893  0.00  0.00    +0.000 C 
ATOM     34  C   UNL     1       1.662  17.193  18.257  0.00  0.00    +0.000 C 
ATOM     35  C   UNL     1       0.839  15.982  18.690  0.00  0.00    +0.000 C 
ENDBRANCH  22  31
ENDBRANCH   3  20
TORSDOF 6
ENDMDL
MODEL 3
REMARK VINA RESULT:      -9.6      1.673      2.125
REMARK  Name = 
REMARK  6 active torsions:
REMARK  status: ('A' for Active; 'I' for Inactive)
REMARK    1  A    between atoms: C_2  and  C_20
REMARK    2  A    between atoms: N_3  and  C_4
REMARK    3  A    between atoms: C_6  and  C_7
REMARK    4  A    between atoms: N_13  and  C_14
REMARK    5  A    between atoms: C_24  and  S_25
REMARK    6  A    between atoms: S_25  and  N_28
REMARK                            x       y       z     vdW  Elec       q    Type
REMARK                         _______ _______ _______ _____ _____    ______ ____
ROOT
ATOM      1  O   UNL     1       1.543   8.830  18.288  0.00  0.00    +0.000 OA
ATOM      2  C   UNL     1       1.741   8.537  19.453  0.00  0.00    +0.000 C 
ATOM      3  N   UNL     1       2.625   7.469  19.817  0.00  0.00    +0.000 N 
ATOM      4  H   UNL     1       2.614   7.110  20.766  0.00  0.00    +0.000 HD
ENDROOT
BRANCH   2   5
ATOM      5  C   UNL     1       0.945   9.102  20.564  0.00  0.00    +0.000 A 
ATOM      6  C   UNL     1       0.201   8.273  21.410  0.00  0.00    +0.000 A 
ATOM      7  C   UNL     1      -0.583   8.846  22.414  0.00  0.00    +0.000 A 
ATOM      8  C   UNL     1      -0.632  10.237  22.565  0.00  0.00    +0.000 A 
ATOM      9  C   UNL     1       0.110  11.064  21.711  0.00  0.00    +0.000 A 
ATOM     10  C   UNL     1       0.897  10.497  20.704  0.00  0.00    +0.000 A 
BRANCH   9  11
ATOM     11  S   UNL     1      -0.177  12.831  21.728  0.00  0.00    +0.000 S 
ATOM     12  O   UNL     1      -0.958  13.077  22.919  0.00  0.00    +0.000 OA
ATOM     13  O   UNL     1       1.112  13.460  21.537  0.00  0.00    +0.000 OA
BRANCH  11  14
ATOM     14  N   UNL     1      -1.115  13.177  20.391  0.00  0.00    +0.000 NA
ATOM     15  C   UNL     1      -2.368  12.450  20.088  0.00  0.00    +0.000 C 
ATOM     16  C   UNL     1      -2.183  11.521  18.885  0.00  0.00    +0.000 C 
ATOM     17  O   UNL     1      -1.615  12.197  17.753  0.00  0.00    +0.000 OA
ATOM     18  C   UNL     1      -0.380  12.856  18.072  0.00  0.00    +0.000 C 
ATOM     19  C   UNL     1      -0.560  13.863  19.209  0.00  0.00    +0.000 C 
ENDBRANCH  11  14
ENDBRANCH   9  11
ENDBRANCH   2   5
BRANCH   3  20
ATOM     20  C   UNL     1       3.226   6.672  18.842  0.00  0.00    +0.000 A 
ATOM     21  C   UNL     1       3.901   7.097  17.721  0.00  0.00    +0.000 A 
ATOM     22  C   UNL     1       4.431   5.917  17.141  0.00  0.00    +0.000 A 
ATOM     23  N   UNL     1       4.148   4.838  17.883  0.00  0.00    +0.000 NA
ATOM     24  N   UNL     1       3.293   5.285  18.833  0.00  0.00    +0.000 N 
BRANCH  24  25
ATOM     25  C   UNL     1       2.529   4.375  19.614  0.00  0.00    +0.000 A 
ATOM     26  C   UNL     1       1.410   3.752  19.053  0.00  0.00    +0.000 A 
ATOM     27  C   UNL     1       0.651   2.863  19.817  0.00  0.00    +0.000 A 
ATOM     28  C   UNL     1       0.984   2.621  21.149  0.00  0.00    +0.000 A 
ATOM     29  C   UNL     1       2.073   3.269  21.727  0.00  0.00    +0.000 A 
ATOM     30  C   UNL     1       2.847   4.141  20.960  0.00  0.00    +0.000 A 
ENDBRANCH  24  25
BRANCH  22  31
ATOM     31  C   UNL     1       5.224   5.795  15.874  0.00  0.00    +0.000 C 
ATOM     32  C   UNL     1       6.731   5.652  16.081  0.00  0.00    +0.000 C 
ATOM     33  C   UNL     1       7.239   5.108  14.751  0.00  0.00    +0.000 C 
ATOM     34  C   UNL     1       6.088   4.297  14.160  0.00  0.00    +0.000 C 
ATOM     35  C   UNL     1       4.874   4.551  15.050  0.00  0.00    +0.000 C 
ENDBRANCH  22  31
ENDBRANCH   3  20
TORSDOF 6
ENDMDL
MODEL 4
REMARK VINA RESULT:      -9.6      1.929      2.867
REMARK  Name = 
REMARK  6 active torsions:
REMARK  status: ('A' for Active; 'I' for Inactive)
REMARK    1  A    between atoms: C_2  and  C_20
REMARK    2  A    between atoms: N_3  and  C_4
REMARK    3  A    between atoms: C_6  and  C_7
REMARK    4  A    between atoms: N_13  and  C_14
REMARK    5  A    between atoms: C_24  and  S_25
REMARK    6  A    between atoms: S_25  and  N_28
REMARK                            x       y       z     vdW  Elec       q    Type
REMARK                         _______ _______ _______ _____ _____    ______ ____
ROOT
ATOM      1  O   UNL     1       1.609   8.815  17.781  0.00  0.00    +0.000 OA
ATOM      2  C   UNL     1       1.783   8.593  18.966  0.00  0.00    +0.000 C 
ATOM      3  N   UNL     1       2.656   7.547  19.412  0.00  0.00    +0.000 N 
ATOM      4  H   UNL     1       2.624   7.246  20.380  0.00  0.00    +0.000 HD
ENDROOT
BRANCH   2   5
ATOM      5  C   UNL     1       0.965   9.225  20.023  0.00  0.00    +0.000 A 
ATOM      6  C   UNL     1       0.877   8.660  21.300  0.00  0.00    +0.000 A 
ATOM      7  C   UNL     1       0.052   9.253  22.257  0.00  0.00    +0.000 A 
ATOM      8  C   UNL     1      -0.689  10.398  21.939  0.00  0.00    +0.000 A 
ATOM      9  C   UNL     1      -0.603  10.957  20.657  0.00  0.00    +0.000 A 
ATOM     10  C   UNL     1       0.221  10.368  19.694  0.00  0.00    +0.000 A 
BRANCH   9  11
ATOM     11  S   UNL     1      -1.757  12.239  20.177  0.00  0.00    +0.000 S 
ATOM     12  O   UNL     1      -2.263  11.830  18.886  0.00  0.00    +0.000 OA
ATOM     13  O   UNL     1      -2.647  12.436  21.300  0.00  0.00    +0.000 OA
BRANCH  11  14
ATOM     14  N   UNL     1      -0.865  13.638  19.983  0.00  0.00    +0.000 NA
ATOM     15  C   UNL     1      -0.295  14.044  18.679  0.00  0.00    +0.000 C 
ATOM     16  C   UNL     1       1.225  13.869  18.668  0.00  0.00    +0.000 C 
ATOM     17  O   UNL     1       1.856  14.492  19.797  0.00  0.00    +0.000 OA
ATOM     18  C   UNL     1       1.308  14.043  21.047  0.00  0.00    +0.000 C 
ATOM     19  C   UNL     1      -0.198  14.298  21.121  0.00  0.00    +0.000 C 
ENDBRANCH  11  14
ENDBRANCH   9  11
ENDBRANCH   2   5
BRANCH   3  20
ATOM     20  C   UNL     1       3.274   6.692  18.500  0.00  0.00    +0.000 A 
ATOM     21  C   UNL     1       3.979   7.047  17.373  0.00  0.00    +0.000 A 
ATOM     22  C   UNL     1       4.515   5.833  16.875  0.00  0.00    +0.000 A 
ATOM     23  N   UNL     1       4.208   4.801  17.671  0.00  0.00    +0.000 NA
ATOM     24  N   UNL     1       3.333   5.306  18.573  0.00  0.00    +0.000 N 
BRANCH  24  25
ATOM     25  C   UNL     1       2.544   4.448  19.387  0.00  0.00    +0.000 A 
ATOM     26  C   UNL     1       2.835   4.328  20.750  0.00  0.00    +0.000 A 
ATOM     27  C   UNL     1       2.069   3.480  21.553  0.00  0.00    +0.000 A 
ATOM     28  C   UNL     1       1.037   2.728  20.996  0.00  0.00    +0.000 A 
ATOM     29  C   UNL     1       0.768   2.811  19.632  0.00  0.00    +0.000 A 
ATOM     30  C   UNL     1       1.516   3.673  18.830  0.00  0.00    +0.000 A 
ENDBRANCH  24  25
BRANCH  22  31
ATOM     31  C   UNL     1       5.338   5.634  15.637  0.00  0.00    +0.000 C 
ATOM     32  C   UNL     1       6.835   5.463  15.892  0.00  0.00    +0.000 C 
ATOM     33  C   UNL     1       7.363   4.847  14.602  0.00  0.00    +0.000 C 
ATOM     34  C   UNL     1       6.208   4.038  14.018  0.00  0.00    +0.000 C 
ATOM     35  C   UNL     1       4.978   4.363  14.861  0.00  0.00    +0.000 C 
ENDBRANCH  22  31
ENDBRANCH   3  20
TORSDOF 6
ENDMDL
MODEL 5
REMARK VINA RESULT:      -9.5      1.901      2.984
REMARK  Name = 
REMARK  6 active torsions:
REMARK  status: ('A' for Active; 'I' for Inactive)
REMARK    1  A    between atoms: C_2  and  C_20
REMARK    2  A    between atoms: N_3  and  C_4
REMARK    3  A    between atoms: C_6  and  C_7
REMARK    4  A    between atoms: N_13  and  C_14
REMARK    5  A    between atoms: C_24  and  S_25
REMARK    6  A    between atoms: S_25  and  N_28
REMARK                            x       y       z     vdW  Elec       q    Type
REMARK                         _______ _______ _______ _____ _____    ______ ____
ROOT
ATOM      1  O   UNL     1       1.628   8.792  17.431  0.00  0.00    +0.000 OA
ATOM      2  C   UNL     1       1.829   8.631  18.621  0.00  0.00    +0.000 C 
ATOM      3  N   UNL     1       2.741   7.634  19.099  0.00  0.00    +0.000 N 
ATOM      4  H   UNL     1       2.736   7.378  20.081  0.00  0.00    +0.000 HD
ENDROOT
BRANCH   2   5
ATOM      5  C   UNL     1       1.012   9.289  19.664  0.00  0.00    +0.000 A 
ATOM      6  C   UNL     1       0.855   8.708  20.927  0.00  0.00    +0.000 A 
ATOM      7  C   UNL     1       0.031   9.330  21.868  0.00  0.00    +0.000 A 
ATOM      8  C   UNL     1      -0.639  10.516  21.547  0.00  0.00    +0.000 A 
ATOM      9  C   UNL     1      -0.483  11.090  20.279  0.00  0.00    +0.000 A 
ATOM     10  C   UNL     1       0.340  10.474  19.332  0.00  0.00    +0.000 A 
BRANCH   9  11
ATOM     11  S   UNL     1      -1.553  12.439  19.785  0.00  0.00    +0.000 S 
ATOM     12  O   UNL     1      -1.531  12.431  18.340  0.00  0.00    +0.000 OA
ATOM     13  O   UNL     1      -2.791  12.273  20.514  0.00  0.00    +0.000 OA
BRANCH  11  14
ATOM     14  N   UNL     1      -0.830  13.845  20.324  0.00  0.00    +0.000 NA
ATOM     15  C   UNL     1       0.591  14.160  20.062  0.00  0.00    +0.000 C 
ATOM     16  C   UNL     1       1.424  14.034  21.340  0.00  0.00    +0.000 C 
ATOM     17  O   UNL     1       0.858  14.769  22.436  0.00  0.00    +0.000 OA
ATOM     18  C   UNL     1      -0.508  14.408  22.690  0.00  0.00    +0.000 C 
ATOM     19  C   UNL     1      -1.382  14.619  21.452  0.00  0.00    +0.000 C 
ENDBRANCH  11  14
ENDBRANCH   9  11
ENDBRANCH   2   5
BRANCH   3  20
ATOM     20  C   UNL     1       3.369   6.755  18.216  0.00  0.00    +0.000 A 
ATOM     21  C   UNL     1       4.097   7.081  17.095  0.00  0.00    +0.000 A 
ATOM     22  C   UNL     1       4.631   5.852  16.632  0.00  0.00    +0.000 A 
ATOM     23  N   UNL     1       4.300   4.839  17.443  0.00  0.00    +0.000 NA
ATOM     24  N   UNL     1       3.413   5.370  18.318  0.00  0.00    +0.000 N 
BRANCH  24  25
ATOM     25  C   UNL     1       2.602   4.535  19.135  0.00  0.00    +0.000 A 
ATOM     26  C   UNL     1       1.639   3.714  18.542  0.00  0.00    +0.000 A 
ATOM     27  C   UNL     1       0.834   2.897  19.339  0.00  0.00    +0.000 A 
ATOM     28  C   UNL     1       0.965   2.922  20.727  0.00  0.00    +0.000 A 
ATOM     29  C   UNL     1       1.894   3.768  21.326  0.00  0.00    +0.000 A 
ATOM     30  C   UNL     1       2.715   4.569  20.533  0.00  0.00    +0.000 A 
ENDBRANCH  24  25
BRANCH  22  31
ATOM     31  C   UNL     1       5.474   5.620  15.414  0.00  0.00    +0.000 C 
ATOM     32  C   UNL     1       6.948   5.343  15.706  0.00  0.00    +0.000 C 
ATOM     33  C   UNL     1       7.470   4.716  14.419  0.00  0.00    +0.000 C 
ATOM     34  C   UNL     1       6.281   3.999  13.786  0.00  0.00    +0.000 C 
ATOM     35  C   UNL     1       5.051   4.391  14.602  0.00  0.00    +0.000 C 
ENDBRANCH  22  31
ENDBRANCH   3  20
TORSDOF 6
ENDMDL
MODEL 6
REMARK VINA RESULT:      -9.5      1.922      2.853
REMARK  Name = 
REMARK  6 active torsions:
REMARK  status: ('A' for Active; 'I' for Inactive)
REMARK    1  A    between atoms: C_2  and  C_20
REMARK    2  A    between atoms: N_3  and  C_4
REMARK    3  A    between atoms: C_6  and  C_7
REMARK    4  A    between atoms: N_13  and  C_14
REMARK    5  A    between atoms: C_24  and  S_25
REMARK    6  A    between atoms: S_25  and  N_28
REMARK                            x       y       z     vdW  Elec       q    Type
REMARK                         _______ _______ _______ _____ _____    ______ ____
ROOT
ATOM      1  O   UNL     1       1.850   8.958  17.449  0.00  0.00    +0.000 OA
ATOM      2  C   UNL     1       1.903   8.708  18.640  0.00  0.00    +0.000 C 
ATOM      3  N   UNL     1       2.669   7.605  19.140  0.00  0.00    +0.000 N 
ATOM      4  H   UNL     1       2.533   7.293  20.096  0.00  0.00    +0.000 HD
ENDROOT
BRANCH   2   5
ATOM      5  C   UNL     1       1.035   9.375  19.633  0.00  0.00    +0.000 A 
ATOM      6  C   UNL     1       0.746   8.767  20.860  0.00  0.00    +0.000 A 
ATOM      7  C   UNL     1      -0.123   9.400  21.751  0.00  0.00    +0.000 A 
ATOM      8  C   UNL     1      -0.707  10.628  21.416  0.00  0.00    +0.000 A 
ATOM      9  C   UNL     1      -0.419  11.231  20.185  0.00  0.00    +0.000 A 
ATOM     10  C   UNL     1       0.450  10.602  19.288  0.00  0.00    +0.000 A 
BRANCH   9  11
ATOM     11  S   UNL     1      -1.378  12.645  19.651  0.00  0.00    +0.000 S 
ATOM     12  O   UNL     1      -1.395  12.570  18.207  0.00  0.00    +0.000 OA
ATOM     13  O   UNL     1      -2.607  12.623  20.414  0.00  0.00    +0.000 OA
BRANCH  11  14
ATOM     14  N   UNL     1      -0.521  14.005  20.106  0.00  0.00    +0.000 NA
ATOM     15  C   UNL     1      -1.064  15.373  19.963  0.00  0.00    +0.000 C 
ATOM     16  C   UNL     1      -0.358  16.126  18.832  0.00  0.00    +0.000 C 
ATOM     17  O   UNL     1       1.072  16.078  18.952  0.00  0.00    +0.000 OA
ATOM     18  C   UNL     1       1.568  14.734  19.047  0.00  0.00    +0.000 C 
ATOM     19  C   UNL     1       0.949  13.990  20.231  0.00  0.00    +0.000 C 
ENDBRANCH  11  14
ENDBRANCH   9  11
ENDBRANCH   2   5
BRANCH   3  20
ATOM     20  C   UNL     1       3.313   6.726  18.269  0.00  0.00    +0.000 A 
ATOM     21  C   UNL     1       4.024   7.049  17.137  0.00  0.00    +0.000 A 
ATOM     22  C   UNL     1       4.588   5.827  16.693  0.00  0.00    +0.000 A 
ATOM     23  N   UNL     1       4.289   4.821  17.526  0.00  0.00    +0.000 NA
ATOM     24  N   UNL     1       3.395   5.345  18.398  0.00  0.00    +0.000 N 
BRANCH  24  25
ATOM     25  C   UNL     1       2.613   4.505  19.236  0.00  0.00    +0.000 A 
ATOM     26  C   UNL     1       1.552   3.777  18.688  0.00  0.00    +0.000 A 
ATOM     27  C   UNL     1       0.775   2.955  19.508  0.00  0.00    +0.000 A 
ATOM     28  C   UNL     1       1.031   2.885  20.876  0.00  0.00    +0.000 A 
ATOM     29  C   UNL     1       2.060   3.638  21.435  0.00  0.00    +0.000 A 
ATOM     30  C   UNL     1       2.852   4.443  20.616  0.00  0.00    +0.000 A 
ENDBRANCH  24  25
BRANCH  22  31
ATOM     31  C   UNL     1       5.428   5.594  15.473  0.00  0.00    +0.000 C 
ATOM     32  C   UNL     1       6.907   5.343  15.761  0.00  0.00    +0.000 C 
ATOM     33  C   UNL     1       7.433   4.710  14.479  0.00  0.00    +0.000 C 
ATOM     34  C   UNL     1       6.252   3.967  13.860  0.00  0.00    +0.000 C 
ATOM     35  C   UNL     1       5.021   4.349  14.678  0.00  0.00    +0.000 C 
ENDBRANCH  22  31
ENDBRANCH   3  20
TORSDOF 6
ENDMDL
MODEL 7
REMARK VINA RESULT:      -9.5      2.289      3.284
REMARK  Name = 
REMARK  6 active torsions:
REMARK  status: ('A' for Active; 'I' for Inactive)
REMARK    1  A    between atoms: C_2  and  C_20
REMARK    2  A    between atoms: N_3  and  C_4
REMARK    3  A    between atoms: C_6  and  C_7
REMARK    4  A    between atoms: N_13  and  C_14
REMARK    5  A    between atoms: C_24  and  S_25
REMARK    6  A    between atoms: S_25  and  N_28
REMARK                            x       y       z     vdW  Elec       q    Type
REMARK                         _______ _______ _______ _____ _____    ______ ____
ROOT
ATOM      1  O   UNL     1       1.572   7.084  17.435  0.00  0.00    +0.000 OA
ATOM      2  C   UNL     1       2.244   7.466  18.376  0.00  0.00    +0.000 C 
ATOM      3  N   UNL     1       3.544   6.922  18.638  0.00  0.00    +0.000 N 
ATOM      4  H   UNL     1       3.991   7.100  19.532  0.00  0.00    +0.000 HD
ENDROOT
BRANCH   2   5
ATOM      5  C   UNL     1       1.707   8.353  19.430  0.00  0.00    +0.000 A 
ATOM      6  C   UNL     1       1.779   7.991  20.780  0.00  0.00    +0.000 A 
ATOM      7  C   UNL     1       1.212   8.826  21.744  0.00  0.00    +0.000 A 
ATOM      8  C   UNL     1       0.568  10.010  21.363  0.00  0.00    +0.000 A 
ATOM      9  C   UNL     1       0.493  10.365  20.010  0.00  0.00    +0.000 A 
ATOM     10  C   UNL     1       1.059   9.534  19.040  0.00  0.00    +0.000 A 
BRANCH   9  11
ATOM     11  S   UNL     1      -0.566  11.721  19.513  0.00  0.00    +0.000 S 
ATOM     12  O   UNL     1      -0.993  11.396  18.171  0.00  0.00    +0.000 OA
ATOM     13  O   UNL     1      -1.527  11.907  20.578  0.00  0.00    +0.000 OA
BRANCH  11  14
ATOM     14  N   UNL     1       0.397  13.084  19.453  0.00  0.00    +0.000 NA
ATOM     15  C   UNL     1       1.184  13.451  18.255  0.00  0.00    +0.000 C 
ATOM     16  C   UNL     1       2.679  13.221  18.491  0.00  0.00    +0.000 C 
ATOM     17  O   UNL     1       3.143  13.838  19.701  0.00  0.00    +0.000 OA
ATOM     18  C   UNL     1       2.385  13.427  20.850  0.00  0.00    +0.000 C 
ATOM     19  C   UNL     1       0.897  13.736  20.678  0.00  0.00    +0.000 C 
ENDBRANCH  11  14
ENDBRANCH   9  11
ENDBRANCH   2   5
BRANCH   3  20
ATOM     20  C   UNL     1       4.050   5.873  17.871  0.00  0.00    +0.000 A 
ATOM     21  C   UNL     1       4.848   5.969  16.755  0.00  0.00    +0.000 A 
ATOM     22  C   UNL     1       5.198   4.633  16.435  0.00  0.00    +0.000 A 
ATOM     23  N   UNL     1       4.695   3.770  17.327  0.00  0.00    +0.000 NA
ATOM     24  N   UNL     1       3.879   4.515  18.110  0.00  0.00    +0.000 N 
BRANCH  24  25
ATOM     25  C   UNL     1       2.929   3.900  18.971  0.00  0.00    +0.000 A 
ATOM     26  C   UNL     1       3.271   3.635  20.301  0.00  0.00    +0.000 A 
ATOM     27  C   UNL     1       2.345   3.024  21.149  0.00  0.00    +0.000 A 
ATOM     28  C   UNL     1       1.093   2.647  20.667  0.00  0.00    +0.000 A 
ATOM     29  C   UNL     1       0.760   2.872  19.334  0.00  0.00    +0.000 A 
ATOM     30  C   UNL     1       1.674   3.502  18.489  0.00  0.00    +0.000 A 
ENDBRANCH  24  25
BRANCH  22  31
ATOM     31  C   UNL     1       6.025   4.153  15.280  0.00  0.00    +0.000 C 
ATOM     32  C   UNL     1       5.244   3.942  13.985  0.00  0.00    +0.000 C 
ATOM     33  C   UNL     1       6.318   3.905  12.905  0.00  0.00    +0.000 C 
ATOM     34  C   UNL     1       7.460   4.779  13.416  0.00  0.00    +0.000 C 
ATOM     35  C   UNL     1       7.121   5.138  14.861  0.00  0.00    +0.000 C 
ENDBRANCH  22  31
ENDBRANCH   3  20
TORSDOF 6
ENDMDL
MODEL 8
REMARK VINA RESULT:      -9.5      3.701      9.200
REMARK  Name = 
REMARK  6 active torsions:
REMARK  status: ('A' for Active; 'I' for Inactive)
REMARK    1  A    between atoms: C_2  and  C_20
REMARK    2  A    between atoms: N_3  and  C_4
REMARK    3  A    between atoms: C_6  and  C_7
REMARK    4  A    between atoms: N_13  and  C_14
REMARK    5  A    between atoms: C_24  and  S_25
REMARK    6  A    between atoms: S_25  and  N_28
REMARK                            x       y       z     vdW  Elec       q    Type
REMARK                         _______ _______ _______ _____ _____    ______ ____
ROOT
ATOM      1  O   UNL     1       2.180   9.288  17.462  0.00  0.00    +0.000 OA
ATOM      2  C   UNL     1       1.690   8.915  18.513  0.00  0.00    +0.000 C 
ATOM      3  N   UNL     1       0.992   9.821  19.377  0.00  0.00    +0.000 N 
ATOM      4  H   UNL     1       0.779   9.541  20.329  0.00  0.00    +0.000 HD
ENDROOT
BRANCH   2   5
ATOM      5  C   UNL     1       1.947   7.574  19.080  0.00  0.00    +0.000 A 
ATOM      6  C   UNL     1       1.647   7.289  20.417  0.00  0.00    +0.000 A 
ATOM      7  C   UNL     1       1.955   6.029  20.934  0.00  0.00    +0.000 A 
ATOM      8  C   UNL     1       2.568   5.063  20.125  0.00  0.00    +0.000 A 
ATOM      9  C   UNL     1       2.872   5.356  18.789  0.00  0.00    +0.000 A 
ATOM     10  C   UNL     1       2.567   6.615  18.265  0.00  0.00    +0.000 A 
BRANCH   9  11
ATOM     11  S   UNL     1       3.900   4.228  17.854  0.00  0.00    +0.000 S 
ATOM     12  O   UNL     1       4.457   3.321  18.832  0.00  0.00    +0.000 OA
ATOM     13  O   UNL     1       3.090   3.740  16.759  0.00  0.00    +0.000 OA
BRANCH  11  14
ATOM     14  N   UNL     1       5.140   5.138  17.202  0.00  0.00    +0.000 NA
ATOM     15  C   UNL     1       5.376   5.234  15.745  0.00  0.00    +0.000 C 
ATOM     16  C   UNL     1       6.633   4.458  15.342  0.00  0.00    +0.000 C 
ATOM     17  O   UNL     1       7.773   4.811  16.140  0.00  0.00    +0.000 OA
ATOM     18  C   UNL     1       7.523   4.665  17.547  0.00  0.00    +0.000 C 
ATOM     19  C   UNL     1       6.328   5.510  17.993  0.00  0.00    +0.000 C 
ENDBRANCH  11  14
ENDBRANCH   9  11
ENDBRANCH   2   5
BRANCH   3  20
ATOM     20  C   UNL     1       0.923  11.183  19.083  0.00  0.00    +0.000 A 
ATOM     21  C   UNL     1       1.882  12.137  19.332  0.00  0.00    +0.000 A 
ATOM     22  C   UNL     1       1.391  13.320  18.726  0.00  0.00    +0.000 A 
ATOM     23  N   UNL     1       0.230  13.101  18.096  0.00  0.00    +0.000 NA
ATOM     24  N   UNL     1      -0.120  11.839  18.441  0.00  0.00    +0.000 N 
BRANCH  24  25
ATOM     25  C   UNL     1      -1.441  11.360  18.222  0.00  0.00    +0.000 A 
ATOM     26  C   UNL     1      -1.648  10.265  17.378  0.00  0.00    +0.000 A 
ATOM     27  C   UNL     1      -2.944   9.795  17.153  0.00  0.00    +0.000 A 
ATOM     28  C   UNL     1      -4.035  10.434  17.740  0.00  0.00    +0.000 A 
ATOM     29  C   UNL     1      -3.838  11.550  18.550  0.00  0.00    +0.000 A 
ATOM     30  C   UNL     1      -2.544  12.009  18.795  0.00  0.00    +0.000 A 
ENDBRANCH  24  25
BRANCH  22  31
ATOM     31  C   UNL     1       2.022  14.681  18.727  0.00  0.00    +0.000 C 
ATOM     32  C   UNL     1       1.412  15.662  19.726  0.00  0.00    +0.000 C 
ATOM     33  C   UNL     1       2.461  16.758  19.859  0.00  0.00    +0.000 C 
ATOM     34  C   UNL     1       3.808  16.086  19.601  0.00  0.00    +0.000 C 
ATOM     35  C   UNL     1       3.502  14.669  19.123  0.00  0.00    +0.000 C 
ENDBRANCH  22  31
ENDBRANCH   3  20
TORSDOF 6
ENDMDL
MODEL 9
REMARK VINA RESULT:      -9.4      1.965      2.894
REMARK  Name = 
REMARK  6 active torsions:
REMARK  status: ('A' for Active; 'I' for Inactive)
REMARK    1  A    between atoms: C_2  and  C_20
REMARK    2  A    between atoms: N_3  and  C_4
REMARK    3  A    between atoms: C_6  and  C_7
REMARK    4  A    between atoms: N_13  and  C_14
REMARK    5  A    between atoms: C_24  and  S_25
REMARK    6  A    between atoms: S_25  and  N_28
REMARK                            x       y       z     vdW  Elec       q    Type
REMARK                         _______ _______ _______ _____ _____    ______ ____
ROOT
ATOM      1  O   UNL     1       1.537   8.795  17.817  0.00  0.00    +0.000 OA
ATOM      2  C   UNL     1       1.744   8.593  19.000  0.00  0.00    +0.000 C 
ATOM      3  N   UNL     1       2.653   7.576  19.439  0.00  0.00    +0.000 N 
ATOM      4  H   UNL     1       2.651   7.288  20.412  0.00  0.00    +0.000 HD
ENDROOT
BRANCH   2   5
ATOM      5  C   UNL     1       0.937   9.221  20.069  0.00  0.00    +0.000 A 
ATOM      6  C   UNL     1       0.730   8.571  21.290  0.00  0.00    +0.000 A 
ATOM      7  C   UNL     1      -0.083   9.168  22.255  0.00  0.00    +0.000 A 
ATOM      8  C   UNL     1      -0.695  10.402  21.998  0.00  0.00    +0.000 A 
ATOM      9  C   UNL     1      -0.490  11.046  20.771  0.00  0.00    +0.000 A 
ATOM     10  C   UNL     1       0.323  10.453  19.801  0.00  0.00    +0.000 A 
BRANCH   9  11
ATOM     11  S   UNL     1      -1.490  12.469  20.346  0.00  0.00    +0.000 S 
ATOM     12  O   UNL     1      -0.545  13.502  19.983  0.00  0.00    +0.000 OA
ATOM     13  O   UNL     1      -2.489  12.007  19.408  0.00  0.00    +0.000 OA
BRANCH  11  14
ATOM     14  N   UNL     1      -2.279  12.934  21.743  0.00  0.00    +0.000 NA
ATOM     15  C   UNL     1      -3.738  12.770  21.925  0.00  0.00    +0.000 C 
ATOM     16  C   UNL     1      -4.452  14.124  21.869  0.00  0.00    +0.000 C 
ATOM     17  O   UNL     1      -3.861  15.091  22.751  0.00  0.00    +0.000 OA
ATOM     18  C   UNL     1      -2.453  15.255  22.518  0.00  0.00    +0.000 C 
ATOM     19  C   UNL     1      -1.703  13.931  22.666  0.00  0.00    +0.000 C 
ENDBRANCH  11  14
ENDBRANCH   9  11
ENDBRANCH   2   5
BRANCH   3  20
ATOM     20  C   UNL     1       3.270   6.722  18.524  0.00  0.00    +0.000 A 
ATOM     21  C   UNL     1       3.976   7.081  17.399  0.00  0.00    +0.000 A 
ATOM     22  C   UNL     1       4.510   5.867  16.897  0.00  0.00    +0.000 A 
ATOM     23  N   UNL     1       4.199   4.832  17.689  0.00  0.00    +0.000 NA
ATOM     24  N   UNL     1       3.325   5.336  18.592  0.00  0.00    +0.000 N 
BRANCH  24  25
ATOM     25  C   UNL     1       2.534   4.476  19.402  0.00  0.00    +0.000 A 
ATOM     26  C   UNL     1       2.817   4.357  20.766  0.00  0.00    +0.000 A 
ATOM     27  C   UNL     1       2.048   3.509  21.566  0.00  0.00    +0.000 A 
ATOM     28  C   UNL     1       1.021   2.754  21.003  0.00  0.00    +0.000 A 
ATOM     29  C   UNL     1       0.759   2.837  19.637  0.00  0.00    +0.000 A 
ATOM     30  C   UNL     1       1.510   3.700  18.839  0.00  0.00    +0.000 A 
ENDBRANCH  24  25
BRANCH  22  31
ATOM     31  C   UNL     1       5.333   5.671  15.659  0.00  0.00    +0.000 C 
ATOM     32  C   UNL     1       6.833   5.534  15.910  0.00  0.00    +0.000 C 
ATOM     33  C   UNL     1       7.371   4.915  14.626  0.00  0.00    +0.000 C 
ATOM     34  C   UNL     1       6.231   4.075  14.054  0.00  0.00    +0.000 C 
ATOM     35  C   UNL     1       4.997   4.384  14.898  0.00  0.00    +0.000 C 
ENDBRANCH  22  31
ENDBRANCH   3  20
TORSDOF 6
ENDMDL
