MODEL 1
REMARK VINA RESULT:      -6.9      0.000      0.000
REMARK  Name = 
REMARK  5 active torsions:
REMARK  status: ('A' for Active; 'I' for Inactive)
REMARK    1  A    between atoms: N_6  and  C_7
REMARK    2  A    between atoms: C_10  and  O_11
REMARK    3  A    between atoms: C_10  and  C_12
REMARK    4  A    between atoms: C_12  and  O_13
REMARK    5  A    between atoms: C_14  and  O_15
REMARK                            x       y       z     vdW  Elec       q    Type
REMARK                         _______ _______ _______ _____ _____    ______ ____
ROOT
ATOM      1  C   UNL     1       4.403   3.600  19.188  0.00  0.00    +0.000 C 
ATOM      2  O   UNL     1       3.997   2.275  18.814  0.00  0.00    +0.000 OA
ATOM      3  C   UNL     1       2.634   2.093  19.226  0.00  0.00    +0.000 C 
ATOM      4  C   UNL     1       2.214   3.305  20.060  0.00  0.00    +0.000 C 
ATOM      5  C   UNL     1       3.125   4.398  19.500  0.00  0.00    +0.000 C 
ENDROOT
BRANCH   1  11
ATOM      6  O   UNL     1       7.757   5.718  15.421  0.00  0.00    +0.000 OA
ATOM      7  C   UNL     1       6.940   5.272  16.219  0.00  0.00    +0.000 A 
ATOM      8  N   UNL     1       7.023   5.575  17.554  0.00  0.00    +0.000 N 
ATOM      9  C   UNL     1       6.224   5.071  18.550  0.00  0.00    +0.000 A 
ATOM     10  O   UNL     1       6.403   5.394  19.725  0.00  0.00    +0.000 OA
ATOM     11  N   UNL     1       5.236   4.190  18.143  0.00  0.00    +0.000 N 
ATOM     12  C   UNL     1       5.026   3.905  16.806  0.00  0.00    +0.000 A 
ATOM     13  C   UNL     1       5.809   4.380  15.829  0.00  0.00    +0.000 A 
ATOM     14  I   UNL     1       5.503   3.923  13.862  0.00  0.00    +0.000 I 
ATOM     15  H   UNL     1       7.778   6.176  17.833  0.00  0.00    +0.000 HD
ENDBRANCH   1  11
BRANCH   4  16
ATOM     16  O   UNL     1       0.830   3.609  19.829  0.00  0.00    +0.000 OA
ATOM     17  H   UNL     1       0.340   2.776  19.959  0.00  0.00    +0.000 HD
ENDBRANCH   4  16
BRANCH   5  18
ATOM     18  O   UNL     1       3.296   5.492  20.401  0.00  0.00    +0.000 OA
ATOM     19  H   UNL     1       4.124   5.378  20.906  0.00  0.00    +0.000 HD
ENDBRANCH   5  18
BRANCH   4  20
ATOM     20  C   UNL     1       2.405   3.077  21.567  0.00  0.00    +0.000 C 
BRANCH  20  21
ATOM     21  O   UNL     1       1.245   2.431  22.101  0.00  0.00    +0.000 OA
ATOM     22  H   UNL     1       0.552   3.113  22.172  0.00  0.00    +0.000 HD
ENDBRANCH  20  21
ENDBRANCH   4  20
TORSDOF 5
ENDMDL
MODEL 2
REMARK VINA RESULT:      -6.8      1.276      1.460
REMARK  Name = 
REMARK  5 active torsions:
REMARK  status: ('A' for Active; 'I' for Inactive)
REMARK    1  A    between atoms: N_6  and  C_7
REMARK    2  A    between atoms: C_10  and  O_11
REMARK    3  A    between atoms: C_10  and  C_12
REMARK    4  A    between atoms: C_12  and  O_13
REMARK    5  A    between atoms: C_14  and  O_15
REMARK                            x       y       z     vdW  Elec       q    Type
REMARK                         _______ _______ _______ _____ _____    ______ ____
ROOT
ATOM      1  C   UNL     1       4.429   4.108  18.506  0.00  0.00    +0.000 C 
ATOM      2  O   UNL     1       5.063   3.119  19.331  0.00  0.00    +0.000 OA
ATOM      3  C   UNL     1       4.070   2.160  19.721  0.00  0.00    +0.000 C 
ATOM      4  C   UNL     1       2.700   2.667  19.264  0.00  0.00    +0.000 C 
ATOM      5  C   UNL     1       3.076   3.529  18.058  0.00  0.00    +0.000 C 
ENDROOT
BRANCH   1  11
ATOM      6  O   UNL     1       7.948   5.456  14.541  0.00  0.00    +0.000 OA
ATOM      7  C   UNL     1       7.097   5.182  15.380  0.00  0.00    +0.000 A 
ATOM      8  N   UNL     1       7.203   5.642  16.667  0.00  0.00    +0.000 N 
ATOM      9  C   UNL     1       6.365   5.335  17.709  0.00  0.00    +0.000 A 
ATOM     10  O   UNL     1       6.569   5.788  18.836  0.00  0.00    +0.000 OA
ATOM     11  N   UNL     1       5.309   4.492  17.405  0.00  0.00    +0.000 N 
ATOM     12  C   UNL     1       5.076   4.059  16.113  0.00  0.00    +0.000 A 
ATOM     13  C   UNL     1       5.897   4.343  15.092  0.00  0.00    +0.000 A 
ATOM     14  I   UNL     1       5.555   3.667  13.195  0.00  0.00    +0.000 I 
ATOM     15  H   UNL     1       8.005   6.211  16.876  0.00  0.00    +0.000 HD
ENDBRANCH   1  11
BRANCH   4  16
ATOM     16  O   UNL     1       1.868   1.563  18.879  0.00  0.00    +0.000 OA
ATOM     17  H   UNL     1       2.433   0.769  18.905  0.00  0.00    +0.000 HD
ENDBRANCH   4  16
BRANCH   5  18
ATOM     18  O   UNL     1       2.076   4.497  17.737  0.00  0.00    +0.000 OA
ATOM     19  H   UNL     1       2.009   5.153  18.458  0.00  0.00    +0.000 HD
ENDBRANCH   5  18
BRANCH   4  20
ATOM     20  C   UNL     1       1.968   3.454  20.362  0.00  0.00    +0.000 C 
BRANCH  20  21
ATOM     21  O   UNL     1       0.555   3.369  20.145  0.00  0.00    +0.000 OA
ATOM     22  H   UNL     1       0.169   2.999  20.960  0.00  0.00    +0.000 HD
ENDBRANCH  20  21
ENDBRANCH   4  20
TORSDOF 5
ENDMDL
MODEL 3
REMARK VINA RESULT:      -6.6      1.639      1.826
REMARK  Name = 
REMARK  5 active torsions:
REMARK  status: ('A' for Active; 'I' for Inactive)
REMARK    1  A    between atoms: N_6  and  C_7
REMARK    2  A    between atoms: C_10  and  O_11
REMARK    3  A    between atoms: C_10  and  C_12
REMARK    4  A    between atoms: C_12  and  O_13
REMARK    5  A    between atoms: C_14  and  O_15
REMARK                            x       y       z     vdW  Elec       q    Type
REMARK                         _______ _______ _______ _____ _____    ______ ____
ROOT
ATOM      1  C   UNL     1       4.534   4.024  17.565  0.00  0.00    +0.000 C 
ATOM      2  O   UNL     1       4.271   2.617  17.463  0.00  0.00    +0.000 OA
ATOM      3  C   UNL     1       2.886   2.399  17.769  0.00  0.00    +0.000 C 
ATOM      4  C   UNL     1       2.285   3.717  18.264  0.00  0.00    +0.000 C 
ATOM      5  C   UNL     1       3.175   4.745  17.563  0.00  0.00    +0.000 C 
ENDROOT
BRANCH   1  11
ATOM      6  O   UNL     1       8.144   5.575  13.759  0.00  0.00    +0.000 OA
ATOM      7  C   UNL     1       7.274   5.243  14.556  0.00  0.00    +0.000 A 
ATOM      8  N   UNL     1       7.222   5.794  15.811  0.00  0.00    +0.000 N 
ATOM      9  C   UNL     1       6.353   5.445  16.813  0.00  0.00    +0.000 A 
ATOM     10  O   UNL     1       6.411   5.991  17.916  0.00  0.00    +0.000 OA
ATOM     11  N   UNL     1       5.439   4.452  16.501  0.00  0.00    +0.000 N 
ATOM     12  C   UNL     1       5.363   3.911  15.231  0.00  0.00    +0.000 A 
ATOM     13  C   UNL     1       6.216   4.236  14.250  0.00  0.00    +0.000 A 
ATOM     14  I   UNL     1       6.110   3.403  12.388  0.00  0.00    +0.000 I 
ATOM     15  H   UNL     1       7.926   6.476  16.032  0.00  0.00    +0.000 HD
ENDBRANCH   1  11
BRANCH   4  16
ATOM     16  O   UNL     1       0.920   3.829  17.836  0.00  0.00    +0.000 OA
ATOM     17  H   UNL     1       0.946   4.058  16.888  0.00  0.00    +0.000 HD
ENDBRANCH   4  16
BRANCH   5  18
ATOM     18  O   UNL     1       3.161   6.019  18.207  0.00  0.00    +0.000 OA
ATOM     19  H   UNL     1       3.930   6.096  18.804  0.00  0.00    +0.000 HD
ENDBRANCH   5  18
BRANCH   4  20
ATOM     20  C   UNL     1       2.315   3.840  19.795  0.00  0.00    +0.000 C 
BRANCH  20  21
ATOM     21  O   UNL     1       2.980   2.700  20.350  0.00  0.00    +0.000 OA
ATOM     22  H   UNL     1       3.702   3.041  20.907  0.00  0.00    +0.000 HD
ENDBRANCH  20  21
ENDBRANCH   4  20
TORSDOF 5
ENDMDL
MODEL 4
REMARK VINA RESULT:      -6.4      2.961      5.981
REMARK  Name = 
REMARK  5 active torsions:
REMARK  status: ('A' for Active; 'I' for Inactive)
REMARK    1  A    between atoms: N_6  and  C_7
REMARK    2  A    between atoms: C_10  and  O_11
REMARK    3  A    between atoms: C_10  and  C_12
REMARK    4  A    between atoms: C_12  and  O_13
REMARK    5  A    between atoms: C_14  and  O_15
REMARK                            x       y       z     vdW  Elec       q    Type
REMARK                         _______ _______ _______ _____ _____    ______ ____
ROOT
ATOM      1  C   UNL     1       4.521   5.190  16.844  0.00  0.00    +0.000 C 
ATOM      2  O   UNL     1       4.438   3.792  16.529  0.00  0.00    +0.000 OA
ATOM      3  C   UNL     1       5.744   3.345  16.138  0.00  0.00    +0.000 C 
ATOM      4  C   UNL     1       6.663   4.564  16.030  0.00  0.00    +0.000 C 
ATOM      5  C   UNL     1       6.010   5.531  17.020  0.00  0.00    +0.000 C 
ENDROOT
BRANCH   1  11
ATOM      6  O   UNL     1       1.236   6.470  21.027  0.00  0.00    +0.000 OA
ATOM      7  C   UNL     1       2.026   6.149  20.145  0.00  0.00    +0.000 A 
ATOM      8  N   UNL     1       2.484   7.071  19.241  0.00  0.00    +0.000 N 
ATOM      9  C   UNL     1       3.297   6.817  18.166  0.00  0.00    +0.000 A 
ATOM     10  O   UNL     1       3.630   7.722  17.399  0.00  0.00    +0.000 OA
ATOM     11  N   UNL     1       3.695   5.499  18.009  0.00  0.00    +0.000 N 
ATOM     12  C   UNL     1       3.354   4.525  18.929  0.00  0.00    +0.000 A 
ATOM     13  C   UNL     1       2.549   4.762  19.974  0.00  0.00    +0.000 A 
ATOM     14  I   UNL     1       2.029   3.303  21.305  0.00  0.00    +0.000 I 
ATOM     15  H   UNL     1       2.142   8.011  19.344  0.00  0.00    +0.000 HD
ENDBRANCH   1  11
BRANCH   4  16
ATOM     16  O   UNL     1       7.994   4.218  16.438  0.00  0.00    +0.000 OA
ATOM     17  H   UNL     1       8.528   5.030  16.356  0.00  0.00    +0.000 HD
ENDBRANCH   4  16
BRANCH   5  18
ATOM     18  O   UNL     1       6.357   6.894  16.772  0.00  0.00    +0.000 OA
ATOM     19  H   UNL     1       5.941   7.194  15.940  0.00  0.00    +0.000 HD
ENDBRANCH   5  18
BRANCH   4  20
ATOM     20  C   UNL     1       6.733   5.124  14.601  0.00  0.00    +0.000 C 
BRANCH  20  21
ATOM     21  O   UNL     1       8.044   5.646  14.360  0.00  0.00    +0.000 OA
ATOM     22  H   UNL     1       8.331   5.292  13.499  0.00  0.00    +0.000 HD
ENDBRANCH  20  21
ENDBRANCH   4  20
TORSDOF 5
ENDMDL
MODEL 5
REMARK VINA RESULT:      -6.2      2.149      2.861
REMARK  Name = 
REMARK  5 active torsions:
REMARK  status: ('A' for Active; 'I' for Inactive)
REMARK    1  A    between atoms: N_6  and  C_7
REMARK    2  A    between atoms: C_10  and  O_11
REMARK    3  A    between atoms: C_10  and  C_12
REMARK    4  A    between atoms: C_12  and  O_13
REMARK    5  A    between atoms: C_14  and  O_15
REMARK                            x       y       z     vdW  Elec       q    Type
REMARK                         _______ _______ _______ _____ _____    ______ ____
ROOT
ATOM      1  C   UNL     1       3.211   4.981  18.372  0.00  0.00    +0.000 C 
ATOM      2  O   UNL     1       2.685   6.257  18.767  0.00  0.00    +0.000 OA
ATOM      3  C   UNL     1       2.160   6.132  20.097  0.00  0.00    +0.000 C 
ATOM      4  C   UNL     1       2.198   4.655  20.496  0.00  0.00    +0.000 C 
ATOM      5  C   UNL     1       3.360   4.135  19.648  0.00  0.00    +0.000 C 
ENDROOT
BRANCH   1  11
ATOM      6  O   UNL     1       7.700   5.614  15.312  0.00  0.00    +0.000 OA
ATOM      7  C   UNL     1       6.744   5.475  16.066  0.00  0.00    +0.000 A 
ATOM      8  N   UNL     1       5.865   4.435  15.905  0.00  0.00    +0.000 N 
ATOM      9  C   UNL     1       4.718   4.224  16.627  0.00  0.00    +0.000 A 
ATOM     10  O   UNL     1       3.985   3.265  16.381  0.00  0.00    +0.000 OA
ATOM     11  N   UNL     1       4.452   5.153  17.620  0.00  0.00    +0.000 N 
ATOM     12  C   UNL     1       5.334   6.177  17.910  0.00  0.00    +0.000 A 
ATOM     13  C   UNL     1       6.449   6.399  17.200  0.00  0.00    +0.000 A 
ATOM     14  I   UNL     1       7.725   7.937  17.622  0.00  0.00    +0.000 I 
ATOM     15  H   UNL     1       6.051   3.803  15.146  0.00  0.00    +0.000 HD
ENDBRANCH   1  11
BRANCH   4  16
ATOM     16  O   UNL     1       2.476   4.528  21.898  0.00  0.00    +0.000 OA
ATOM     17  H   UNL     1       2.051   3.701  22.190  0.00  0.00    +0.000 HD
ENDBRANCH   4  16
BRANCH   5  18
ATOM     18  O   UNL     1       3.312   2.721  19.450  0.00  0.00    +0.000 OA
ATOM     19  H   UNL     1       2.472   2.368  19.802  0.00  0.00    +0.000 HD
ENDBRANCH   5  18
BRANCH   4  20
ATOM     20  C   UNL     1       0.873   3.933  20.207  0.00  0.00    +0.000 C 
BRANCH  20  21
ATOM     21  O   UNL     1       0.741   2.812  21.087  0.00  0.00    +0.000 OA
ATOM     22  H   UNL     1       0.999   2.023  20.576  0.00  0.00    +0.000 HD
ENDBRANCH  20  21
ENDBRANCH   4  20
TORSDOF 5
ENDMDL
MODEL 6
REMARK VINA RESULT:      -6.2      2.600      6.096
REMARK  Name = 
REMARK  5 active torsions:
REMARK  status: ('A' for Active; 'I' for Inactive)
REMARK    1  A    between atoms: N_6  and  C_7
REMARK    2  A    between atoms: C_10  and  O_11
REMARK    3  A    between atoms: C_10  and  C_12
REMARK    4  A    between atoms: C_12  and  O_13
REMARK    5  A    between atoms: C_14  and  O_15
REMARK                            x       y       z     vdW  Elec       q    Type
REMARK                         _______ _______ _______ _____ _____    ______ ____
ROOT
ATOM      1  C   UNL     1       5.208   4.303  17.511  0.00  0.00    +0.000 C 
ATOM      2  O   UNL     1       6.320   4.044  18.380  0.00  0.00    +0.000 OA
ATOM      3  C   UNL     1       7.425   4.848  17.942  0.00  0.00    +0.000 C 
ATOM      4  C   UNL     1       7.044   5.518  16.620  0.00  0.00    +0.000 C 
ATOM      5  C   UNL     1       5.521   5.598  16.741  0.00  0.00    +0.000 C 
ENDROOT
BRANCH   1  11
ATOM      6  O   UNL     1       0.650   4.255  20.535  0.00  0.00    +0.000 OA
ATOM      7  C   UNL     1       1.638   4.330  19.814  0.00  0.00    +0.000 A 
ATOM      8  N   UNL     1       2.111   3.228  19.151  0.00  0.00    +0.000 N 
ATOM      9  C   UNL     1       3.250   3.168  18.388  0.00  0.00    +0.000 A 
ATOM     10  O   UNL     1       3.596   2.113  17.854  0.00  0.00    +0.000 OA
ATOM     11  N   UNL     1       3.964   4.350  18.277  0.00  0.00    +0.000 N 
ATOM     12  C   UNL     1       3.506   5.528  18.837  0.00  0.00    +0.000 A 
ATOM     13  C   UNL     1       2.403   5.592  19.595  0.00  0.00    +0.000 A 
ATOM     14  I   UNL     1       1.759   7.336  20.441  0.00  0.00    +0.000 I 
ATOM     15  H   UNL     1       1.606   2.370  19.286  0.00  0.00    +0.000 HD
ENDBRANCH   1  11
BRANCH   4  16
ATOM     16  O   UNL     1       7.632   6.824  16.540  0.00  0.00    +0.000 OA
ATOM     17  H   UNL     1       8.142   6.847  15.709  0.00  0.00    +0.000 HD
ENDBRANCH   4  16
BRANCH   5  18
ATOM     18  O   UNL     1       4.871   5.727  15.476  0.00  0.00    +0.000 OA
ATOM     19  H   UNL     1       5.531   5.929  14.785  0.00  0.00    +0.000 HD
ENDBRANCH   5  18
BRANCH   4  20
ATOM     20  C   UNL     1       7.508   4.712  15.397  0.00  0.00    +0.000 C 
BRANCH  20  21
ATOM     21  O   UNL     1       7.804   5.609  14.322  0.00  0.00    +0.000 OA
ATOM     22  H   UNL     1       7.203   6.370  14.418  0.00  0.00    +0.000 HD
ENDBRANCH  20  21
ENDBRANCH   4  20
TORSDOF 5
ENDMDL
MODEL 7
REMARK VINA RESULT:      -6.2      2.053      2.569
REMARK  Name = 
REMARK  5 active torsions:
REMARK  status: ('A' for Active; 'I' for Inactive)
REMARK    1  A    between atoms: N_6  and  C_7
REMARK    2  A    between atoms: C_10  and  O_11
REMARK    3  A    between atoms: C_10  and  C_12
REMARK    4  A    between atoms: C_12  and  O_13
REMARK    5  A    between atoms: C_14  and  O_15
REMARK                            x       y       z     vdW  Elec       q    Type
REMARK                         _______ _______ _______ _____ _____    ______ ____
ROOT
ATOM      1  C   UNL     1       5.139   4.500  17.279  0.00  0.00    +0.000 C 
ATOM      2  O   UNL     1       4.664   3.153  17.420  0.00  0.00    +0.000 OA
ATOM      3  C   UNL     1       3.358   3.199  18.012  0.00  0.00    +0.000 C 
ATOM      4  C   UNL     1       3.066   4.642  18.429  0.00  0.00    +0.000 C 
ATOM      5  C   UNL     1       3.925   5.431  17.439  0.00  0.00    +0.000 C 
ENDROOT
BRANCH   1  11
ATOM      6  O   UNL     1       8.050   5.018  12.677  0.00  0.00    +0.000 OA
ATOM      7  C   UNL     1       7.330   4.925  13.664  0.00  0.00    +0.000 A 
ATOM      8  N   UNL     1       7.644   5.575  14.829  0.00  0.00    +0.000 N 
ATOM      9  C   UNL     1       6.966   5.481  16.018  0.00  0.00    +0.000 A 
ATOM     10  O   UNL     1       7.353   6.093  17.015  0.00  0.00    +0.000 OA
ATOM     11  N   UNL     1       5.851   4.659  16.013  0.00  0.00    +0.000 N 
ATOM     12  C   UNL     1       5.412   4.041  14.857  0.00  0.00    +0.000 A 
ATOM     13  C   UNL     1       6.076   4.117  13.695  0.00  0.00    +0.000 A 
ATOM     14  I   UNL     1       5.429   3.171  12.004  0.00  0.00    +0.000 I 
ATOM     15  H   UNL     1       8.485   6.126  14.824  0.00  0.00    +0.000 HD
ENDBRANCH   1  11
BRANCH   4  16
ATOM     16  O   UNL     1       1.671   4.933  18.258  0.00  0.00    +0.000 OA
ATOM     17  H   UNL     1       1.243   4.095  18.004  0.00  0.00    +0.000 HD
ENDBRANCH   4  16
BRANCH   5  18
ATOM     18  O   UNL     1       4.225   6.750  17.895  0.00  0.00    +0.000 OA
ATOM     19  H   UNL     1       4.177   7.377  17.147  0.00  0.00    +0.000 HD
ENDBRANCH   5  18
BRANCH   4  20
ATOM     20  C   UNL     1       3.433   4.918  19.895  0.00  0.00    +0.000 C 
BRANCH  20  21
ATOM     21  O   UNL     1       2.779   6.113  20.332  0.00  0.00    +0.000 OA
ATOM     22  H   UNL     1       3.393   6.561  20.941  0.00  0.00    +0.000 HD
ENDBRANCH  20  21
ENDBRANCH   4  20
TORSDOF 5
ENDMDL
MODEL 8
REMARK VINA RESULT:      -6.1      0.961      1.904
REMARK  Name = 
REMARK  5 active torsions:
REMARK  status: ('A' for Active; 'I' for Inactive)
REMARK    1  A    between atoms: N_6  and  C_7
REMARK    2  A    between atoms: C_10  and  O_11
REMARK    3  A    between atoms: C_10  and  C_12
REMARK    4  A    between atoms: C_12  and  O_13
REMARK    5  A    between atoms: C_14  and  O_15
REMARK                            x       y       z     vdW  Elec       q    Type
REMARK                         _______ _______ _______ _____ _____    ______ ____
ROOT
ATOM      1  C   UNL     1       3.433   3.904  18.668  0.00  0.00    +0.000 C 
ATOM      2  O   UNL     1       3.099   5.046  19.469  0.00  0.00    +0.000 OA
ATOM      3  C   UNL     1       2.655   4.577  20.751  0.00  0.00    +0.000 C 
ATOM      4  C   UNL     1       2.536   3.052  20.695  0.00  0.00    +0.000 C 
ATOM      5  C   UNL     1       3.563   2.701  19.618  0.00  0.00    +0.000 C 
ENDROOT
BRANCH   1  11
ATOM      6  O   UNL     1       8.065   4.727  15.876  0.00  0.00    +0.000 OA
ATOM      7  C   UNL     1       6.989   4.595  16.448  0.00  0.00    +0.000 A 
ATOM      8  N   UNL     1       6.882   4.792  17.801  0.00  0.00    +0.000 N 
ATOM      9  C   UNL     1       5.758   4.594  18.562  0.00  0.00    +0.000 A 
ATOM     10  O   UNL     1       5.780   4.780  19.779  0.00  0.00    +0.000 OA
ATOM     11  N   UNL     1       4.631   4.171  17.875  0.00  0.00    +0.000 N 
ATOM     12  C   UNL     1       4.629   4.039  16.499  0.00  0.00    +0.000 A 
ATOM     13  C   UNL     1       5.726   4.217  15.749  0.00  0.00    +0.000 A 
ATOM     14  I   UNL     1       5.712   3.985  13.720  0.00  0.00    +0.000 I 
ATOM     15  H   UNL     1       7.723   5.050  18.286  0.00  0.00    +0.000 HD
ENDBRANCH   1  11
BRANCH   4  16
ATOM     16  O   UNL     1       2.891   2.482  21.963  0.00  0.00    +0.000 OA
ATOM     17  H   UNL     1       3.624   3.021  22.313  0.00  0.00    +0.000 HD
ENDBRANCH   4  16
BRANCH   5  18
ATOM     18  O   UNL     1       3.326   1.425  19.022  0.00  0.00    +0.000 OA
ATOM     19  H   UNL     1       4.126   0.871  19.099  0.00  0.00    +0.000 HD
ENDBRANCH   5  18
BRANCH   4  20
ATOM     20  C   UNL     1       1.115   2.585  20.345  0.00  0.00    +0.000 C 
BRANCH  20  21
ATOM     21  O   UNL     1       0.273   3.727  20.156  0.00  0.00    +0.000 OA
ATOM     22  H   UNL     1      -0.464   3.639  20.786  0.00  0.00    +0.000 HD
ENDBRANCH  20  21
ENDBRANCH   4  20
TORSDOF 5
ENDMDL
MODEL 9
REMARK VINA RESULT:      -6.0      1.720      1.990
REMARK  Name = 
REMARK  5 active torsions:
REMARK  status: ('A' for Active; 'I' for Inactive)
REMARK    1  A    between atoms: N_6  and  C_7
REMARK    2  A    between atoms: C_10  and  O_11
REMARK    3  A    between atoms: C_10  and  C_12
REMARK    4  A    between atoms: C_12  and  O_13
REMARK    5  A    between atoms: C_14  and  O_15
REMARK                            x       y       z     vdW  Elec       q    Type
REMARK                         _______ _______ _______ _____ _____    ______ ____
ROOT
ATOM      1  C   UNL     1       3.470   4.035  19.093  0.00  0.00    +0.000 C 
ATOM      2  O   UNL     1       4.315   2.893  19.299  0.00  0.00    +0.000 OA
ATOM      3  C   UNL     1       3.477   1.763  19.584  0.00  0.00    +0.000 C 
ATOM      4  C   UNL     1       2.036   2.255  19.740  0.00  0.00    +0.000 C 
ATOM      5  C   UNL     1       2.041   3.510  18.866  0.00  0.00    +0.000 C 
ENDROOT
BRANCH   1  11
ATOM      6  O   UNL     1       5.526   7.286  15.203  0.00  0.00    +0.000 OA
ATOM      7  C   UNL     1       5.029   6.512  16.014  0.00  0.00    +0.000 A 
ATOM      8  N   UNL     1       4.269   6.975  17.056  0.00  0.00    +0.000 N 
ATOM      9  C   UNL     1       3.734   6.219  18.068  0.00  0.00    +0.000 A 
ATOM     10  O   UNL     1       3.084   6.745  18.972  0.00  0.00    +0.000 OA
ATOM     11  N   UNL     1       3.984   4.858  18.001  0.00  0.00    +0.000 N 
ATOM     12  C   UNL     1       4.662   4.298  16.934  0.00  0.00    +0.000 A 
ATOM     13  C   UNL     1       5.199   5.031  15.949  0.00  0.00    +0.000 A 
ATOM     14  I   UNL     1       6.226   4.189  14.396  0.00  0.00    +0.000 I 
ATOM     15  H   UNL     1       4.143   7.971  17.113  0.00  0.00    +0.000 HD
ENDBRANCH   1  11
BRANCH   4  16
ATOM     16  O   UNL     1       1.121   1.271  19.236  0.00  0.00    +0.000 OA
ATOM     17  H   UNL     1       1.603   0.423  19.231  0.00  0.00    +0.000 HD
ENDBRANCH   4  16
BRANCH   5  18
ATOM     18  O   UNL     1       0.997   4.424  19.203  0.00  0.00    +0.000 OA
ATOM     19  H   UNL     1       1.266   5.333  18.971  0.00  0.00    +0.000 HD
ENDBRANCH   5  18
BRANCH   4  20
ATOM     20  C   UNL     1       1.667   2.543  21.203  0.00  0.00    +0.000 C 
BRANCH  20  21
ATOM     21  O   UNL     1       2.841   2.448  22.016  0.00  0.00    +0.000 OA
ATOM     22  H   UNL     1       2.552   2.123  22.888  0.00  0.00    +0.000 HD
ENDBRANCH  20  21
ENDBRANCH   4  20
TORSDOF 5
ENDMDL
