MODEL 1
REMARK VINA RESULT:      -7.1      0.000      0.000
REMARK  Name = 
REMARK  3 active torsions:
REMARK  status: ('A' for Active; 'I' for Inactive)
REMARK    1  A    between atoms: C_2  and  C_5
REMARK    2  A    between atoms: N_3  and  O_4
REMARK    3  A    between atoms: C_8  and  C_9
REMARK                            x       y       z     vdW  Elec       q    Type
REMARK                         _______ _______ _______ _____ _____    ______ ____
ROOT
ATOM      1  C   UNL     1       6.449   4.431  16.061  0.00  0.00    +0.000 A 
ATOM      2  C   UNL     1       7.230   4.633  17.174  0.00  0.00    +0.000 A 
ATOM      3  O   UNL     1       6.472   4.393  18.274  0.00  0.00    +0.000 OA
ATOM      4  C   UNL     1       5.241   4.049  17.775  0.00  0.00    +0.000 A 
ATOM      5  N   UNL     1       5.168   4.067  16.457  0.00  0.00    +0.000 NA
ENDROOT
BRANCH   4   6
ATOM      6  C   UNL     1       4.219   3.703  18.761  0.00  0.00    +0.000 A 
ATOM      7  C   UNL     1       2.984   4.371  18.797  0.00  0.00    +0.000 A 
ATOM      8  C   UNL     1       2.022   4.051  19.762  0.00  0.00    +0.000 A 
ATOM      9  C   UNL     1       2.291   3.058  20.699  0.00  0.00    +0.000 A 
ATOM     10 CL   UNL     1       1.118   2.680  21.898  0.00  0.00    +0.000 Cl
ATOM     11  C   UNL     1       3.505   2.375  20.674  0.00  0.00    +0.000 A 
ATOM     12  C   UNL     1       4.464   2.696  19.707  0.00  0.00    +0.000 A 
ENDBRANCH   4   6
BRANCH   1  14
ATOM     13  O   UNL     1       6.445   3.876  13.762  0.00  0.00    +0.000 OA
ATOM     14  C   UNL     1       6.881   4.566  14.684  0.00  0.00    +0.000 C 
ATOM     15  N   UNL     1       7.838   5.528  14.487  0.00  0.00    +0.000 N 
ATOM     16  H   UNL     1       8.364   5.922  15.263  0.00  0.00    +0.000 HD
BRANCH  15  17
ATOM     17  O   UNL     1       8.367   5.653  13.184  0.00  0.00    +0.000 OA
ATOM     18  H   UNL     1       8.905   4.835  13.096  0.00  0.00    +0.000 HD
ENDBRANCH  15  17
ENDBRANCH   1  14
TORSDOF 3
ENDMDL
MODEL 2
REMARK VINA RESULT:      -7.0      0.797      1.598
REMARK  Name = 
REMARK  3 active torsions:
REMARK  status: ('A' for Active; 'I' for Inactive)
REMARK    1  A    between atoms: C_2  and  C_5
REMARK    2  A    between atoms: N_3  and  O_4
REMARK    3  A    between atoms: C_8  and  C_9
REMARK                            x       y       z     vdW  Elec       q    Type
REMARK                         _______ _______ _______ _____ _____    ______ ____
ROOT
ATOM      1  C   UNL     1       6.547   4.465  16.150  0.00  0.00    +0.000 A 
ATOM      2  C   UNL     1       7.366   4.642  17.240  0.00  0.00    +0.000 A 
ATOM      3  O   UNL     1       6.633   4.427  18.362  0.00  0.00    +0.000 OA
ATOM      4  C   UNL     1       5.378   4.123  17.899  0.00  0.00    +0.000 A 
ATOM      5  N   UNL     1       5.267   4.143  16.584  0.00  0.00    +0.000 NA
ENDROOT
BRANCH   4   6
ATOM      6  C   UNL     1       4.374   3.811  18.914  0.00  0.00    +0.000 A 
ATOM      7  C   UNL     1       4.460   2.644  19.692  0.00  0.00    +0.000 A 
ATOM      8  C   UNL     1       3.478   2.341  20.642  0.00  0.00    +0.000 A 
ATOM      9  C   UNL     1       2.402   3.204  20.821  0.00  0.00    +0.000 A 
ATOM     10 CL   UNL     1       1.185   2.820  21.974  0.00  0.00    +0.000 Cl
ATOM     11  C   UNL     1       2.303   4.373  20.068  0.00  0.00    +0.000 A 
ATOM     12  C   UNL     1       3.287   4.675  19.120  0.00  0.00    +0.000 A 
ENDBRANCH   4   6
BRANCH   1  14
ATOM     13  O   UNL     1       7.738   5.430  14.349  0.00  0.00    +0.000 OA
ATOM     14  C   UNL     1       6.943   4.585  14.762  0.00  0.00    +0.000 C 
ATOM     15  N   UNL     1       6.347   3.676  13.926  0.00  0.00    +0.000 N 
ATOM     16  H   UNL     1       5.526   3.148  14.214  0.00  0.00    +0.000 HD
BRANCH  15  17
ATOM     17  O   UNL     1       6.621   3.792  12.546  0.00  0.00    +0.000 OA
ATOM     18  H   UNL     1       7.591   3.640  12.511  0.00  0.00    +0.000 HD
ENDBRANCH  15  17
ENDBRANCH   1  14
TORSDOF 3
ENDMDL
MODEL 3
REMARK VINA RESULT:      -7.0      1.428      1.633
REMARK  Name = 
REMARK  3 active torsions:
REMARK  status: ('A' for Active; 'I' for Inactive)
REMARK    1  A    between atoms: C_2  and  C_5
REMARK    2  A    between atoms: N_3  and  O_4
REMARK    3  A    between atoms: C_8  and  C_9
REMARK                            x       y       z     vdW  Elec       q    Type
REMARK                         _______ _______ _______ _____ _____    ______ ____
ROOT
ATOM      1  C   UNL     1       5.669   4.842  15.280  0.00  0.00    +0.000 A 
ATOM      2  C   UNL     1       5.299   6.082  15.744  0.00  0.00    +0.000 A 
ATOM      3  O   UNL     1       4.515   5.909  16.839  0.00  0.00    +0.000 OA
ATOM      4  C   UNL     1       4.440   4.548  16.997  0.00  0.00    +0.000 A 
ATOM      5  N   UNL     1       5.103   3.861  16.086  0.00  0.00    +0.000 NA
ENDROOT
BRANCH   4   6
ATOM      6  C   UNL     1       3.667   4.073  18.142  0.00  0.00    +0.000 A 
ATOM      7  C   UNL     1       2.367   4.544  18.392  0.00  0.00    +0.000 A 
ATOM      8  C   UNL     1       1.646   4.103  19.507  0.00  0.00    +0.000 A 
ATOM      9  C   UNL     1       2.221   3.186  20.382  0.00  0.00    +0.000 A 
ATOM     10 CL   UNL     1       1.342   2.661  21.764  0.00  0.00    +0.000 Cl
ATOM     11  C   UNL     1       3.505   2.698  20.147  0.00  0.00    +0.000 A 
ATOM     12  C   UNL     1       4.224   3.139  19.030  0.00  0.00    +0.000 A 
ENDBRANCH   4   6
BRANCH   1  14
ATOM     13  O   UNL     1       7.460   5.307  13.808  0.00  0.00    +0.000 OA
ATOM     14  C   UNL     1       6.521   4.582  14.137  0.00  0.00    +0.000 C 
ATOM     15  N   UNL     1       6.188   3.455  13.432  0.00  0.00    +0.000 N 
ATOM     16  H   UNL     1       5.287   2.998  13.553  0.00  0.00    +0.000 HD
BRANCH  15  17
ATOM     17  O   UNL     1       6.923   3.190  12.256  0.00  0.00    +0.000 OA
ATOM     18  H   UNL     1       7.089   2.224  12.324  0.00  0.00    +0.000 HD
ENDBRANCH  15  17
ENDBRANCH   1  14
TORSDOF 3
ENDMDL
MODEL 4
REMARK VINA RESULT:      -7.0      0.965      1.178
REMARK  Name = 
REMARK  3 active torsions:
REMARK  status: ('A' for Active; 'I' for Inactive)
REMARK    1  A    between atoms: C_2  and  C_5
REMARK    2  A    between atoms: N_3  and  O_4
REMARK    3  A    between atoms: C_8  and  C_9
REMARK                            x       y       z     vdW  Elec       q    Type
REMARK                         _______ _______ _______ _____ _____    ______ ____
ROOT
ATOM      1  C   UNL     1       6.512   4.476  15.587  0.00  0.00    +0.000 A 
ATOM      2  C   UNL     1       7.284   4.597  16.718  0.00  0.00    +0.000 A 
ATOM      3  O   UNL     1       6.494   4.368  17.798  0.00  0.00    +0.000 OA
ATOM      4  C   UNL     1       5.254   4.114  17.270  0.00  0.00    +0.000 A 
ATOM      5  N   UNL     1       5.205   4.176  15.952  0.00  0.00    +0.000 NA
ENDROOT
BRANCH   4   6
ATOM      6  C   UNL     1       4.197   3.798  18.228  0.00  0.00    +0.000 A 
ATOM      7  C   UNL     1       2.888   4.278  18.055  0.00  0.00    +0.000 A 
ATOM      8  C   UNL     1       1.889   3.994  18.993  0.00  0.00    +0.000 A 
ATOM      9  C   UNL     1       2.194   3.226  20.113  0.00  0.00    +0.000 A 
ATOM     10 CL   UNL     1       0.971   2.894  21.276  0.00  0.00    +0.000 Cl
ATOM     11  C   UNL     1       3.483   2.731  20.298  0.00  0.00    +0.000 A 
ATOM     12  C   UNL     1       4.479   3.015  19.358  0.00  0.00    +0.000 A 
ENDBRANCH   4   6
BRANCH   1  14
ATOM     13  O   UNL     1       7.708   5.543  13.848  0.00  0.00    +0.000 OA
ATOM     14  C   UNL     1       6.975   4.627  14.223  0.00  0.00    +0.000 C 
ATOM     15  N   UNL     1       6.517   3.662  13.364  0.00  0.00    +0.000 N 
ATOM     16  H   UNL     1       5.735   3.058  13.609  0.00  0.00    +0.000 HD
BRANCH  15  17
ATOM     17  O   UNL     1       6.859   3.797  12.000  0.00  0.00    +0.000 OA
ATOM     18  H   UNL     1       7.069   4.754  11.930  0.00  0.00    +0.000 HD
ENDBRANCH  15  17
ENDBRANCH   1  14
TORSDOF 3
ENDMDL
MODEL 5
REMARK VINA RESULT:      -6.9      0.719      1.101
REMARK  Name = 
REMARK  3 active torsions:
REMARK  status: ('A' for Active; 'I' for Inactive)
REMARK    1  A    between atoms: C_2  and  C_5
REMARK    2  A    between atoms: N_3  and  O_4
REMARK    3  A    between atoms: C_8  and  C_9
REMARK                            x       y       z     vdW  Elec       q    Type
REMARK                         _______ _______ _______ _____ _____    ______ ____
ROOT
ATOM      1  C   UNL     1       6.374   4.469  15.672  0.00  0.00    +0.000 A 
ATOM      2  C   UNL     1       7.163   4.791  16.751  0.00  0.00    +0.000 A 
ATOM      3  O   UNL     1       6.449   4.564  17.882  0.00  0.00    +0.000 OA
ATOM      4  C   UNL     1       5.235   4.105  17.437  0.00  0.00    +0.000 A 
ATOM      5  N   UNL     1       5.132   4.040  16.122  0.00  0.00    +0.000 NA
ENDROOT
BRANCH   4   6
ATOM      6  C   UNL     1       4.263   3.747  18.467  0.00  0.00    +0.000 A 
ATOM      7  C   UNL     1       3.711   2.457  18.534  0.00  0.00    +0.000 A 
ATOM      8  C   UNL     1       2.760   2.132  19.507  0.00  0.00    +0.000 A 
ATOM      9  C   UNL     1       2.353   3.098  20.423  0.00  0.00    +0.000 A 
ATOM     10 CL   UNL     1       1.169   2.705  21.606  0.00  0.00    +0.000 Cl
ATOM     11  C   UNL     1       2.896   4.381  20.381  0.00  0.00    +0.000 A 
ATOM     12  C   UNL     1       3.848   4.702  19.408  0.00  0.00    +0.000 A 
ENDBRANCH   4   6
BRANCH   1  14
ATOM     13  O   UNL     1       6.284   3.845  13.392  0.00  0.00    +0.000 OA
ATOM     14  C   UNL     1       6.765   4.552  14.279  0.00  0.00    +0.000 C 
ATOM     15  N   UNL     1       7.735   5.486  14.022  0.00  0.00    +0.000 N 
ATOM     16  H   UNL     1       8.295   5.892  14.768  0.00  0.00    +0.000 HD
BRANCH  15  17
ATOM     17  O   UNL     1       8.224   5.559  12.699  0.00  0.00    +0.000 OA
ATOM     18  H   UNL     1       7.979   4.680  12.335  0.00  0.00    +0.000 HD
ENDBRANCH  15  17
ENDBRANCH   1  14
TORSDOF 3
ENDMDL
MODEL 6
REMARK VINA RESULT:      -6.9      1.108      1.189
REMARK  Name = 
REMARK  3 active torsions:
REMARK  status: ('A' for Active; 'I' for Inactive)
REMARK    1  A    between atoms: C_2  and  C_5
REMARK    2  A    between atoms: N_3  and  O_4
REMARK    3  A    between atoms: C_8  and  C_9
REMARK                            x       y       z     vdW  Elec       q    Type
REMARK                         _______ _______ _______ _____ _____    ______ ____
ROOT
ATOM      1  C   UNL     1       5.684   4.962  15.435  0.00  0.00    +0.000 A 
ATOM      2  C   UNL     1       5.207   6.177  15.870  0.00  0.00    +0.000 A 
ATOM      3  O   UNL     1       4.398   5.958  16.937  0.00  0.00    +0.000 OA
ATOM      4  C   UNL     1       4.417   4.597  17.110  0.00  0.00    +0.000 A 
ATOM      5  N   UNL     1       5.162   3.951  16.232  0.00  0.00    +0.000 NA
ENDROOT
BRANCH   4   6
ATOM      6  C   UNL     1       3.639   4.078  18.233  0.00  0.00    +0.000 A 
ATOM      7  C   UNL     1       2.313   4.485  18.452  0.00  0.00    +0.000 A 
ATOM      8  C   UNL     1       1.585   4.004  19.546  0.00  0.00    +0.000 A 
ATOM      9  C   UNL     1       2.181   3.109  20.430  0.00  0.00    +0.000 A 
ATOM     10 CL   UNL     1       1.294   2.533  21.786  0.00  0.00    +0.000 Cl
ATOM     11  C   UNL     1       3.492   2.683  20.225  0.00  0.00    +0.000 A 
ATOM     12  C   UNL     1       4.217   3.165  19.129  0.00  0.00    +0.000 A 
ENDBRANCH   4   6
BRANCH   1  14
ATOM     13  O   UNL     1       6.461   3.859  13.493  0.00  0.00    +0.000 OA
ATOM     14  C   UNL     1       6.594   4.755  14.327  0.00  0.00    +0.000 C 
ATOM     15  N   UNL     1       7.640   5.640  14.285  0.00  0.00    +0.000 N 
ATOM     16  H   UNL     1       7.884   6.215  15.089  0.00  0.00    +0.000 HD
BRANCH  15  17
ATOM     17  O   UNL     1       8.613   5.441  13.281  0.00  0.00    +0.000 OA
ATOM     18  H   UNL     1       9.395   5.151  13.800  0.00  0.00    +0.000 HD
ENDBRANCH  15  17
ENDBRANCH   1  14
TORSDOF 3
ENDMDL
MODEL 7
REMARK VINA RESULT:      -6.8      1.096      1.674
REMARK  Name = 
REMARK  3 active torsions:
REMARK  status: ('A' for Active; 'I' for Inactive)
REMARK    1  A    between atoms: C_2  and  C_5
REMARK    2  A    between atoms: N_3  and  O_4
REMARK    3  A    between atoms: C_8  and  C_9
REMARK                            x       y       z     vdW  Elec       q    Type
REMARK                         _______ _______ _______ _____ _____    ______ ____
ROOT
ATOM      1  C   UNL     1       5.673   4.986  15.484  0.00  0.00    +0.000 A 
ATOM      2  C   UNL     1       5.204   6.206  15.908  0.00  0.00    +0.000 A 
ATOM      3  O   UNL     1       4.409   6.003  16.990  0.00  0.00    +0.000 OA
ATOM      4  C   UNL     1       4.429   4.645  17.181  0.00  0.00    +0.000 A 
ATOM      5  N   UNL     1       5.161   3.986  16.301  0.00  0.00    +0.000 NA
ENDROOT
BRANCH   4   6
ATOM      6  C   UNL     1       3.666   4.142  18.321  0.00  0.00    +0.000 A 
ATOM      7  C   UNL     1       4.234   3.248  19.244  0.00  0.00    +0.000 A 
ATOM      8  C   UNL     1       3.486   2.751  20.316  0.00  0.00    +0.000 A 
ATOM      9  C   UNL     1       2.161   3.146  20.474  0.00  0.00    +0.000 A 
ATOM     10 CL   UNL     1       1.235   2.518  21.780  0.00  0.00    +0.000 Cl
ATOM     11  C   UNL     1       1.581   4.040  19.576  0.00  0.00    +0.000 A 
ATOM     12  C   UNL     1       2.332   4.537  18.506  0.00  0.00    +0.000 A 
ENDBRANCH   4   6
BRANCH   1  14
ATOM     13  O   UNL     1       6.423   3.854  13.548  0.00  0.00    +0.000 OA
ATOM     14  C   UNL     1       6.568   4.762  14.366  0.00  0.00    +0.000 C 
ATOM     15  N   UNL     1       7.613   5.647  14.296  0.00  0.00    +0.000 N 
ATOM     16  H   UNL     1       7.868   6.233  15.088  0.00  0.00    +0.000 HD
BRANCH  15  17
ATOM     17  O   UNL     1       8.572   5.433  13.282  0.00  0.00    +0.000 OA
ATOM     18  H   UNL     1       8.054   5.604  12.464  0.00  0.00    +0.000 HD
ENDBRANCH  15  17
ENDBRANCH   1  14
TORSDOF 3
ENDMDL
MODEL 8
REMARK VINA RESULT:      -6.7      3.302      3.846
REMARK  Name = 
REMARK  3 active torsions:
REMARK  status: ('A' for Active; 'I' for Inactive)
REMARK    1  A    between atoms: C_2  and  C_5
REMARK    2  A    between atoms: N_3  and  O_4
REMARK    3  A    between atoms: C_8  and  C_9
REMARK                            x       y       z     vdW  Elec       q    Type
REMARK                         _______ _______ _______ _____ _____    ______ ____
ROOT
ATOM      1  C   UNL     1       5.618   5.266  16.577  0.00  0.00    +0.000 A 
ATOM      2  C   UNL     1       4.620   4.331  16.718  0.00  0.00    +0.000 A 
ATOM      3  O   UNL     1       3.590   4.907  17.389  0.00  0.00    +0.000 OA
ATOM      4  C   UNL     1       4.011   6.189  17.632  0.00  0.00    +0.000 A 
ATOM      5  N   UNL     1       5.222   6.455  17.177  0.00  0.00    +0.000 NA
ENDROOT
BRANCH   4   6
ATOM      6  C   UNL     1       3.066   7.059  18.328  0.00  0.00    +0.000 A 
ATOM      7  C   UNL     1       2.588   8.240  17.737  0.00  0.00    +0.000 A 
ATOM      8  C   UNL     1       1.704   9.080  18.423  0.00  0.00    +0.000 A 
ATOM      9  C   UNL     1       1.291   8.743  19.709  0.00  0.00    +0.000 A 
ATOM     10 CL   UNL     1       0.221   9.786  20.560  0.00  0.00    +0.000 Cl
ATOM     11  C   UNL     1       1.744   7.570  20.310  0.00  0.00    +0.000 A 
ATOM     12  C   UNL     1       2.627   6.731  19.620  0.00  0.00    +0.000 A 
ENDBRANCH   4   6
BRANCH   1  14
ATOM     13  O   UNL     1       7.853   4.509  16.426  0.00  0.00    +0.000 OA
ATOM     14  C   UNL     1       6.884   5.062  15.904  0.00  0.00    +0.000 C 
ATOM     15  N   UNL     1       6.926   5.550  14.623  0.00  0.00    +0.000 N 
ATOM     16  H   UNL     1       6.228   6.207  14.281  0.00  0.00    +0.000 HD
BRANCH  15  17
ATOM     17  O   UNL     1       8.158   5.462  13.940  0.00  0.00    +0.000 OA
ATOM     18  H   UNL     1       8.664   4.832  14.498  0.00  0.00    +0.000 HD
ENDBRANCH  15  17
ENDBRANCH   1  14
TORSDOF 3
ENDMDL
MODEL 9
REMARK VINA RESULT:      -6.6      3.823      4.755
REMARK  Name = 
REMARK  3 active torsions:
REMARK  status: ('A' for Active; 'I' for Inactive)
REMARK    1  A    between atoms: C_2  and  C_5
REMARK    2  A    between atoms: N_3  and  O_4
REMARK    3  A    between atoms: C_8  and  C_9
REMARK                            x       y       z     vdW  Elec       q    Type
REMARK                         _______ _______ _______ _____ _____    ______ ____
ROOT
ATOM      1  C   UNL     1       4.780   4.923  17.425  0.00  0.00    +0.000 A 
ATOM      2  C   UNL     1       3.573   4.268  17.370  0.00  0.00    +0.000 A 
ATOM      3  O   UNL     1       2.612   5.106  17.835  0.00  0.00    +0.000 OA
ATOM      4  C   UNL     1       3.287   6.256  18.159  0.00  0.00    +0.000 A 
ATOM      5  N   UNL     1       4.588   6.198  17.945  0.00  0.00    +0.000 NA
ENDROOT
BRANCH   4   6
ATOM      6  C   UNL     1       2.474   7.360  18.667  0.00  0.00    +0.000 A 
ATOM      7  C   UNL     1       2.050   7.399  20.005  0.00  0.00    +0.000 A 
ATOM      8  C   UNL     1       1.249   8.446  20.474  0.00  0.00    +0.000 A 
ATOM      9  C   UNL     1       0.867   9.464  19.605  0.00  0.00    +0.000 A 
ATOM     10 CL   UNL     1      -0.135  10.740  20.176  0.00  0.00    +0.000 Cl
ATOM     11  C   UNL     1       1.286   9.451  18.276  0.00  0.00    +0.000 A 
ATOM     12  C   UNL     1       2.088   8.403  17.810  0.00  0.00    +0.000 A 
ENDBRANCH   4   6
BRANCH   1  14
ATOM     13  O   UNL     1       6.249   3.858  15.909  0.00  0.00    +0.000 OA
ATOM     14  C   UNL     1       6.058   4.386  17.005  0.00  0.00    +0.000 C 
ATOM     15  N   UNL     1       7.053   4.504  17.941  0.00  0.00    +0.000 N 
ATOM     16  H   UNL     1       6.846   4.714  18.915  0.00  0.00    +0.000 HD
BRANCH  15  17
ATOM     17  O   UNL     1       8.302   3.923  17.630  0.00  0.00    +0.000 OA
ATOM     18  H   UNL     1       8.812   4.067  18.457  0.00  0.00    +0.000 HD
ENDBRANCH  15  17
ENDBRANCH   1  14
TORSDOF 3
ENDMDL
