MODEL 1
REMARK VINA RESULT:      -6.9      0.000      0.000
REMARK  Name = 
REMARK  9 active torsions:
REMARK  status: ('A' for Active; 'I' for Inactive)
REMARK    1  A    between atoms: C_1  and  O_2
REMARK    2  A    between atoms: O_2  and  C_3
REMARK    3  A    between atoms: C_5  and  C_6
REMARK    4  A    between atoms: C_6  and  N_7
REMARK    5  A    between atoms: N_7  and  C_8
REMARK    6  A    between atoms: C_8  and  C_9
REMARK    7  A    between atoms: C_15  and  O_16
REMARK    8  A    between atoms: O_16  and  C_17
REMARK    9  A    between atoms: C_18  and  O_19
REMARK                            x       y       z     vdW  Elec       q    Type
REMARK                         _______ _______ _______ _____ _____    ______ ____
ROOT
ATOM      1  C   UNL     1       6.218   4.053  14.360  0.00  0.00    +0.000 A 
ATOM      2  C   UNL     1       5.167   3.587  15.173  0.00  0.00    +0.000 A 
ATOM      3  C   UNL     1       4.956   4.129  16.445  0.00  0.00    +0.000 A 
ATOM      4  C   UNL     1       5.790   5.149  16.910  0.00  0.00    +0.000 A 
ATOM      5  C   UNL     1       6.852   5.628  16.117  0.00  0.00    +0.000 A 
ATOM      6  C   UNL     1       7.064   5.069  14.837  0.00  0.00    +0.000 A 
ENDROOT
BRANCH   1   8
ATOM      7  C   UNL     1       5.478   3.310  12.157  0.00  0.00    +0.000 C 
ATOM      8  O   UNL     1       6.441   3.538  13.120  0.00  0.00    +0.000 OA
ENDBRANCH   1   8
BRANCH   5   9
ATOM      9  O   UNL     1       7.674   6.619  16.559  0.00  0.00    +0.000 OA
ATOM     10  C   UNL     1       7.361   7.535  17.545  0.00  0.00    +0.000 C 
ENDBRANCH   5   9
BRANCH   6  11
ATOM     11  O   UNL     1       8.080   5.491  14.055  0.00  0.00    +0.000 OA
ATOM     12  H   UNL     1       8.829   4.927  13.811  0.00  0.00    +0.000 HD
ENDBRANCH   6  11
BRANCH   3  13
ATOM     13  C   UNL     1       3.836   3.614  17.307  0.00  0.00    +0.000 C 
BRANCH  13  14
ATOM     14  N   UNL     1       4.314   2.498  18.128  0.00  0.00    +0.000 NA
ATOM     15  H   UNL     1       5.260   2.207  17.780  0.00  0.00    +0.000 HD
BRANCH  14  16
ATOM     16  C   UNL     1       4.437   2.909  19.530  0.00  0.00    +0.000 C 
BRANCH  16  17
ATOM     17  C   UNL     1       3.127   3.432  20.027  0.00  0.00    +0.000 A 
ATOM     18  C   UNL     1       1.972   2.696  20.193  0.00  0.00    +0.000 A 
ATOM     19  C   UNL     1       1.030   3.583  20.663  0.00  0.00    +0.000 A 
ATOM     20  C   UNL     1       1.667   4.805  20.756  0.00  0.00    +0.000 A 
ATOM     21  O   UNL     1       2.917   4.683  20.369  0.00  0.00    +0.000 OA
ENDBRANCH  16  17
ENDBRANCH  14  16
ENDBRANCH  13  14
ENDBRANCH   3  13
TORSDOF 7
ENDMDL
MODEL 2
REMARK VINA RESULT:      -6.8      0.903      1.066
REMARK  Name = 
REMARK  9 active torsions:
REMARK  status: ('A' for Active; 'I' for Inactive)
REMARK    1  A    between atoms: C_1  and  O_2
REMARK    2  A    between atoms: O_2  and  C_3
REMARK    3  A    between atoms: C_5  and  C_6
REMARK    4  A    between atoms: C_6  and  N_7
REMARK    5  A    between atoms: N_7  and  C_8
REMARK    6  A    between atoms: C_8  and  C_9
REMARK    7  A    between atoms: C_15  and  O_16
REMARK    8  A    between atoms: O_16  and  C_17
REMARK    9  A    between atoms: C_18  and  O_19
REMARK                            x       y       z     vdW  Elec       q    Type
REMARK                         _______ _______ _______ _____ _____    ______ ____
ROOT
ATOM      1  C   UNL     1       6.229   4.025  14.419  0.00  0.00    +0.000 A 
ATOM      2  C   UNL     1       5.288   3.469  15.306  0.00  0.00    +0.000 A 
ATOM      3  C   UNL     1       5.157   3.961  16.609  0.00  0.00    +0.000 A 
ATOM      4  C   UNL     1       5.964   5.020  17.033  0.00  0.00    +0.000 A 
ATOM      5  C   UNL     1       6.918   5.590  16.166  0.00  0.00    +0.000 A 
ATOM      6  C   UNL     1       7.049   5.081  14.854  0.00  0.00    +0.000 A 
ENDROOT
BRANCH   1   8
ATOM      7  C   UNL     1       5.344   3.314  12.260  0.00  0.00    +0.000 C 
ATOM      8  O   UNL     1       6.373   3.560  13.149  0.00  0.00    +0.000 OA
ENDBRANCH   1   8
BRANCH   5   9
ATOM      9  O   UNL     1       7.713   6.620  16.566  0.00  0.00    +0.000 OA
ATOM     10  C   UNL     1       7.389   7.544  17.541  0.00  0.00    +0.000 C 
ENDBRANCH   5   9
BRANCH   6  11
ATOM     11  O   UNL     1       7.963   5.590  14.000  0.00  0.00    +0.000 OA
ATOM     12  H   UNL     1       8.468   5.044  13.381  0.00  0.00    +0.000 HD
ENDBRANCH   6  11
BRANCH   3  13
ATOM     13  C   UNL     1       4.154   3.351  17.548  0.00  0.00    +0.000 C 
BRANCH  13  14
ATOM     14  N   UNL     1       2.798   3.739  17.147  0.00  0.00    +0.000 NA
ATOM     15  H   UNL     1       2.181   2.892  17.191  0.00  0.00    +0.000 HD
BRANCH  14  16
ATOM     16  C   UNL     1       2.265   4.755  18.058  0.00  0.00    +0.000 C 
BRANCH  16  17
ATOM     17  C   UNL     1       2.008   4.154  19.403  0.00  0.00    +0.000 A 
ATOM     18  C   UNL     1       1.092   3.160  19.684  0.00  0.00    +0.000 A 
ATOM     19  C   UNL     1       1.199   2.928  21.036  0.00  0.00    +0.000 A 
ATOM     20  C   UNL     1       2.171   3.792  21.498  0.00  0.00    +0.000 A 
ATOM     21  O   UNL     1       2.636   4.511  20.500  0.00  0.00    +0.000 OA
ENDBRANCH  16  17
ENDBRANCH  14  16
ENDBRANCH  13  14
ENDBRANCH   3  13
TORSDOF 7
ENDMDL
MODEL 3
REMARK VINA RESULT:      -6.8      0.948      3.178
REMARK  Name = 
REMARK  9 active torsions:
REMARK  status: ('A' for Active; 'I' for Inactive)
REMARK    1  A    between atoms: C_1  and  O_2
REMARK    2  A    between atoms: O_2  and  C_3
REMARK    3  A    between atoms: C_5  and  C_6
REMARK    4  A    between atoms: C_6  and  N_7
REMARK    5  A    between atoms: N_7  and  C_8
REMARK    6  A    between atoms: C_8  and  C_9
REMARK    7  A    between atoms: C_15  and  O_16
REMARK    8  A    between atoms: O_16  and  C_17
REMARK    9  A    between atoms: C_18  and  O_19
REMARK                            x       y       z     vdW  Elec       q    Type
REMARK                         _______ _______ _______ _____ _____    ______ ____
ROOT
ATOM      1  C   UNL     1       6.898   5.649  16.177  0.00  0.00    +0.000 A 
ATOM      2  C   UNL     1       5.947   5.128  17.075  0.00  0.00    +0.000 A 
ATOM      3  C   UNL     1       5.140   4.044  16.711  0.00  0.00    +0.000 A 
ATOM      4  C   UNL     1       5.284   3.468  15.447  0.00  0.00    +0.000 A 
ATOM      5  C   UNL     1       6.226   3.975  14.527  0.00  0.00    +0.000 A 
ATOM      6  C   UNL     1       7.030   5.075  14.900  0.00  0.00    +0.000 A 
ENDROOT
BRANCH   1   8
ATOM      7  C   UNL     1       7.543   7.499  17.629  0.00  0.00    +0.000 C 
ATOM      8  O   UNL     1       7.691   6.703  16.511  0.00  0.00    +0.000 OA
ENDBRANCH   1   8
BRANCH   5   9
ATOM      9  O   UNL     1       6.375   3.425  13.291  0.00  0.00    +0.000 OA
ATOM     10  C   UNL     1       5.413   3.421  12.299  0.00  0.00    +0.000 C 
ENDBRANCH   5   9
BRANCH   6  11
ATOM     11  O   UNL     1       7.931   5.599  14.042  0.00  0.00    +0.000 OA
ATOM     12  H   UNL     1       8.302   6.487  14.142  0.00  0.00    +0.000 HD
ENDBRANCH   6  11
BRANCH   3  13
ATOM     13  C   UNL     1       4.122   3.506  17.677  0.00  0.00    +0.000 C 
BRANCH  13  14
ATOM     14  N   UNL     1       2.778   3.928  17.269  0.00  0.00    +0.000 NA
ATOM     15  H   UNL     1       2.160   3.082  17.228  0.00  0.00    +0.000 HD
BRANCH  14  16
ATOM     16  C   UNL     1       2.220   4.870  18.243  0.00  0.00    +0.000 C 
BRANCH  16  17
ATOM     17  C   UNL     1       1.987   4.180  19.549  0.00  0.00    +0.000 A 
ATOM     18  C   UNL     1       1.088   3.158  19.776  0.00  0.00    +0.000 A 
ATOM     19  C   UNL     1       1.215   2.840  21.109  0.00  0.00    +0.000 A 
ATOM     20  C   UNL     1       2.182   3.685  21.615  0.00  0.00    +0.000 A 
ATOM     21  O   UNL     1       2.624   4.473  20.660  0.00  0.00    +0.000 OA
ENDBRANCH  16  17
ENDBRANCH  14  16
ENDBRANCH  13  14
ENDBRANCH   3  13
TORSDOF 7
ENDMDL
MODEL 4
REMARK VINA RESULT:      -6.8      2.373      6.199
REMARK  Name = 
REMARK  9 active torsions:
REMARK  status: ('A' for Active; 'I' for Inactive)
REMARK    1  A    between atoms: C_1  and  O_2
REMARK    2  A    between atoms: O_2  and  C_3
REMARK    3  A    between atoms: C_5  and  C_6
REMARK    4  A    between atoms: C_6  and  N_7
REMARK    5  A    between atoms: N_7  and  C_8
REMARK    6  A    between atoms: C_8  and  C_9
REMARK    7  A    between atoms: C_15  and  O_16
REMARK    8  A    between atoms: O_16  and  C_17
REMARK    9  A    between atoms: C_18  and  O_19
REMARK                            x       y       z     vdW  Elec       q    Type
REMARK                         _______ _______ _______ _____ _____    ______ ____
ROOT
ATOM      1  C   UNL     1       2.894   6.371  18.891  0.00  0.00    +0.000 A 
ATOM      2  C   UNL     1       3.478   5.880  17.707  0.00  0.00    +0.000 A 
ATOM      3  C   UNL     1       3.817   4.528  17.587  0.00  0.00    +0.000 A 
ATOM      4  C   UNL     1       3.568   3.655  18.648  0.00  0.00    +0.000 A 
ATOM      5  C   UNL     1       2.991   4.123  19.846  0.00  0.00    +0.000 A 
ATOM      6  C   UNL     1       2.658   5.492  19.962  0.00  0.00    +0.000 A 
ENDROOT
BRANCH   1   8
ATOM      7  C   UNL     1       2.120   8.512  18.015  0.00  0.00    +0.000 C 
ATOM      8  O   UNL     1       2.558   7.682  19.029  0.00  0.00    +0.000 OA
ENDBRANCH   1   8
BRANCH   5   9
ATOM      9  O   UNL     1       2.745   3.284  20.889  0.00  0.00    +0.000 OA
ATOM     10  C   UNL     1       1.522   2.709  21.180  0.00  0.00    +0.000 C 
ENDBRANCH   5   9
BRANCH   6  11
ATOM     11  O   UNL     1       2.119   5.981  21.099  0.00  0.00    +0.000 OA
ATOM     12  H   UNL     1       1.228   5.752  21.402  0.00  0.00    +0.000 HD
ENDBRANCH   6  11
BRANCH   3  13
ATOM     13  C   UNL     1       4.449   4.020  16.320  0.00  0.00    +0.000 C 
BRANCH  13  14
ATOM     14  N   UNL     1       5.759   3.434  16.619  0.00  0.00    +0.000 NA
ATOM     15  H   UNL     1       5.841   2.521  16.110  0.00  0.00    +0.000 HD
BRANCH  14  16
ATOM     16  C   UNL     1       6.833   4.322  16.166  0.00  0.00    +0.000 C 
BRANCH  16  17
ATOM     17  C   UNL     1       7.294   5.186  17.297  0.00  0.00    +0.000 A 
ATOM     18  C   UNL     1       7.412   6.561  17.269  0.00  0.00    +0.000 A 
ATOM     19  C   UNL     1       7.869   6.920  18.517  0.00  0.00    +0.000 A 
ATOM     20  C   UNL     1       8.003   5.745  19.229  0.00  0.00    +0.000 A 
ATOM     21  O   UNL     1       7.653   4.727  18.474  0.00  0.00    +0.000 OA
ENDBRANCH  16  17
ENDBRANCH  14  16
ENDBRANCH  13  14
ENDBRANCH   3  13
TORSDOF 7
ENDMDL
MODEL 5
REMARK VINA RESULT:      -6.7      2.071      6.228
REMARK  Name = 
REMARK  9 active torsions:
REMARK  status: ('A' for Active; 'I' for Inactive)
REMARK    1  A    between atoms: C_1  and  O_2
REMARK    2  A    between atoms: O_2  and  C_3
REMARK    3  A    between atoms: C_5  and  C_6
REMARK    4  A    between atoms: C_6  and  N_7
REMARK    5  A    between atoms: N_7  and  C_8
REMARK    6  A    between atoms: C_8  and  C_9
REMARK    7  A    between atoms: C_15  and  O_16
REMARK    8  A    between atoms: O_16  and  C_17
REMARK    9  A    between atoms: C_18  and  O_19
REMARK                            x       y       z     vdW  Elec       q    Type
REMARK                         _______ _______ _______ _____ _____    ______ ____
ROOT
ATOM      1  C   UNL     1       2.880   4.239  20.107  0.00  0.00    +0.000 A 
ATOM      2  C   UNL     1       3.516   3.659  18.993  0.00  0.00    +0.000 A 
ATOM      3  C   UNL     1       3.752   4.409  17.835  0.00  0.00    +0.000 A 
ATOM      4  C   UNL     1       3.359   5.749  17.787  0.00  0.00    +0.000 A 
ATOM      5  C   UNL     1       2.715   6.351  18.888  0.00  0.00    +0.000 A 
ATOM      6  C   UNL     1       2.473   5.583  20.049  0.00  0.00    +0.000 A 
ENDROOT
BRANCH   1   8
ATOM      7  C   UNL     1       1.556   2.699  21.458  0.00  0.00    +0.000 C 
ATOM      8  O   UNL     1       2.640   3.526  21.241  0.00  0.00    +0.000 OA
ENDBRANCH   1   8
BRANCH   5   9
ATOM      9  O   UNL     1       2.324   7.654  18.854  0.00  0.00    +0.000 OA
ATOM     10  C   UNL     1       2.528   8.521  17.796  0.00  0.00    +0.000 C 
ENDBRANCH   5   9
BRANCH   6  11
ATOM     11  O   UNL     1       1.845   6.120  21.117  0.00  0.00    +0.000 OA
ATOM     12  H   UNL     1       0.883   6.108  21.225  0.00  0.00    +0.000 HD
ENDBRANCH   6  11
BRANCH   3  13
ATOM     13  C   UNL     1       4.423   3.774  16.650  0.00  0.00    +0.000 C 
BRANCH  13  14
ATOM     14  N   UNL     1       5.876   3.767  16.846  0.00  0.00    +0.000 NA
ATOM     15  H   UNL     1       6.250   2.836  16.542  0.00  0.00    +0.000 HD
BRANCH  14  16
ATOM     16  C   UNL     1       6.508   4.813  16.038  0.00  0.00    +0.000 C 
BRANCH  16  17
ATOM     17  C   UNL     1       7.083   5.870  16.926  0.00  0.00    +0.000 A 
ATOM     18  C   UNL     1       7.570   5.677  18.203  0.00  0.00    +0.000 A 
ATOM     19  C   UNL     1       7.988   6.916  18.632  0.00  0.00    +0.000 A 
ATOM     20  C   UNL     1       7.733   7.789  17.593  0.00  0.00    +0.000 A 
ATOM     21  O   UNL     1       7.193   7.135  16.589  0.00  0.00    +0.000 OA
ENDBRANCH  16  17
ENDBRANCH  14  16
ENDBRANCH  13  14
ENDBRANCH   3  13
TORSDOF 7
ENDMDL
MODEL 6
REMARK VINA RESULT:      -6.7      1.243      1.346
REMARK  Name = 
REMARK  9 active torsions:
REMARK  status: ('A' for Active; 'I' for Inactive)
REMARK    1  A    between atoms: C_1  and  O_2
REMARK    2  A    between atoms: O_2  and  C_3
REMARK    3  A    between atoms: C_5  and  C_6
REMARK    4  A    between atoms: C_6  and  N_7
REMARK    5  A    between atoms: N_7  and  C_8
REMARK    6  A    between atoms: C_8  and  C_9
REMARK    7  A    between atoms: C_15  and  O_16
REMARK    8  A    between atoms: O_16  and  C_17
REMARK    9  A    between atoms: C_18  and  O_19
REMARK                            x       y       z     vdW  Elec       q    Type
REMARK                         _______ _______ _______ _____ _____    ______ ____
ROOT
ATOM      1  C   UNL     1       6.283   4.191  15.484  0.00  0.00    +0.000 A 
ATOM      2  C   UNL     1       5.478   3.837  16.583  0.00  0.00    +0.000 A 
ATOM      3  C   UNL     1       5.488   4.607  17.751  0.00  0.00    +0.000 A 
ATOM      4  C   UNL     1       6.298   5.743  17.825  0.00  0.00    +0.000 A 
ATOM      5  C   UNL     1       7.117   6.114  16.739  0.00  0.00    +0.000 A 
ATOM      6  C   UNL     1       7.108   5.326  15.567  0.00  0.00    +0.000 A 
ENDROOT
BRANCH   1   8
ATOM      7  C   UNL     1       5.510   3.693  13.224  0.00  0.00    +0.000 C 
ATOM      8  O   UNL     1       6.290   3.455  14.339  0.00  0.00    +0.000 OA
ENDBRANCH   1   8
BRANCH   5   9
ATOM      9  O   UNL     1       7.913   7.217  16.798  0.00  0.00    +0.000 OA
ATOM     10  C   UNL     1       7.730   8.289  17.651  0.00  0.00    +0.000 C 
ENDBRANCH   5   9
BRANCH   6  11
ATOM     11  O   UNL     1       7.890   5.641  14.513  0.00  0.00    +0.000 OA
ATOM     12  H   UNL     1       8.414   6.454  14.468  0.00  0.00    +0.000 HD
ENDBRANCH   6  11
BRANCH   3  13
ATOM     13  C   UNL     1       4.630   4.211  18.921  0.00  0.00    +0.000 C 
BRANCH  13  14
ATOM     14  N   UNL     1       5.105   2.940  19.477  0.00  0.00    +0.000 NA
ATOM     15  H   UNL     1       5.340   3.085  20.489  0.00  0.00    +0.000 HD
BRANCH  14  16
ATOM     16  C   UNL     1       4.061   1.916  19.380  0.00  0.00    +0.000 C 
BRANCH  16  17
ATOM     17  C   UNL     1       2.777   2.439  19.941  0.00  0.00    +0.000 A 
ATOM     18  C   UNL     1       2.544   2.768  21.261  0.00  0.00    +0.000 A 
ATOM     19  C   UNL     1       1.237   3.197  21.312  0.00  0.00    +0.000 A 
ATOM     20  C   UNL     1       0.752   3.104  20.023  0.00  0.00    +0.000 A 
ATOM     21  O   UNL     1       1.694   2.649  19.227  0.00  0.00    +0.000 OA
ENDBRANCH  16  17
ENDBRANCH  14  16
ENDBRANCH  13  14
ENDBRANCH   3  13
TORSDOF 7
ENDMDL
MODEL 7
REMARK VINA RESULT:      -6.7      1.444      3.384
REMARK  Name = 
REMARK  9 active torsions:
REMARK  status: ('A' for Active; 'I' for Inactive)
REMARK    1  A    between atoms: C_1  and  O_2
REMARK    2  A    between atoms: O_2  and  C_3
REMARK    3  A    between atoms: C_5  and  C_6
REMARK    4  A    between atoms: C_6  and  N_7
REMARK    5  A    between atoms: N_7  and  C_8
REMARK    6  A    between atoms: C_8  and  C_9
REMARK    7  A    between atoms: C_15  and  O_16
REMARK    8  A    between atoms: O_16  and  C_17
REMARK    9  A    between atoms: C_18  and  O_19
REMARK                            x       y       z     vdW  Elec       q    Type
REMARK                         _______ _______ _______ _____ _____    ______ ____
ROOT
ATOM      1  C   UNL     1       6.104   6.465  16.790  0.00  0.00    +0.000 A 
ATOM      2  C   UNL     1       4.872   6.228  17.429  0.00  0.00    +0.000 A 
ATOM      3  C   UNL     1       4.110   5.098  17.112  0.00  0.00    +0.000 A 
ATOM      4  C   UNL     1       4.578   4.193  16.157  0.00  0.00    +0.000 A 
ATOM      5  C   UNL     1       5.806   4.411  15.499  0.00  0.00    +0.000 A 
ATOM      6  C   UNL     1       6.565   5.558  15.819  0.00  0.00    +0.000 A 
ENDROOT
BRANCH   1   8
ATOM      7  C   UNL     1       7.882   7.604  18.011  0.00  0.00    +0.000 C 
ATOM      8  O   UNL     1       6.860   7.558  17.083  0.00  0.00    +0.000 OA
ENDBRANCH   1   8
BRANCH   5   9
ATOM      9  O   UNL     1       6.273   3.539  14.564  0.00  0.00    +0.000 OA
ATOM     10  C   UNL     1       6.054   3.635  13.203  0.00  0.00    +0.000 C 
ENDBRANCH   5   9
BRANCH   6  11
ATOM     11  O   UNL     1       7.738   5.810  15.199  0.00  0.00    +0.000 OA
ATOM     12  H   UNL     1       8.334   5.111  14.891  0.00  0.00    +0.000 HD
ENDBRANCH   6  11
BRANCH   3  13
ATOM     13  C   UNL     1       2.791   4.864  17.795  0.00  0.00    +0.000 C 
BRANCH  13  14
ATOM     14  N   UNL     1       2.210   3.599  17.334  0.00  0.00    +0.000 NA
ATOM     15  H   UNL     1       2.969   2.876  17.301  0.00  0.00    +0.000 HD
BRANCH  14  16
ATOM     16  C   UNL     1       1.169   3.145  18.260  0.00  0.00    +0.000 C 
BRANCH  16  17
ATOM     17  C   UNL     1       1.728   3.026  19.642  0.00  0.00    +0.000 A 
ATOM     18  C   UNL     1       1.175   3.561  20.788  0.00  0.00    +0.000 A 
ATOM     19  C   UNL     1       2.024   3.205  21.811  0.00  0.00    +0.000 A 
ATOM     20  C   UNL     1       3.042   2.477  21.229  0.00  0.00    +0.000 A 
ATOM     21  O   UNL     1       2.838   2.386  19.934  0.00  0.00    +0.000 OA
ENDBRANCH  16  17
ENDBRANCH  14  16
ENDBRANCH  13  14
ENDBRANCH   3  13
TORSDOF 7
ENDMDL
MODEL 8
REMARK VINA RESULT:      -6.6      0.746      3.115
REMARK  Name = 
REMARK  9 active torsions:
REMARK  status: ('A' for Active; 'I' for Inactive)
REMARK    1  A    between atoms: C_1  and  O_2
REMARK    2  A    between atoms: O_2  and  C_3
REMARK    3  A    between atoms: C_5  and  C_6
REMARK    4  A    between atoms: C_6  and  N_7
REMARK    5  A    between atoms: N_7  and  C_8
REMARK    6  A    between atoms: C_8  and  C_9
REMARK    7  A    between atoms: C_15  and  O_16
REMARK    8  A    between atoms: O_16  and  C_17
REMARK    9  A    between atoms: C_18  and  O_19
REMARK                            x       y       z     vdW  Elec       q    Type
REMARK                         _______ _______ _______ _____ _____    ______ ____
ROOT
ATOM      1  C   UNL     1       6.839   5.697  16.024  0.00  0.00    +0.000 A 
ATOM      2  C   UNL     1       5.737   5.234  16.768  0.00  0.00    +0.000 A 
ATOM      3  C   UNL     1       4.866   4.278  16.233  0.00  0.00    +0.000 A 
ATOM      4  C   UNL     1       5.096   3.772  14.952  0.00  0.00    +0.000 A 
ATOM      5  C   UNL     1       6.190   4.224  14.185  0.00  0.00    +0.000 A 
ATOM      6  C   UNL     1       7.059   5.195  14.729  0.00  0.00    +0.000 A 
ENDROOT
BRANCH   1   8
ATOM      7  C   UNL     1       7.377   7.602  17.449  0.00  0.00    +0.000 C 
ATOM      8  O   UNL     1       7.696   6.627  16.525  0.00  0.00    +0.000 OA
ENDBRANCH   1   8
BRANCH   5   9
ATOM      9  O   UNL     1       6.425   3.741  12.934  0.00  0.00    +0.000 OA
ATOM     10  C   UNL     1       5.506   3.064  12.155  0.00  0.00    +0.000 C 
ENDBRANCH   5   9
BRANCH   6  11
ATOM     11  O   UNL     1       8.108   5.665  14.019  0.00  0.00    +0.000 OA
ATOM     12  H   UNL     1       8.924   5.983  14.431  0.00  0.00    +0.000 HD
ENDBRANCH   6  11
BRANCH   3  13
ATOM     13  C   UNL     1       3.687   3.801  17.035  0.00  0.00    +0.000 C 
BRANCH  13  14
ATOM     14  N   UNL     1       4.082   2.659  17.866  0.00  0.00    +0.000 NA
ATOM     15  H   UNL     1       4.966   2.252  17.477  0.00  0.00    +0.000 HD
BRANCH  14  16
ATOM     16  C   UNL     1       4.330   3.089  19.245  0.00  0.00    +0.000 C 
BRANCH  16  17
ATOM     17  C   UNL     1       3.066   3.014  20.041  0.00  0.00    +0.000 A 
ATOM     18  C   UNL     1       1.806   3.355  19.593  0.00  0.00    +0.000 A 
ATOM     19  C   UNL     1       0.960   3.130  20.656  0.00  0.00    +0.000 A 
ATOM     20  C   UNL     1       1.754   2.666  21.686  0.00  0.00    +0.000 A 
ATOM     21  O   UNL     1       3.005   2.607  21.288  0.00  0.00    +0.000 OA
ENDBRANCH  16  17
ENDBRANCH  14  16
ENDBRANCH  13  14
ENDBRANCH   3  13
TORSDOF 7
ENDMDL
MODEL 9
REMARK VINA RESULT:      -6.5      2.376      3.246
REMARK  Name = 
REMARK  9 active torsions:
REMARK  status: ('A' for Active; 'I' for Inactive)
REMARK    1  A    between atoms: C_1  and  O_2
REMARK    2  A    between atoms: O_2  and  C_3
REMARK    3  A    between atoms: C_5  and  C_6
REMARK    4  A    between atoms: C_6  and  N_7
REMARK    5  A    between atoms: N_7  and  C_8
REMARK    6  A    between atoms: C_8  and  C_9
REMARK    7  A    between atoms: C_15  and  O_16
REMARK    8  A    between atoms: O_16  and  C_17
REMARK    9  A    between atoms: C_18  and  O_19
REMARK                            x       y       z     vdW  Elec       q    Type
REMARK                         _______ _______ _______ _____ _____    ______ ____
ROOT
ATOM      1  C   UNL     1       4.406   4.128  17.312  0.00  0.00    +0.000 A 
ATOM      2  C   UNL     1       3.386   4.925  17.865  0.00  0.00    +0.000 A 
ATOM      3  C   UNL     1       3.573   6.301  18.042  0.00  0.00    +0.000 A 
ATOM      4  C   UNL     1       4.780   6.890  17.659  0.00  0.00    +0.000 A 
ATOM      5  C   UNL     1       5.818   6.112  17.107  0.00  0.00    +0.000 A 
ATOM      6  C   UNL     1       5.624   4.723  16.940  0.00  0.00    +0.000 A 
ENDROOT
BRANCH   1   8
ATOM      7  C   UNL     1       3.478   1.957  17.924  0.00  0.00    +0.000 C 
ATOM      8  O   UNL     1       4.245   2.789  17.132  0.00  0.00    +0.000 OA
ENDBRANCH   1   8
BRANCH   5   9
ATOM      9  O   UNL     1       7.001   6.673  16.732  0.00  0.00    +0.000 OA
ATOM     10  C   UNL     1       7.680   7.648  17.437  0.00  0.00    +0.000 C 
ENDBRANCH   5   9
BRANCH   6  11
ATOM     11  O   UNL     1       6.601   3.942  16.431  0.00  0.00    +0.000 OA
ATOM     12  H   UNL     1       6.560   3.555  15.544  0.00  0.00    +0.000 HD
ENDBRANCH   6  11
BRANCH   3  13
ATOM     13  C   UNL     1       2.478   7.138  18.643  0.00  0.00    +0.000 C 
BRANCH  13  14
ATOM     14  N   UNL     1       2.509   7.020  20.105  0.00  0.00    +0.000 NA
ATOM     15  H   UNL     1       2.583   7.982  20.516  0.00  0.00    +0.000 HD
BRANCH  14  16
ATOM     16  C   UNL     1       1.279   6.393  20.594  0.00  0.00    +0.000 C 
BRANCH  16  17
ATOM     17  C   UNL     1       1.502   4.932  20.818  0.00  0.00    +0.000 A 
ATOM     18  C   UNL     1       0.780   3.905  20.245  0.00  0.00    +0.000 A 
ATOM     19  C   UNL     1       1.331   2.743  20.737  0.00  0.00    +0.000 A 
ATOM     20  C   UNL     1       2.354   3.130  21.578  0.00  0.00    +0.000 A 
ATOM     21  O   UNL     1       2.432   4.442  21.607  0.00  0.00    +0.000 OA
ENDBRANCH  16  17
ENDBRANCH  14  16
ENDBRANCH  13  14
ENDBRANCH   3  13
TORSDOF 7
ENDMDL
