MODEL 1
REMARK VINA RESULT:      -6.3      0.000      0.000
REMARK  Name = 
REMARK  13 active torsions:
REMARK  status: ('A' for Active; 'I' for Inactive)
REMARK    1  A    between atoms: C_1  and  C_2
REMARK    2  A    between atoms: C_2  and  C_3
REMARK    3  A    between atoms: N_5  and  C_6
REMARK    4  A    between atoms: N_5  and  C_12
REMARK    5  A    between atoms: C_12  and  C_13
REMARK    6  A    between atoms: C_13  and  O_14
REMARK    7  A    between atoms: O_14  and  C_15
REMARK    8  A    between atoms: N_18  and  C_19
REMARK    9  A    between atoms: C_19  and  C_20
REMARK   10  A    between atoms: C_20  and  C_21
REMARK   11  A    between atoms: C_20  and  N_22
REMARK   12  A    between atoms: N_25  and  C_26
REMARK   13  A    between atoms: C_26  and  C_27
REMARK                            x       y       z     vdW  Elec       q    Type
REMARK                         _______ _______ _______ _____ _____    ______ ____
ROOT
ATOM      1  C   UNL     1       3.664   4.452  18.884  0.00  0.00    +0.000 C 
ATOM      2  C   UNL     1       2.313   4.646  18.130  0.00  0.00    +0.000 C 
ATOM      3  C   UNL     1       2.095   6.091  17.658  0.00  0.00    +0.000 C 
ATOM      4  N   UNL     1       2.091   7.062  18.760  0.00  0.00    +0.000 NA
ATOM      5  C   UNL     1       3.289   6.927  19.612  0.00  0.00    +0.000 C 
ATOM      6  C   UNL     1       3.634   5.503  20.032  0.00  0.00    +0.000 C 
ENDROOT
BRANCH   1   9
ATOM      7  C   UNL     1       4.754   3.748  16.706  0.00  0.00    +0.000 C 
ATOM      8  O   UNL     1       3.828   2.965  16.478  0.00  0.00    +0.000 OA
ATOM      9  N   UNL     1       4.819   4.526  17.883  0.00  0.00    +0.000 N 
BRANCH   9  10
ATOM     10  C   UNL     1       5.848   5.497  18.050  0.00  0.00    +0.000 A 
ATOM     11  C   UNL     1       5.846   6.673  17.285  0.00  0.00    +0.000 A 
ATOM     12  C   UNL     1       6.887   7.594  17.376  0.00  0.00    +0.000 A 
ATOM     13  C   UNL     1       7.943   7.356  18.249  0.00  0.00    +0.000 A 
ATOM     14  C   UNL     1       7.953   6.197  19.026  0.00  0.00    +0.000 A 
ATOM     15  C   UNL     1       6.912   5.267  18.926  0.00  0.00    +0.000 A 
ENDBRANCH   9  10
BRANCH   7  17
ATOM     16  C   UNL     1       5.383   4.477  14.360  0.00  0.00    +0.000 C 
ATOM     17  C   UNL     1       5.876   3.890  15.676  0.00  0.00    +0.000 C 
ENDBRANCH   7  17
ENDBRANCH   1   9
BRANCH   1  18
ATOM     18  C   UNL     1       3.654   3.050  19.604  0.00  0.00    +0.000 C 
BRANCH  18  19
ATOM     19  O   UNL     1       2.308   2.633  19.883  0.00  0.00    +0.000 OA
ATOM     20  C   UNL     1       2.049   2.630  21.282  0.00  0.00    +0.000 C 
ENDBRANCH  18  19
ENDBRANCH   1  18
BRANCH   4  21
ATOM     21  C   UNL     1       2.067   8.468  18.266  0.00  0.00    +0.000 C 
BRANCH  21  22
ATOM     22  C   UNL     1       1.031   9.467  18.842  0.00  0.00    +0.000 C 
ATOM     23  C   UNL     1       0.645   9.159  20.288  0.00  0.00    +0.000 C 
BRANCH  22  24
ATOM     24  N   UNL     1       1.540  10.827  18.711  0.00  0.00    +0.000 N 
ATOM     25  N   UNL     1       2.621  11.154  17.930  0.00  0.00    +0.000 NA
ATOM     26  N   UNL     1       2.720  12.419  17.864  0.00  0.00    +0.000 NA
ATOM     27  N   UNL     1       1.690  12.980  18.564  0.00  0.00    +0.000 N 
ATOM     28  C   UNL     1       0.872  11.987  19.065  0.00  0.00    +0.000 A 
ATOM     29  O   UNL     1      -0.189  12.101  19.655  0.00  0.00    +0.000 OA
BRANCH  27  30
ATOM     30  C   UNL     1       1.476  14.402  18.622  0.00  0.00    +0.000 C 
ATOM     31  C   UNL     1       1.796  14.983  19.989  0.00  0.00    +0.000 C 
ENDBRANCH  27  30
ENDBRANCH  22  24
ENDBRANCH  21  22
ENDBRANCH   4  21
TORSDOF 9
ENDMDL
MODEL 2
REMARK VINA RESULT:      -6.3      1.791      2.506
REMARK  Name = 
REMARK  13 active torsions:
REMARK  status: ('A' for Active; 'I' for Inactive)
REMARK    1  A    between atoms: C_1  and  C_2
REMARK    2  A    between atoms: C_2  and  C_3
REMARK    3  A    between atoms: N_5  and  C_6
REMARK    4  A    between atoms: N_5  and  C_12
REMARK    5  A    between atoms: C_12  and  C_13
REMARK    6  A    between atoms: C_13  and  O_14
REMARK    7  A    between atoms: O_14  and  C_15
REMARK    8  A    between atoms: N_18  and  C_19
REMARK    9  A    between atoms: C_19  and  C_20
REMARK   10  A    between atoms: C_20  and  C_21
REMARK   11  A    between atoms: C_20  and  N_22
REMARK   12  A    between atoms: N_25  and  C_26
REMARK   13  A    between atoms: C_26  and  C_27
REMARK                            x       y       z     vdW  Elec       q    Type
REMARK                         _______ _______ _______ _____ _____    ______ ____
ROOT
ATOM      1  C   UNL     1       3.441   4.674  18.965  0.00  0.00    +0.000 C 
ATOM      2  C   UNL     1       2.081   4.775  18.210  0.00  0.00    +0.000 C 
ATOM      3  C   UNL     1       1.881   6.131  17.517  0.00  0.00    +0.000 C 
ATOM      4  N   UNL     1       1.915   7.265  18.452  0.00  0.00    +0.000 NA
ATOM      5  C   UNL     1       3.126   7.241  19.297  0.00  0.00    +0.000 C 
ATOM      6  C   UNL     1       3.451   5.894  19.933  0.00  0.00    +0.000 C 
ENDROOT
BRANCH   1   9
ATOM      7  C   UNL     1       4.414   3.720  16.828  0.00  0.00    +0.000 C 
ATOM      8  O   UNL     1       3.410   3.023  16.664  0.00  0.00    +0.000 OA
ATOM      9  N   UNL     1       4.579   4.564  17.949  0.00  0.00    +0.000 N 
BRANCH   9  10
ATOM     10  C   UNL     1       5.704   5.433  18.038  0.00  0.00    +0.000 A 
ATOM     11  C   UNL     1       6.741   5.161  18.943  0.00  0.00    +0.000 A 
ATOM     12  C   UNL     1       7.809   6.043  19.102  0.00  0.00    +0.000 A 
ATOM     13  C   UNL     1       7.858   7.208  18.345  0.00  0.00    +0.000 A 
ATOM     14  C   UNL     1       6.840   7.486  17.432  0.00  0.00    +0.000 A 
ATOM     15  C   UNL     1       5.764   6.605  17.280  0.00  0.00    +0.000 A 
ENDBRANCH   9  10
BRANCH   7  17
ATOM     16  C   UNL     1       5.167   4.465  14.524  0.00  0.00    +0.000 C 
ATOM     17  C   UNL     1       5.526   3.679  15.778  0.00  0.00    +0.000 C 
ENDBRANCH   7  17
ENDBRANCH   1   9
BRANCH   1  18
ATOM     18  C   UNL     1       3.417   3.404  19.899  0.00  0.00    +0.000 C 
BRANCH  18  19
ATOM     19  O   UNL     1       2.066   2.979  20.142  0.00  0.00    +0.000 OA
ATOM     20  C   UNL     1       1.803   2.870  21.536  0.00  0.00    +0.000 C 
ENDBRANCH  18  19
ENDBRANCH   1  18
BRANCH   4  21
ATOM     21  C   UNL     1       1.910   8.574  17.741  0.00  0.00    +0.000 C 
BRANCH  21  22
ATOM     22  C   UNL     1       1.422   9.847  18.480  0.00  0.00    +0.000 C 
ATOM     23  C   UNL     1       2.327  11.056  18.249  0.00  0.00    +0.000 C 
BRANCH  22  24
ATOM     24  N   UNL     1       0.045  10.138  18.096  0.00  0.00    +0.000 N 
ATOM     25  N   UNL     1      -0.654   9.389  17.183  0.00  0.00    +0.000 NA
ATOM     26  N   UNL     1      -1.870   9.759  17.184  0.00  0.00    +0.000 NA
ATOM     27  N   UNL     1      -2.032  10.739  18.123  0.00  0.00    +0.000 N 
ATOM     28  C   UNL     1      -0.836  10.960  18.776  0.00  0.00    +0.000 A 
ATOM     29  O   UNL     1      -0.615  11.684  19.732  0.00  0.00    +0.000 OA
BRANCH  27  30
ATOM     30  C   UNL     1      -3.314  11.320  18.423  0.00  0.00    +0.000 C 
ATOM     31  C   UNL     1      -4.180  11.489  17.186  0.00  0.00    +0.000 C 
ENDBRANCH  27  30
ENDBRANCH  22  24
ENDBRANCH  21  22
ENDBRANCH   4  21
TORSDOF 9
ENDMDL
MODEL 3
REMARK VINA RESULT:      -6.3      2.493      4.623
REMARK  Name = 
REMARK  13 active torsions:
REMARK  status: ('A' for Active; 'I' for Inactive)
REMARK    1  A    between atoms: C_1  and  C_2
REMARK    2  A    between atoms: C_2  and  C_3
REMARK    3  A    between atoms: N_5  and  C_6
REMARK    4  A    between atoms: N_5  and  C_12
REMARK    5  A    between atoms: C_12  and  C_13
REMARK    6  A    between atoms: C_13  and  O_14
REMARK    7  A    between atoms: O_14  and  C_15
REMARK    8  A    between atoms: N_18  and  C_19
REMARK    9  A    between atoms: C_19  and  C_20
REMARK   10  A    between atoms: C_20  and  C_21
REMARK   11  A    between atoms: C_20  and  N_22
REMARK   12  A    between atoms: N_25  and  C_26
REMARK   13  A    between atoms: C_26  and  C_27
REMARK                            x       y       z     vdW  Elec       q    Type
REMARK                         _______ _______ _______ _____ _____    ______ ____
ROOT
ATOM      1  C   UNL     1       4.325   5.800  18.623  0.00  0.00    +0.000 C 
ATOM      2  C   UNL     1       3.759   6.584  19.846  0.00  0.00    +0.000 C 
ATOM      3  C   UNL     1       2.418   7.269  19.548  0.00  0.00    +0.000 C 
ATOM      4  N   UNL     1       2.498   8.237  18.444  0.00  0.00    +0.000 NA
ATOM      5  C   UNL     1       3.102   7.639  17.237  0.00  0.00    +0.000 C 
ATOM      6  C   UNL     1       4.383   6.846  17.471  0.00  0.00    +0.000 C 
ENDROOT
BRANCH   1   9
ATOM      7  C   UNL     1       3.631   3.834  17.182  0.00  0.00    +0.000 C 
ATOM      8  O   UNL     1       4.365   4.224  16.270  0.00  0.00    +0.000 OA
ATOM      9  N   UNL     1       3.488   4.540  18.396  0.00  0.00    +0.000 N 
BRANCH   9  10
ATOM     10  C   UNL     1       2.716   3.994  19.462  0.00  0.00    +0.000 A 
ATOM     11  C   UNL     1       3.348   3.370  20.549  0.00  0.00    +0.000 A 
ATOM     12  C   UNL     1       2.608   2.758  21.559  0.00  0.00    +0.000 A 
ATOM     13  C   UNL     1       1.219   2.775  21.501  0.00  0.00    +0.000 A 
ATOM     14  C   UNL     1       0.576   3.402  20.434  0.00  0.00    +0.000 A 
ATOM     15  C   UNL     1       1.320   4.007  19.414  0.00  0.00    +0.000 A 
ENDBRANCH   9  10
BRANCH   7  17
ATOM     16  C   UNL     1       3.467   1.371  17.764  0.00  0.00    +0.000 C 
ATOM     17  C   UNL     1       2.847   2.532  16.999  0.00  0.00    +0.000 C 
ENDBRANCH   7  17
ENDBRANCH   1   9
BRANCH   1  18
ATOM     18  C   UNL     1       5.826   5.414  18.909  0.00  0.00    +0.000 C 
BRANCH  18  19
ATOM     19  O   UNL     1       6.699   6.028  17.946  0.00  0.00    +0.000 OA
ATOM     20  C   UNL     1       7.878   6.529  18.566  0.00  0.00    +0.000 C 
ENDBRANCH  18  19
ENDBRANCH   1  18
BRANCH   4  21
ATOM     21  C   UNL     1       1.155   8.746  18.050  0.00  0.00    +0.000 C 
BRANCH  21  22
ATOM     22  C   UNL     1       0.593  10.027  18.719  0.00  0.00    +0.000 C 
ATOM     23  C   UNL     1       1.520  11.232  18.576  0.00  0.00    +0.000 C 
BRANCH  22  24
ATOM     24  N   UNL     1      -0.733  10.315  18.185  0.00  0.00    +0.000 N 
ATOM     25  N   UNL     1      -1.270   9.656  17.107  0.00  0.00    +0.000 NA
ATOM     26  N   UNL     1      -2.490   9.984  16.983  0.00  0.00    +0.000 NA
ATOM     27  N   UNL     1      -2.823  10.841  17.994  0.00  0.00    +0.000 N 
ATOM     28  C   UNL     1      -1.736  11.024  18.825  0.00  0.00    +0.000 A 
ATOM     29  O   UNL     1      -1.678  11.638  19.877  0.00  0.00    +0.000 OA
BRANCH  27  30
ATOM     30  C   UNL     1      -4.160  11.341  18.178  0.00  0.00    +0.000 C 
ATOM     31  C   UNL     1      -4.867  11.610  16.861  0.00  0.00    +0.000 C 
ENDBRANCH  27  30
ENDBRANCH  22  24
ENDBRANCH  21  22
ENDBRANCH   4  21
TORSDOF 9
ENDMDL
MODEL 4
REMARK VINA RESULT:      -6.3      1.301      2.570
REMARK  Name = 
REMARK  13 active torsions:
REMARK  status: ('A' for Active; 'I' for Inactive)
REMARK    1  A    between atoms: C_1  and  C_2
REMARK    2  A    between atoms: C_2  and  C_3
REMARK    3  A    between atoms: N_5  and  C_6
REMARK    4  A    between atoms: N_5  and  C_12
REMARK    5  A    between atoms: C_12  and  C_13
REMARK    6  A    between atoms: C_13  and  O_14
REMARK    7  A    between atoms: O_14  and  C_15
REMARK    8  A    between atoms: N_18  and  C_19
REMARK    9  A    between atoms: C_19  and  C_20
REMARK   10  A    between atoms: C_20  and  C_21
REMARK   11  A    between atoms: C_20  and  N_22
REMARK   12  A    between atoms: N_25  and  C_26
REMARK   13  A    between atoms: C_26  and  C_27
REMARK                            x       y       z     vdW  Elec       q    Type
REMARK                         _______ _______ _______ _____ _____    ______ ____
ROOT
ATOM      1  C   UNL     1       3.834   4.393  18.644  0.00  0.00    +0.000 C 
ATOM      2  C   UNL     1       2.683   4.835  17.689  0.00  0.00    +0.000 C 
ATOM      3  C   UNL     1       2.445   6.352  17.703  0.00  0.00    +0.000 C 
ATOM      4  N   UNL     1       2.092   6.867  19.033  0.00  0.00    +0.000 NA
ATOM      5  C   UNL     1       3.067   6.444  20.058  0.00  0.00    +0.000 C 
ATOM      6  C   UNL     1       3.438   4.966  20.037  0.00  0.00    +0.000 C 
ENDROOT
BRANCH   1   9
ATOM      7  C   UNL     1       6.262   5.065  18.926  0.00  0.00    +0.000 C 
ATOM      8  O   UNL     1       6.155   4.992  20.153  0.00  0.00    +0.000 OA
ATOM      9  N   UNL     1       5.177   4.826  18.053  0.00  0.00    +0.000 N 
BRANCH   9  10
ATOM     10  C   UNL     1       5.376   4.811  16.642  0.00  0.00    +0.000 A 
ATOM     11  C   UNL     1       5.749   3.626  15.990  0.00  0.00    +0.000 A 
ATOM     12  C   UNL     1       6.027   3.612  14.625  0.00  0.00    +0.000 A 
ATOM     13  C   UNL     1       5.921   4.786  13.888  0.00  0.00    +0.000 A 
ATOM     14  C   UNL     1       5.539   5.970  14.520  0.00  0.00    +0.000 A 
ATOM     15  C   UNL     1       5.270   5.986  15.894  0.00  0.00    +0.000 A 
ENDBRANCH   9  10
BRANCH   7  17
ATOM     16  C   UNL     1       7.899   6.916  18.359  0.00  0.00    +0.000 C 
ATOM     17  C   UNL     1       7.621   5.420  18.319  0.00  0.00    +0.000 C 
ENDBRANCH   7  17
ENDBRANCH   1   9
BRANCH   1  18
ATOM     18  C   UNL     1       3.790   2.827  18.812  0.00  0.00    +0.000 C 
BRANCH  18  19
ATOM     19  O   UNL     1       2.861   2.454  19.843  0.00  0.00    +0.000 OA
ATOM     20  C   UNL     1       1.688   1.867  19.291  0.00  0.00    +0.000 C 
ENDBRANCH  18  19
ENDBRANCH   1  18
BRANCH   4  21
ATOM     21  C   UNL     1       2.051   8.356  19.062  0.00  0.00    +0.000 C 
BRANCH  21  22
ATOM     22  C   UNL     1       0.870   9.078  19.760  0.00  0.00    +0.000 C 
ATOM     23  C   UNL     1       0.839   8.849  21.270  0.00  0.00    +0.000 C 
BRANCH  22  24
ATOM     24  N   UNL     1       0.911  10.501  19.443  0.00  0.00    +0.000 N 
ATOM     25  N   UNL     1       1.896  11.072  18.676  0.00  0.00    +0.000 NA
ATOM     26  N   UNL     1       1.578  12.274  18.418  0.00  0.00    +0.000 NA
ATOM     27  N   UNL     1       0.355  12.537  18.969  0.00  0.00    +0.000 N 
ATOM     28  C   UNL     1      -0.134  11.398  19.578  0.00  0.00    +0.000 A 
ATOM     29  O   UNL     1      -1.227  11.220  20.089  0.00  0.00    +0.000 OA
BRANCH  27  30
ATOM     30  C   UNL     1      -0.321  13.795  18.793  0.00  0.00    +0.000 C 
ATOM     31  C   UNL     1       0.624  14.981  18.887  0.00  0.00    +0.000 C 
ENDBRANCH  27  30
ENDBRANCH  22  24
ENDBRANCH  21  22
ENDBRANCH   4  21
TORSDOF 9
ENDMDL
MODEL 5
REMARK VINA RESULT:      -6.2      1.588      2.711
REMARK  Name = 
REMARK  13 active torsions:
REMARK  status: ('A' for Active; 'I' for Inactive)
REMARK    1  A    between atoms: C_1  and  C_2
REMARK    2  A    between atoms: C_2  and  C_3
REMARK    3  A    between atoms: N_5  and  C_6
REMARK    4  A    between atoms: N_5  and  C_12
REMARK    5  A    between atoms: C_12  and  C_13
REMARK    6  A    between atoms: C_13  and  O_14
REMARK    7  A    between atoms: O_14  and  C_15
REMARK    8  A    between atoms: N_18  and  C_19
REMARK    9  A    between atoms: C_19  and  C_20
REMARK   10  A    between atoms: C_20  and  C_21
REMARK   11  A    between atoms: C_20  and  N_22
REMARK   12  A    between atoms: N_25  and  C_26
REMARK   13  A    between atoms: C_26  and  C_27
REMARK                            x       y       z     vdW  Elec       q    Type
REMARK                         _______ _______ _______ _____ _____    ______ ____
ROOT
ATOM      1  C   UNL     1       3.788   4.114  18.434  0.00  0.00    +0.000 C 
ATOM      2  C   UNL     1       2.673   4.817  17.601  0.00  0.00    +0.000 C 
ATOM      3  C   UNL     1       2.508   6.301  17.957  0.00  0.00    +0.000 C 
ATOM      4  N   UNL     1       2.162   6.520  19.368  0.00  0.00    +0.000 NA
ATOM      5  C   UNL     1       3.101   5.829  20.274  0.00  0.00    +0.000 C 
ATOM      6  C   UNL     1       3.402   4.377  19.919  0.00  0.00    +0.000 C 
ENDROOT
BRANCH   1   9
ATOM      7  C   UNL     1       6.194   4.758  18.908  0.00  0.00    +0.000 C 
ATOM      8  O   UNL     1       6.022   4.571  20.115  0.00  0.00    +0.000 OA
ATOM      9  N   UNL     1       5.159   4.601  17.960  0.00  0.00    +0.000 N 
BRANCH   9  10
ATOM     10  C   UNL     1       5.432   4.719  16.567  0.00  0.00    +0.000 A 
ATOM     11  C   UNL     1       5.269   5.950  15.913  0.00  0.00    +0.000 A 
ATOM     12  C   UNL     1       5.453   6.065  14.536  0.00  0.00    +0.000 A 
ATOM     13  C   UNL     1       5.818   4.947  13.795  0.00  0.00    +0.000 A 
ATOM     14  C   UNL     1       5.996   3.719  14.433  0.00  0.00    +0.000 A 
ATOM     15  C   UNL     1       5.801   3.602  15.814  0.00  0.00    +0.000 A 
ENDBRANCH   9  10
BRANCH   7  17
ATOM     16  C   UNL     1       7.841   6.659  18.589  0.00  0.00    +0.000 C 
ATOM     17  C   UNL     1       7.581   5.170  18.411  0.00  0.00    +0.000 C 
ENDBRANCH   7  17
ENDBRANCH   1   9
BRANCH   1  18
ATOM     18  C   UNL     1       3.667   2.554  18.244  0.00  0.00    +0.000 C 
BRANCH  18  19
ATOM     19  O   UNL     1       2.344   2.198  17.811  0.00  0.00    +0.000 OA
ATOM     20  C   UNL     1       1.546   1.756  18.904  0.00  0.00    +0.000 C 
ENDBRANCH  18  19
ENDBRANCH   1  18
BRANCH   4  21
ATOM     21  C   UNL     1       2.192   7.964  19.733  0.00  0.00    +0.000 C 
BRANCH  21  22
ATOM     22  C   UNL     1       0.862   8.719  19.990  0.00  0.00    +0.000 C 
ATOM     23  C   UNL     1       0.328   8.522  21.407  0.00  0.00    +0.000 C 
BRANCH  22  24
ATOM     24  N   UNL     1       1.037  10.134  19.684  0.00  0.00    +0.000 N 
ATOM     25  N   UNL     1       0.917  11.127  20.625  0.00  0.00    +0.000 NA
ATOM     26  N   UNL     1       1.298  12.228  20.120  0.00  0.00    +0.000 NA
ATOM     27  N   UNL     1       1.721  12.005  18.840  0.00  0.00    +0.000 N 
ATOM     28  C   UNL     1       1.631  10.658  18.549  0.00  0.00    +0.000 A 
ATOM     29  O   UNL     1       2.004  10.070  17.548  0.00  0.00    +0.000 OA
BRANCH  27  30
ATOM     30  C   UNL     1       2.284  13.042  18.017  0.00  0.00    +0.000 C 
ATOM     31  C   UNL     1       2.449  14.353  18.767  0.00  0.00    +0.000 C 
ENDBRANCH  27  30
ENDBRANCH  22  24
ENDBRANCH  21  22
ENDBRANCH   4  21
TORSDOF 9
ENDMDL
MODEL 6
REMARK VINA RESULT:      -6.2      1.241      1.440
REMARK  Name = 
REMARK  13 active torsions:
REMARK  status: ('A' for Active; 'I' for Inactive)
REMARK    1  A    between atoms: C_1  and  C_2
REMARK    2  A    between atoms: C_2  and  C_3
REMARK    3  A    between atoms: N_5  and  C_6
REMARK    4  A    between atoms: N_5  and  C_12
REMARK    5  A    between atoms: C_12  and  C_13
REMARK    6  A    between atoms: C_13  and  O_14
REMARK    7  A    between atoms: O_14  and  C_15
REMARK    8  A    between atoms: N_18  and  C_19
REMARK    9  A    between atoms: C_19  and  C_20
REMARK   10  A    between atoms: C_20  and  C_21
REMARK   11  A    between atoms: C_20  and  N_22
REMARK   12  A    between atoms: N_25  and  C_26
REMARK   13  A    between atoms: C_26  and  C_27
REMARK                            x       y       z     vdW  Elec       q    Type
REMARK                         _______ _______ _______ _____ _____    ______ ____
ROOT
ATOM      1  C   UNL     1       3.278   4.791  18.782  0.00  0.00    +0.000 C 
ATOM      2  C   UNL     1       2.046   5.192  17.914  0.00  0.00    +0.000 C 
ATOM      3  C   UNL     1       2.105   6.649  17.431  0.00  0.00    +0.000 C 
ATOM      4  N   UNL     1       2.163   7.619  18.532  0.00  0.00    +0.000 NA
ATOM      5  C   UNL     1       3.246   7.301  19.484  0.00  0.00    +0.000 C 
ATOM      6  C   UNL     1       3.320   5.844  19.927  0.00  0.00    +0.000 C 
ENDROOT
BRANCH   1   9
ATOM      7  C   UNL     1       4.446   3.839  16.743  0.00  0.00    +0.000 C 
ATOM      8  O   UNL     1       3.450   3.164  16.469  0.00  0.00    +0.000 OA
ATOM      9  N   UNL     1       4.511   4.668  17.885  0.00  0.00    +0.000 N 
BRANCH   9  10
ATOM     10  C   UNL     1       5.638   5.514  18.099  0.00  0.00    +0.000 A 
ATOM     11  C   UNL     1       5.813   6.672  17.327  0.00  0.00    +0.000 A 
ATOM     12  C   UNL     1       6.949   7.467  17.466  0.00  0.00    +0.000 A 
ATOM     13  C   UNL     1       7.924   7.117  18.394  0.00  0.00    +0.000 A 
ATOM     14  C   UNL     1       7.759   5.974  19.178  0.00  0.00    +0.000 A 
ATOM     15  C   UNL     1       6.622   5.172  19.030  0.00  0.00    +0.000 A 
ENDBRANCH   9  10
BRANCH   7  17
ATOM     16  C   UNL     1       5.359   4.375  14.438  0.00  0.00    +0.000 C 
ATOM     17  C   UNL     1       5.658   3.786  15.810  0.00  0.00    +0.000 C 
ENDBRANCH   7  17
ENDBRANCH   1   9
BRANCH   1  18
ATOM     18  C   UNL     1       2.981   3.416  19.492  0.00  0.00    +0.000 C 
BRANCH  18  19
ATOM     19  O   UNL     1       1.566   3.228  19.660  0.00  0.00    +0.000 OA
ATOM     20  C   UNL     1       1.112   2.078  18.956  0.00  0.00    +0.000 C 
ENDBRANCH  18  19
ENDBRANCH   1  18
BRANCH   4  21
ATOM     21  C   UNL     1       2.409   9.005  18.043  0.00  0.00    +0.000 C 
BRANCH  21  22
ATOM     22  C   UNL     1       1.224   9.996  17.917  0.00  0.00    +0.000 C 
ATOM     23  C   UNL     1      -0.135   9.299  17.866  0.00  0.00    +0.000 C 
BRANCH  22  24
ATOM     24  N   UNL     1       1.279  10.964  19.007  0.00  0.00    +0.000 N 
ATOM     25  N   UNL     1       0.959  10.653  20.305  0.00  0.00    +0.000 NA
ATOM     26  N   UNL     1       1.272  11.629  21.056  0.00  0.00    +0.000 NA
ATOM     27  N   UNL     1       1.844  12.608  20.293  0.00  0.00    +0.000 N 
ATOM     28  C   UNL     1       1.927  12.187  18.981  0.00  0.00    +0.000 A 
ATOM     29  O   UNL     1       2.460  12.743  18.036  0.00  0.00    +0.000 OA
BRANCH  27  30
ATOM     30  C   UNL     1       2.376  13.820  20.859  0.00  0.00    +0.000 C 
ATOM     31  C   UNL     1       1.333  14.606  21.635  0.00  0.00    +0.000 C 
ENDBRANCH  27  30
ENDBRANCH  22  24
ENDBRANCH  21  22
ENDBRANCH   4  21
TORSDOF 9
ENDMDL
MODEL 7
REMARK VINA RESULT:      -6.2      1.494      2.629
REMARK  Name = 
REMARK  13 active torsions:
REMARK  status: ('A' for Active; 'I' for Inactive)
REMARK    1  A    between atoms: C_1  and  C_2
REMARK    2  A    between atoms: C_2  and  C_3
REMARK    3  A    between atoms: N_5  and  C_6
REMARK    4  A    between atoms: N_5  and  C_12
REMARK    5  A    between atoms: C_12  and  C_13
REMARK    6  A    between atoms: C_13  and  O_14
REMARK    7  A    between atoms: O_14  and  C_15
REMARK    8  A    between atoms: N_18  and  C_19
REMARK    9  A    between atoms: C_19  and  C_20
REMARK   10  A    between atoms: C_20  and  C_21
REMARK   11  A    between atoms: C_20  and  N_22
REMARK   12  A    between atoms: N_25  and  C_26
REMARK   13  A    between atoms: C_26  and  C_27
REMARK                            x       y       z     vdW  Elec       q    Type
REMARK                         _______ _______ _______ _____ _____    ______ ____
ROOT
ATOM      1  C   UNL     1       3.865   4.293  18.567  0.00  0.00    +0.000 C 
ATOM      2  C   UNL     1       2.724   4.812  17.641  0.00  0.00    +0.000 C 
ATOM      3  C   UNL     1       2.486   6.323  17.774  0.00  0.00    +0.000 C 
ATOM      4  N   UNL     1       2.122   6.730  19.138  0.00  0.00    +0.000 NA
ATOM      5  C   UNL     1       3.087   6.225  20.135  0.00  0.00    +0.000 C 
ATOM      6  C   UNL     1       3.457   4.753  19.998  0.00  0.00    +0.000 C 
ENDROOT
BRANCH   1   9
ATOM      7  C   UNL     1       6.270   5.008  18.934  0.00  0.00    +0.000 C 
ATOM      8  O   UNL     1       6.131   4.901  20.155  0.00  0.00    +0.000 OA
ATOM      9  N   UNL     1       5.214   4.770  18.026  0.00  0.00    +0.000 N 
BRANCH   9  10
ATOM     10  C   UNL     1       5.451   4.798  16.621  0.00  0.00    +0.000 A 
ATOM     11  C   UNL     1       5.269   5.983  15.893  0.00  0.00    +0.000 A 
ATOM     12  C   UNL     1       5.417   6.008  14.508  0.00  0.00    +0.000 A 
ATOM     13  C   UNL     1       5.764   4.845  13.831  0.00  0.00    +0.000 A 
ATOM     14  C   UNL     1       5.961   3.660  14.543  0.00  0.00    +0.000 A 
ATOM     15  C   UNL     1       5.802   3.634  15.933  0.00  0.00    +0.000 A 
ENDBRANCH   9  10
BRANCH   7  17
ATOM     16  C   UNL     1       7.843   6.917  18.376  0.00  0.00    +0.000 C 
ATOM     17  C   UNL     1       7.636   5.409  18.374  0.00  0.00    +0.000 C 
ENDBRANCH   7  17
ENDBRANCH   1   9
BRANCH   1  18
ATOM     18  C   UNL     1       3.819   2.718  18.608  0.00  0.00    +0.000 C 
BRANCH  18  19
ATOM     19  O   UNL     1       2.597   2.233  18.028  0.00  0.00    +0.000 OA
ATOM     20  C   UNL     1       1.667   1.848  19.034  0.00  0.00    +0.000 C 
ENDBRANCH  18  19
ENDBRANCH   1  18
BRANCH   4  21
ATOM     21  C   UNL     1       2.082   8.212  19.287  0.00  0.00    +0.000 C 
BRANCH  21  22
ATOM     22  C   UNL     1       1.000   8.864  20.185  0.00  0.00    +0.000 C 
ATOM     23  C   UNL     1       1.292   8.714  21.677  0.00  0.00    +0.000 C 
BRANCH  22  24
ATOM     24  N   UNL     1       0.841  10.267  19.819  0.00  0.00    +0.000 N 
ATOM     25  N   UNL     1       1.489  10.844  18.755  0.00  0.00    +0.000 NA
ATOM     26  N   UNL     1       1.024  12.012  18.568  0.00  0.00    +0.000 NA
ATOM     27  N   UNL     1       0.026  12.241  19.472  0.00  0.00    +0.000 N 
ATOM     28  C   UNL     1      -0.166  11.115  20.248  0.00  0.00    +0.000 A 
ATOM     29  O   UNL     1      -1.024  10.909  21.089  0.00  0.00    +0.000 OA
BRANCH  27  30
ATOM     30  C   UNL     1      -0.755  13.449  19.476  0.00  0.00    +0.000 C 
ATOM     31  C   UNL     1      -0.024  14.616  18.833  0.00  0.00    +0.000 C 
ENDBRANCH  27  30
ENDBRANCH  22  24
ENDBRANCH  21  22
ENDBRANCH   4  21
TORSDOF 9
ENDMDL
MODEL 8
REMARK VINA RESULT:      -6.2      4.924      8.693
REMARK  Name = 
REMARK  13 active torsions:
REMARK  status: ('A' for Active; 'I' for Inactive)
REMARK    1  A    between atoms: C_1  and  C_2
REMARK    2  A    between atoms: C_2  and  C_3
REMARK    3  A    between atoms: N_5  and  C_6
REMARK    4  A    between atoms: N_5  and  C_12
REMARK    5  A    between atoms: C_12  and  C_13
REMARK    6  A    between atoms: C_13  and  O_14
REMARK    7  A    between atoms: O_14  and  C_15
REMARK    8  A    between atoms: N_18  and  C_19
REMARK    9  A    between atoms: C_19  and  C_20
REMARK   10  A    between atoms: C_20  and  C_21
REMARK   11  A    between atoms: C_20  and  N_22
REMARK   12  A    between atoms: N_25  and  C_26
REMARK   13  A    between atoms: C_26  and  C_27
REMARK                            x       y       z     vdW  Elec       q    Type
REMARK                         _______ _______ _______ _____ _____    ______ ____
ROOT
ATOM      1  C   UNL     1       0.443  12.545  19.341  0.00  0.00    +0.000 C 
ATOM      2  C   UNL     1       1.132  12.346  20.726  0.00  0.00    +0.000 C 
ATOM      3  C   UNL     1       0.134  12.022  21.848  0.00  0.00    +0.000 C 
ATOM      4  N   UNL     1      -0.876  13.071  22.041  0.00  0.00    +0.000 NA
ATOM      5  C   UNL     1      -1.552  13.419  20.774  0.00  0.00    +0.000 C 
ATOM      6  C   UNL     1      -0.628  13.648  19.583  0.00  0.00    +0.000 C 
ENDROOT
BRANCH   1   9
ATOM      7  C   UNL     1      -1.218  11.139  18.041  0.00  0.00    +0.000 C 
ATOM      8  O   UNL     1      -1.910  12.136  17.819  0.00  0.00    +0.000 OA
ATOM      9  N   UNL     1      -0.037  11.192  18.814  0.00  0.00    +0.000 N 
BRANCH   9  10
ATOM     10  C   UNL     1       0.788  10.038  18.950  0.00  0.00    +0.000 A 
ATOM     11  C   UNL     1       1.640   9.648  17.906  0.00  0.00    +0.000 A 
ATOM     12  C   UNL     1       2.393   8.478  17.988  0.00  0.00    +0.000 A 
ATOM     13  C   UNL     1       2.312   7.686  19.128  0.00  0.00    +0.000 A 
ATOM     14  C   UNL     1       1.478   8.067  20.180  0.00  0.00    +0.000 A 
ATOM     15  C   UNL     1       0.715   9.237  20.092  0.00  0.00    +0.000 A 
ENDBRANCH   9  10
BRANCH   7  17
ATOM     16  C   UNL     1      -3.160   9.656  17.362  0.00  0.00    +0.000 C 
ATOM     17  C   UNL     1      -1.646   9.793  17.454  0.00  0.00    +0.000 C 
ENDBRANCH   7  17
ENDBRANCH   1   9
BRANCH   1  18
ATOM     18  C   UNL     1       1.478  13.184  18.339  0.00  0.00    +0.000 C 
BRANCH  18  19
ATOM     19  O   UNL     1       2.434  13.992  19.046  0.00  0.00    +0.000 OA
ATOM     20  C   UNL     1       2.608  15.255  18.414  0.00  0.00    +0.000 C 
ENDBRANCH  18  19
ENDBRANCH   1  18
BRANCH   4  21
ATOM     21  C   UNL     1      -1.939  12.653  22.998  0.00  0.00    +0.000 C 
BRANCH  21  22
ATOM     22  C   UNL     1      -2.546  13.695  23.972  0.00  0.00    +0.000 C 
ATOM     23  C   UNL     1      -1.830  15.043  23.929  0.00  0.00    +0.000 C 
BRANCH  22  24
ATOM     24  N   UNL     1      -3.971  13.846  23.700  0.00  0.00    +0.000 N 
ATOM     25  N   UNL     1      -4.471  14.741  22.787  0.00  0.00    +0.000 NA
ATOM     26  N   UNL     1      -5.713  14.526  22.629  0.00  0.00    +0.000 NA
ATOM     27  N   UNL     1      -6.078  13.458  23.400  0.00  0.00    +0.000 N 
ATOM     28  C   UNL     1      -4.969  12.953  24.049  0.00  0.00    +0.000 A 
ATOM     29  O   UNL     1      -4.884  11.953  24.742  0.00  0.00    +0.000 OA
BRANCH  27  30
ATOM     30  C   UNL     1      -7.410  12.914  23.389  0.00  0.00    +0.000 C 
ATOM     31  C   UNL     1      -7.663  12.022  22.185  0.00  0.00    +0.000 C 
ENDBRANCH  27  30
ENDBRANCH  22  24
ENDBRANCH  21  22
ENDBRANCH   4  21
TORSDOF 9
ENDMDL
MODEL 9
REMARK VINA RESULT:      -6.2      4.907      7.794
REMARK  Name = 
REMARK  13 active torsions:
REMARK  status: ('A' for Active; 'I' for Inactive)
REMARK    1  A    between atoms: C_1  and  C_2
REMARK    2  A    between atoms: C_2  and  C_3
REMARK    3  A    between atoms: N_5  and  C_6
REMARK    4  A    between atoms: N_5  and  C_12
REMARK    5  A    between atoms: C_12  and  C_13
REMARK    6  A    between atoms: C_13  and  O_14
REMARK    7  A    between atoms: O_14  and  C_15
REMARK    8  A    between atoms: N_18  and  C_19
REMARK    9  A    between atoms: C_19  and  C_20
REMARK   10  A    between atoms: C_20  and  C_21
REMARK   11  A    between atoms: C_20  and  N_22
REMARK   12  A    between atoms: N_25  and  C_26
REMARK   13  A    between atoms: C_26  and  C_27
REMARK                            x       y       z     vdW  Elec       q    Type
REMARK                         _______ _______ _______ _____ _____    ______ ____
ROOT
ATOM      1  C   UNL     1      -0.325  12.242  20.435  0.00  0.00    +0.000 C 
ATOM      2  C   UNL     1      -0.600  13.582  19.687  0.00  0.00    +0.000 C 
ATOM      3  C   UNL     1       0.425  13.870  18.581  0.00  0.00    +0.000 C 
ATOM      4  N   UNL     1       1.803  13.958  19.083  0.00  0.00    +0.000 NA
ATOM      5  C   UNL     1       2.167  12.776  19.890  0.00  0.00    +0.000 C 
ATOM      6  C   UNL     1       1.143  12.361  20.939  0.00  0.00    +0.000 C 
ENDROOT
BRANCH   1   9
ATOM      7  C   UNL     1      -1.875  11.103  18.784  0.00  0.00    +0.000 C 
ATOM      8  O   UNL     1      -2.695  12.017  18.900  0.00  0.00    +0.000 OA
ATOM      9  N   UNL     1      -0.667  11.068  19.516  0.00  0.00    +0.000 N 
BRANCH   9  10
ATOM     10  C   UNL     1       0.298  10.051  19.266  0.00  0.00    +0.000 A 
ATOM     11  C   UNL     1       0.618   9.116  20.262  0.00  0.00    +0.000 A 
ATOM     12  C   UNL     1       1.618   8.166  20.064  0.00  0.00    +0.000 A 
ATOM     13  C   UNL     1       2.305   8.130  18.855  0.00  0.00    +0.000 A 
ATOM     14  C   UNL     1       1.989   9.046  17.850  0.00  0.00    +0.000 A 
ATOM     15  C   UNL     1       0.992  10.006  18.054  0.00  0.00    +0.000 A 
ENDBRANCH   9  10
BRANCH   7  17
ATOM     16  C   UNL     1      -3.547  10.085  17.172  0.00  0.00    +0.000 C 
ATOM     17  C   UNL     1      -2.169   9.961  17.808  0.00  0.00    +0.000 C 
ENDBRANCH   7  17
ENDBRANCH   1   9
BRANCH   1  18
ATOM     18  C   UNL     1      -1.209  12.190  21.739  0.00  0.00    +0.000 C 
BRANCH  18  19
ATOM     19  O   UNL     1      -0.458  11.649  22.839  0.00  0.00    +0.000 OA
ATOM     20  C   UNL     1      -0.935  10.358  23.202  0.00  0.00    +0.000 C 
ENDBRANCH  18  19
ENDBRANCH   1  18
BRANCH   4  21
ATOM     21  C   UNL     1       2.796  14.049  17.975  0.00  0.00    +0.000 C 
BRANCH  21  22
ATOM     22  C   UNL     1       3.623  15.347  17.791  0.00  0.00    +0.000 C 
ATOM     23  C   UNL     1       2.781  16.616  17.917  0.00  0.00    +0.000 C 
BRANCH  22  24
ATOM     24  N   UNL     1       4.734  15.357  18.736  0.00  0.00    +0.000 N 
ATOM     25  N   UNL     1       4.571  15.546  20.086  0.00  0.00    +0.000 NA
ATOM     26  N   UNL     1       5.675  15.324  20.674  0.00  0.00    +0.000 NA
ATOM     27  N   UNL     1       6.602  14.943  19.746  0.00  0.00    +0.000 N 
ATOM     28  C   UNL     1       6.014  14.886  18.498  0.00  0.00    +0.000 A 
ATOM     29  O   UNL     1       6.495  14.497  17.447  0.00  0.00    +0.000 OA
BRANCH  27  30
ATOM     30  C   UNL     1       7.939  14.548  20.102  0.00  0.00    +0.000 C 
ATOM     31  C   UNL     1       8.103  14.335  21.597  0.00  0.00    +0.000 C 
ENDBRANCH  27  30
ENDBRANCH  22  24
ENDBRANCH  21  22
ENDBRANCH   4  21
TORSDOF 9
ENDMDL
