MODEL 1
REMARK VINA RESULT:      -7.7      0.000      0.000
REMARK  Name = 
REMARK  7 active torsions:
REMARK  status: ('A' for Active; 'I' for Inactive)
REMARK    1  A    between atoms: C_1  and  O_2
REMARK    2  A    between atoms: O_2  and  C_3
REMARK    3  A    between atoms: C_6  and  N_7
REMARK    4  A    between atoms: C_13  and  C_14
REMARK    5  A    between atoms: N_16  and  C_17
REMARK    6  A    between atoms: C_29  and  O_30
REMARK    7  A    between atoms: O_30  and  C_31
REMARK                            x       y       z     vdW  Elec       q    Type
REMARK                         _______ _______ _______ _____ _____    ______ ____
ROOT
ATOM      1  N   UNL     1       1.358   8.665  19.683  0.00  0.00    +0.000 N 
ATOM      2  C   UNL     1       0.882   8.624  21.079  0.00  0.00    +0.000 C 
ATOM      3  C   UNL     1       1.007  10.028  21.723  0.00  0.00    +0.000 C 
ATOM      4  N   UNL     1       0.320  11.009  20.876  0.00  0.00    +0.000 N 
ATOM      5  C   UNL     1      -0.557  11.907  21.426  0.00  0.00    +0.000 A 
ATOM      6  C   UNL     1      -1.603  12.413  20.694  0.00  0.00    +0.000 A 
ATOM      7  C   UNL     1      -2.491  13.233  21.357  0.00  0.00    +0.000 A 
ATOM      8  N   UNL     1      -2.368  13.604  22.653  0.00  0.00    +0.000 NA
ATOM      9  C   UNL     1      -1.310  13.072  23.268  0.00  0.00    +0.000 A 
ATOM     10  N   UNL     1      -0.418  12.230  22.725  0.00  0.00    +0.000 NA
ATOM     11  C   UNL     1       0.804  11.074  19.490  0.00  0.00    +0.000 C 
ATOM     12  C   UNL     1       0.692   9.679  18.837  0.00  0.00    +0.000 C 
ENDROOT
BRANCH   1  16
ATOM     13  C   UNL     1       4.052   5.786  18.158  0.00  0.00    +0.000 A 
ATOM     14  C   UNL     1       3.828   6.989  17.479  0.00  0.00    +0.000 A 
ATOM     15  C   UNL     1       2.943   7.946  17.987  0.00  0.00    +0.000 A 
ATOM     16  C   UNL     1       2.223   7.728  19.163  0.00  0.00    +0.000 A 
ATOM     17  C   UNL     1       2.400   6.478  19.775  0.00  0.00    +0.000 A 
ATOM     18  C   UNL     1       3.289   5.502  19.293  0.00  0.00    +0.000 A 
BRANCH  13  20
ATOM     19  C   UNL     1       4.848   4.509  16.346  0.00  0.00    +0.000 C 
ATOM     20  O   UNL     1       4.987   4.891  17.714  0.00  0.00    +0.000 OA
ENDBRANCH  13  20
BRANCH  18  21
ATOM     21  O   UNL     1       3.284   4.375  20.072  0.00  0.00    +0.000 OA
ATOM     22  C   UNL     1       2.281   4.230  21.062  0.00  0.00    +0.000 C 
ENDBRANCH  18  21
ENDBRANCH   1  16
BRANCH   7  23
ATOM     23  C   UNL     1      -3.715  13.705  20.632  0.00  0.00    +0.000 C 
ATOM     24  O   UNL     1      -4.123  14.857  20.745  0.00  0.00    +0.000 OA
ATOM     25  N   UNL     1      -4.304  12.753  19.827  0.00  0.00    +0.000 N 
ATOM     26  H   UNL     1      -3.926  11.812  19.908  0.00  0.00    +0.000 HD
BRANCH  25  27
ATOM     27  C   UNL     1      -5.521  12.996  19.069  0.00  0.00    +0.000 C 
ATOM     28  C   UNL     1      -5.511  12.213  17.751  0.00  0.00    +0.000 C 
ATOM     29  C   UNL     1      -5.662  10.707  17.966  0.00  0.00    +0.000 C 
ATOM     30  C   UNL     1      -6.900  10.378  18.794  0.00  0.00    +0.000 C 
ATOM     31  C   UNL     1      -6.939  11.155  20.108  0.00  0.00    +0.000 C 
ATOM     32  C   UNL     1      -6.770  12.658  19.892  0.00  0.00    +0.000 C 
ENDBRANCH  25  27
ENDBRANCH   7  23
TORSDOF 5
ENDMDL
MODEL 2
REMARK VINA RESULT:      -7.4      1.793      2.694
REMARK  Name = 
REMARK  7 active torsions:
REMARK  status: ('A' for Active; 'I' for Inactive)
REMARK    1  A    between atoms: C_1  and  O_2
REMARK    2  A    between atoms: O_2  and  C_3
REMARK    3  A    between atoms: C_6  and  N_7
REMARK    4  A    between atoms: C_13  and  C_14
REMARK    5  A    between atoms: N_16  and  C_17
REMARK    6  A    between atoms: C_29  and  O_30
REMARK    7  A    between atoms: O_30  and  C_31
REMARK                            x       y       z     vdW  Elec       q    Type
REMARK                         _______ _______ _______ _____ _____    ______ ____
ROOT
ATOM      1  N   UNL     1       2.320   7.391  18.584  0.00  0.00    +0.000 N 
ATOM      2  C   UNL     1       1.725   7.181  19.919  0.00  0.00    +0.000 C 
ATOM      3  C   UNL     1       1.751   8.504  20.725  0.00  0.00    +0.000 C 
ATOM      4  N   UNL     1       1.110   9.562  19.934  0.00  0.00    +0.000 N 
ATOM      5  C   UNL     1       0.162  10.373  20.501  0.00  0.00    +0.000 A 
ATOM      6  C   UNL     1      -0.832  10.938  19.739  0.00  0.00    +0.000 A 
ATOM      7  C   UNL     1      -1.799  11.658  20.408  0.00  0.00    +0.000 A 
ATOM      8  N   UNL     1      -1.799  11.881  21.743  0.00  0.00    +0.000 NA
ATOM      9  C   UNL     1      -0.783  11.304  22.387  0.00  0.00    +0.000 A 
ATOM     10  N   UNL     1       0.178  10.548  21.835  0.00  0.00    +0.000 NA
ATOM     11  C   UNL     1       1.711   9.794  18.613  0.00  0.00    +0.000 C 
ATOM     12  C   UNL     1       1.698   8.481  17.801  0.00  0.00    +0.000 C 
ENDROOT
BRANCH   1  16
ATOM     13  C   UNL     1       5.187   4.813  16.851  0.00  0.00    +0.000 A 
ATOM     14  C   UNL     1       4.027   4.302  17.443  0.00  0.00    +0.000 A 
ATOM     15  C   UNL     1       3.074   5.154  18.010  0.00  0.00    +0.000 A 
ATOM     16  C   UNL     1       3.255   6.537  18.042  0.00  0.00    +0.000 A 
ATOM     17  C   UNL     1       4.466   7.017  17.521  0.00  0.00    +0.000 A 
ATOM     18  C   UNL     1       5.437   6.185  16.937  0.00  0.00    +0.000 A 
BRANCH  13  20
ATOM     19  C   UNL     1       5.989   4.008  14.788  0.00  0.00    +0.000 C 
ATOM     20  O   UNL     1       6.074   3.990  16.213  0.00  0.00    +0.000 OA
ENDBRANCH  13  20
BRANCH  18  21
ATOM     21  O   UNL     1       6.523   6.895  16.498  0.00  0.00    +0.000 OA
ATOM     22  C   UNL     1       7.448   7.391  17.450  0.00  0.00    +0.000 C 
ENDBRANCH  18  21
ENDBRANCH   1  16
BRANCH   7  23
ATOM     23  C   UNL     1      -2.969  12.184  19.634  0.00  0.00    +0.000 C 
ATOM     24  O   UNL     1      -2.947  12.256  18.409  0.00  0.00    +0.000 OA
ATOM     25  N   UNL     1      -4.052  12.542  20.409  0.00  0.00    +0.000 N 
ATOM     26  H   UNL     1      -3.897  12.530  21.415  0.00  0.00    +0.000 HD
BRANCH  25  27
ATOM     27  C   UNL     1      -5.272  13.110  19.857  0.00  0.00    +0.000 C 
ATOM     28  C   UNL     1      -6.171  12.015  19.274  0.00  0.00    +0.000 C 
ATOM     29  C   UNL     1      -6.790  11.131  20.356  0.00  0.00    +0.000 C 
ATOM     30  C   UNL     1      -7.533  11.957  21.401  0.00  0.00    +0.000 C 
ATOM     31  C   UNL     1      -6.661  13.064  21.989  0.00  0.00    +0.000 C 
ATOM     32  C   UNL     1      -6.029  13.935  20.905  0.00  0.00    +0.000 C 
ENDBRANCH  25  27
ENDBRANCH   7  23
TORSDOF 5
ENDMDL
MODEL 3
REMARK VINA RESULT:      -7.4      1.916      2.616
REMARK  Name = 
REMARK  7 active torsions:
REMARK  status: ('A' for Active; 'I' for Inactive)
REMARK    1  A    between atoms: C_1  and  O_2
REMARK    2  A    between atoms: O_2  and  C_3
REMARK    3  A    between atoms: C_6  and  N_7
REMARK    4  A    between atoms: C_13  and  C_14
REMARK    5  A    between atoms: N_16  and  C_17
REMARK    6  A    between atoms: C_29  and  O_30
REMARK    7  A    between atoms: O_30  and  C_31
REMARK                            x       y       z     vdW  Elec       q    Type
REMARK                         _______ _______ _______ _____ _____    ______ ____
ROOT
ATOM      1  N   UNL     1       2.537   7.474  18.636  0.00  0.00    +0.000 N 
ATOM      2  C   UNL     1       1.852   7.579  19.939  0.00  0.00    +0.000 C 
ATOM      3  C   UNL     1       1.624   9.069  20.299  0.00  0.00    +0.000 C 
ATOM      4  N   UNL     1       0.926   9.730  19.190  0.00  0.00    +0.000 N 
ATOM      5  C   UNL     1      -0.172  10.514  19.431  0.00  0.00    +0.000 A 
ATOM      6  C   UNL     1      -1.155  10.665  18.484  0.00  0.00    +0.000 A 
ATOM      7  C   UNL     1      -2.269  11.390  18.850  0.00  0.00    +0.000 A 
ATOM      8  N   UNL     1      -2.426  11.997  20.050  0.00  0.00    +0.000 NA
ATOM      9  C   UNL     1      -1.408  11.804  20.890  0.00  0.00    +0.000 A 
ATOM     10  N   UNL     1      -0.307  11.078  20.646  0.00  0.00    +0.000 NA
ATOM     11  C   UNL     1       1.613   9.651  17.893  0.00  0.00    +0.000 C 
ATOM     12  C   UNL     1       1.853   8.170  17.526  0.00  0.00    +0.000 C 
ENDROOT
BRANCH   1  16
ATOM     13  C   UNL     1       5.897   4.968  18.083  0.00  0.00    +0.000 A 
ATOM     14  C   UNL     1       5.685   6.077  17.257  0.00  0.00    +0.000 A 
ATOM     15  C   UNL     1       4.579   6.912  17.444  0.00  0.00    +0.000 A 
ATOM     16  C   UNL     1       3.626   6.654  18.431  0.00  0.00    +0.000 A 
ATOM     17  C   UNL     1       3.814   5.487  19.187  0.00  0.00    +0.000 A 
ATOM     18  C   UNL     1       4.922   4.636  19.027  0.00  0.00    +0.000 A 
BRANCH  13  20
ATOM     19  C   UNL     1       8.213   4.809  18.480  0.00  0.00    +0.000 C 
ATOM     20  O   UNL     1       7.027   4.206  17.964  0.00  0.00    +0.000 OA
ENDBRANCH  13  20
BRANCH  18  21
ATOM     21  O   UNL     1       4.878   3.572  19.888  0.00  0.00    +0.000 OA
ATOM     22  C   UNL     1       3.773   2.686  19.828  0.00  0.00    +0.000 C 
ENDBRANCH  18  21
ENDBRANCH   1  16
BRANCH   7  23
ATOM     23  C   UNL     1      -3.420  11.473  17.894  0.00  0.00    +0.000 C 
ATOM     24  O   UNL     1      -3.255  11.373  16.682  0.00  0.00    +0.000 OA
ATOM     25  N   UNL     1      -4.651  11.639  18.494  0.00  0.00    +0.000 N 
ATOM     26  H   UNL     1      -4.631  11.812  19.497  0.00  0.00    +0.000 HD
BRANCH  25  27
ATOM     27  C   UNL     1      -5.889  11.781  17.745  0.00  0.00    +0.000 C 
ATOM     28  C   UNL     1      -7.053  11.107  18.478  0.00  0.00    +0.000 C 
ATOM     29  C   UNL     1      -7.458  11.857  19.746  0.00  0.00    +0.000 C 
ATOM     30  C   UNL     1      -7.761  13.325  19.459  0.00  0.00    +0.000 C 
ATOM     31  C   UNL     1      -6.619  14.016  18.718  0.00  0.00    +0.000 C 
ATOM     32  C   UNL     1      -6.205  13.254  17.460  0.00  0.00    +0.000 C 
ENDBRANCH  25  27
ENDBRANCH   7  23
TORSDOF 5
ENDMDL
MODEL 4
REMARK VINA RESULT:      -7.3      1.365      1.732
REMARK  Name = 
REMARK  7 active torsions:
REMARK  status: ('A' for Active; 'I' for Inactive)
REMARK    1  A    between atoms: C_1  and  O_2
REMARK    2  A    between atoms: O_2  and  C_3
REMARK    3  A    between atoms: C_6  and  N_7
REMARK    4  A    between atoms: C_13  and  C_14
REMARK    5  A    between atoms: N_16  and  C_17
REMARK    6  A    between atoms: C_29  and  O_30
REMARK    7  A    between atoms: O_30  and  C_31
REMARK                            x       y       z     vdW  Elec       q    Type
REMARK                         _______ _______ _______ _____ _____    ______ ____
ROOT
ATOM      1  N   UNL     1       0.632   9.322  20.187  0.00  0.00    +0.000 N 
ATOM      2  C   UNL     1       0.751   9.605  21.631  0.00  0.00    +0.000 C 
ATOM      3  C   UNL     1       0.605  11.127  21.886  0.00  0.00    +0.000 C 
ATOM      4  N   UNL     1      -0.643  11.600  21.276  0.00  0.00    +0.000 N 
ATOM      5  C   UNL     1      -1.509  12.386  21.989  0.00  0.00    +0.000 A 
ATOM      6  C   UNL     1      -2.857  12.372  21.726  0.00  0.00    +0.000 A 
ATOM      7  C   UNL     1      -3.664  13.120  22.558  0.00  0.00    +0.000 A 
ATOM      8  N   UNL     1      -3.209  13.894  23.570  0.00  0.00    +0.000 NA
ATOM      9  C   UNL     1      -1.885  13.851  23.730  0.00  0.00    +0.000 A 
ATOM     10  N   UNL     1      -1.023  13.122  23.006  0.00  0.00    +0.000 NA
ATOM     11  C   UNL     1      -0.760  11.343  19.833  0.00  0.00    +0.000 C 
ATOM     12  C   UNL     1      -0.609   9.830  19.564  0.00  0.00    +0.000 C 
ENDROOT
BRANCH   1  16
ATOM     13  C   UNL     1       3.385   6.819  18.181  0.00  0.00    +0.000 A 
ATOM     14  C   UNL     1       2.906   7.987  17.579  0.00  0.00    +0.000 A 
ATOM     15  C   UNL     1       2.002   8.820  18.244  0.00  0.00    +0.000 A 
ATOM     16  C   UNL     1       1.513   8.505  19.513  0.00  0.00    +0.000 A 
ATOM     17  C   UNL     1       1.940   7.285  20.057  0.00  0.00    +0.000 A 
ATOM     18  C   UNL     1       2.856   6.433  19.415  0.00  0.00    +0.000 A 
BRANCH  13  20
ATOM     19  C   UNL     1       4.945   6.649  16.425  0.00  0.00    +0.000 C 
ATOM     20  O   UNL     1       4.341   6.053  17.573  0.00  0.00    +0.000 OA
ENDBRANCH  13  20
BRANCH  18  21
ATOM     21  O   UNL     1       3.116   5.310  20.155  0.00  0.00    +0.000 OA
ATOM     22  C   UNL     1       2.355   4.139  19.916  0.00  0.00    +0.000 C 
ENDBRANCH  18  21
ENDBRANCH   1  16
BRANCH   7  23
ATOM     23  C   UNL     1      -5.150  13.033  22.387  0.00  0.00    +0.000 C 
ATOM     24  O   UNL     1      -5.918  13.600  23.158  0.00  0.00    +0.000 OA
ATOM     25  N   UNL     1      -5.557  12.300  21.292  0.00  0.00    +0.000 N 
ATOM     26  H   UNL     1      -4.821  11.799  20.799  0.00  0.00    +0.000 HD
BRANCH  25  27
ATOM     27  C   UNL     1      -6.955  12.063  20.969  0.00  0.00    +0.000 C 
ATOM     28  C   UNL     1      -7.526  13.210  20.129  0.00  0.00    +0.000 C 
ATOM     29  C   UNL     1      -6.957  13.235  18.711  0.00  0.00    +0.000 C 
ATOM     30  C   UNL     1      -7.138  11.893  18.009  0.00  0.00    +0.000 C 
ATOM     31  C   UNL     1      -6.587  10.731  18.832  0.00  0.00    +0.000 C 
ATOM     32  C   UNL     1      -7.144  10.719  20.255  0.00  0.00    +0.000 C 
ENDBRANCH  25  27
ENDBRANCH   7  23
TORSDOF 5
ENDMDL
MODEL 5
REMARK VINA RESULT:      -7.3      3.229      4.469
REMARK  Name = 
REMARK  7 active torsions:
REMARK  status: ('A' for Active; 'I' for Inactive)
REMARK    1  A    between atoms: C_1  and  O_2
REMARK    2  A    between atoms: O_2  and  C_3
REMARK    3  A    between atoms: C_6  and  N_7
REMARK    4  A    between atoms: C_13  and  C_14
REMARK    5  A    between atoms: N_16  and  C_17
REMARK    6  A    between atoms: C_29  and  O_30
REMARK    7  A    between atoms: O_30  and  C_31
REMARK                            x       y       z     vdW  Elec       q    Type
REMARK                         _______ _______ _______ _____ _____    ______ ____
ROOT
ATOM      1  N   UNL     1       2.164   7.747  19.359  0.00  0.00    +0.000 N 
ATOM      2  C   UNL     1       2.214   8.732  18.260  0.00  0.00    +0.000 C 
ATOM      3  C   UNL     1       0.855   9.466  18.144  0.00  0.00    +0.000 C 
ATOM      4  N   UNL     1       0.500  10.031  19.451  0.00  0.00    +0.000 N 
ATOM      5  C   UNL     1       0.088  11.335  19.555  0.00  0.00    +0.000 A 
ATOM      6  C   UNL     1       0.299  12.054  20.705  0.00  0.00    +0.000 A 
ATOM      7  C   UNL     1      -0.060  13.385  20.684  0.00  0.00    +0.000 A 
ATOM      8  N   UNL     1      -0.644  14.003  19.631  0.00  0.00    +0.000 NA
ATOM      9  C   UNL     1      -0.821  13.212  18.571  0.00  0.00    +0.000 A 
ATOM     10  N   UNL     1      -0.465  11.923  18.477  0.00  0.00    +0.000 NA
ATOM     11  C   UNL     1       0.424   9.054  20.546  0.00  0.00    +0.000 C 
ATOM     12  C   UNL     1       1.771   8.309  20.668  0.00  0.00    +0.000 C 
ENDROOT
BRANCH   1  16
ATOM     13  C   UNL     1       3.579   3.780  18.998  0.00  0.00    +0.000 A 
ATOM     14  C   UNL     1       3.702   4.684  17.938  0.00  0.00    +0.000 A 
ATOM     15  C   UNL     1       3.242   6.000  18.059  0.00  0.00    +0.000 A 
ATOM     16  C   UNL     1       2.611   6.451  19.219  0.00  0.00    +0.000 A 
ATOM     17  C   UNL     1       2.421   5.500  20.232  0.00  0.00    +0.000 A 
ATOM     18  C   UNL     1       2.881   4.175  20.142  0.00  0.00    +0.000 A 
BRANCH  13  20
ATOM     19  C   UNL     1       3.290   1.565  18.251  0.00  0.00    +0.000 C 
ATOM     20  O   UNL     1       4.113   2.523  18.917  0.00  0.00    +0.000 OA
ENDBRANCH  13  20
BRANCH  18  21
ATOM     21  O   UNL     1       2.578   3.449  21.264  0.00  0.00    +0.000 OA
ATOM     22  C   UNL     1       1.274   2.912  21.401  0.00  0.00    +0.000 C 
ENDBRANCH  18  21
ENDBRANCH   1  16
BRANCH   7  23
ATOM     23  C   UNL     1       0.268  14.238  21.873  0.00  0.00    +0.000 C 
ATOM     24  O   UNL     1       1.427  14.409  22.238  0.00  0.00    +0.000 OA
ATOM     25  N   UNL     1      -0.827  14.816  22.479  0.00  0.00    +0.000 N 
ATOM     26  H   UNL     1      -1.734  14.506  22.139  0.00  0.00    +0.000 HD
BRANCH  25  27
ATOM     27  C   UNL     1      -0.729  15.647  23.669  0.00  0.00    +0.000 C 
ATOM     28  C   UNL     1      -1.311  17.042  23.412  0.00  0.00    +0.000 C 
ATOM     29  C   UNL     1      -2.832  17.021  23.262  0.00  0.00    +0.000 C 
ATOM     30  C   UNL     1      -3.506  16.352  24.455  0.00  0.00    +0.000 C 
ATOM     31  C   UNL     1      -2.936  14.965  24.739  0.00  0.00    +0.000 C 
ATOM     32  C   UNL     1      -1.413  14.985  24.871  0.00  0.00    +0.000 C 
ENDBRANCH  25  27
ENDBRANCH   7  23
TORSDOF 5
ENDMDL
MODEL 6
REMARK VINA RESULT:      -7.3      3.222      4.600
REMARK  Name = 
REMARK  7 active torsions:
REMARK  status: ('A' for Active; 'I' for Inactive)
REMARK    1  A    between atoms: C_1  and  O_2
REMARK    2  A    between atoms: O_2  and  C_3
REMARK    3  A    between atoms: C_6  and  N_7
REMARK    4  A    between atoms: C_13  and  C_14
REMARK    5  A    between atoms: N_16  and  C_17
REMARK    6  A    between atoms: C_29  and  O_30
REMARK    7  A    between atoms: O_30  and  C_31
REMARK                            x       y       z     vdW  Elec       q    Type
REMARK                         _______ _______ _______ _____ _____    ______ ____
ROOT
ATOM      1  N   UNL     1       2.022   7.655  19.884  0.00  0.00    +0.000 N 
ATOM      2  C   UNL     1       2.201   8.575  18.743  0.00  0.00    +0.000 C 
ATOM      3  C   UNL     1       0.885   9.346  18.472  0.00  0.00    +0.000 C 
ATOM      4  N   UNL     1       0.444   9.996  19.713  0.00  0.00    +0.000 N 
ATOM      5  C   UNL     1       0.074  11.315  19.711  0.00  0.00    +0.000 A 
ATOM      6  C   UNL     1       0.216  12.091  20.835  0.00  0.00    +0.000 A 
ATOM      7  C   UNL     1      -0.088  13.430  20.713  0.00  0.00    +0.000 A 
ATOM      8  N   UNL     1      -0.559  14.007  19.583  0.00  0.00    +0.000 NA
ATOM      9  C   UNL     1      -0.677  13.164  18.555  0.00  0.00    +0.000 A 
ATOM     10  N   UNL     1      -0.363  11.860  18.560  0.00  0.00    +0.000 NA
ATOM     11  C   UNL     1       0.240   9.084  20.847  0.00  0.00    +0.000 C 
ATOM     12  C   UNL     1       1.543   8.303  21.124  0.00  0.00    +0.000 C 
ENDROOT
BRANCH   1  16
ATOM     13  C   UNL     1       3.273   3.621  19.705  0.00  0.00    +0.000 A 
ATOM     14  C   UNL     1       2.145   3.990  20.445  0.00  0.00    +0.000 A 
ATOM     15  C   UNL     1       1.725   5.323  20.498  0.00  0.00    +0.000 A 
ATOM     16  C   UNL     1       2.429   6.340  19.852  0.00  0.00    +0.000 A 
ATOM     17  C   UNL     1       3.606   5.956  19.191  0.00  0.00    +0.000 A 
ATOM     18  C   UNL     1       4.046   4.623  19.113  0.00  0.00    +0.000 A 
BRANCH  13  20
ATOM     19  C   UNL     1       3.159   1.675  18.384  0.00  0.00    +0.000 C 
ATOM     20  O   UNL     1       3.631   2.307  19.573  0.00  0.00    +0.000 OA
ENDBRANCH  13  20
BRANCH  18  21
ATOM     21  O   UNL     1       5.215   4.510  18.407  0.00  0.00    +0.000 OA
ATOM     22  C   UNL     1       5.163   4.495  16.991  0.00  0.00    +0.000 C 
ENDBRANCH  18  21
ENDBRANCH   1  16
BRANCH   7  23
ATOM     23  C   UNL     1       0.172  14.337  21.878  0.00  0.00    +0.000 C 
ATOM     24  O   UNL     1       1.310  14.543  22.288  0.00  0.00    +0.000 OA
ATOM     25  N   UNL     1      -0.958  14.922  22.409  0.00  0.00    +0.000 N 
ATOM     26  H   UNL     1      -1.844  14.583  22.041  0.00  0.00    +0.000 HD
BRANCH  25  27
ATOM     27  C   UNL     1      -0.928  15.803  23.566  0.00  0.00    +0.000 C 
ATOM     28  C   UNL     1      -1.818  17.031  23.342  0.00  0.00    +0.000 C 
ATOM     29  C   UNL     1      -3.306  16.683  23.348  0.00  0.00    +0.000 C 
ATOM     30  C   UNL     1      -3.704  15.936  24.618  0.00  0.00    +0.000 C 
ATOM     31  C   UNL     1      -2.824  14.714  24.869  0.00  0.00    +0.000 C 
ATOM     32  C   UNL     1      -1.336  15.062  24.845  0.00  0.00    +0.000 C 
ENDBRANCH  25  27
ENDBRANCH   7  23
TORSDOF 5
ENDMDL
MODEL 7
REMARK VINA RESULT:      -7.2      1.500      1.800
REMARK  Name = 
REMARK  7 active torsions:
REMARK  status: ('A' for Active; 'I' for Inactive)
REMARK    1  A    between atoms: C_1  and  O_2
REMARK    2  A    between atoms: O_2  and  C_3
REMARK    3  A    between atoms: C_6  and  N_7
REMARK    4  A    between atoms: C_13  and  C_14
REMARK    5  A    between atoms: N_16  and  C_17
REMARK    6  A    between atoms: C_29  and  O_30
REMARK    7  A    between atoms: O_30  and  C_31
REMARK                            x       y       z     vdW  Elec       q    Type
REMARK                         _______ _______ _______ _____ _____    ______ ____
ROOT
ATOM      1  N   UNL     1       2.157   7.793  19.075  0.00  0.00    +0.000 N 
ATOM      2  C   UNL     1       1.583   7.615  20.423  0.00  0.00    +0.000 C 
ATOM      3  C   UNL     1       1.556   8.971  21.171  0.00  0.00    +0.000 C 
ATOM      4  N   UNL     1       0.863   9.965  20.343  0.00  0.00    +0.000 N 
ATOM      5  C   UNL     1      -0.116  10.757  20.883  0.00  0.00    +0.000 A 
ATOM      6  C   UNL     1      -1.140  11.244  20.108  0.00  0.00    +0.000 A 
ATOM      7  C   UNL     1      -2.132  11.949  20.755  0.00  0.00    +0.000 A 
ATOM      8  N   UNL     1      -2.132  12.228  22.079  0.00  0.00    +0.000 NA
ATOM      9  C   UNL     1      -1.087  11.725  22.737  0.00  0.00    +0.000 A 
ATOM     10  N   UNL     1      -0.098  10.989  22.209  0.00  0.00    +0.000 NA
ATOM     11  C   UNL     1       1.442  10.166  19.007  0.00  0.00    +0.000 C 
ATOM     12  C   UNL     1       1.482   8.820  18.252  0.00  0.00    +0.000 C 
ENDROOT
BRANCH   1  16
ATOM     13  C   UNL     1       5.162   5.229  17.569  0.00  0.00    +0.000 A 
ATOM     14  C   UNL     1       4.881   6.450  16.945  0.00  0.00    +0.000 A 
ATOM     15  C   UNL     1       3.893   7.303  17.447  0.00  0.00    +0.000 A 
ATOM     16  C   UNL     1       3.125   6.959  18.560  0.00  0.00    +0.000 A 
ATOM     17  C   UNL     1       3.366   5.692  19.113  0.00  0.00    +0.000 A 
ATOM     18  C   UNL     1       4.359   4.819  18.635  0.00  0.00    +0.000 A 
BRANCH  13  20
ATOM     19  C   UNL     1       6.012   3.880  15.836  0.00  0.00    +0.000 C 
ATOM     20  O   UNL     1       6.191   4.438  17.138  0.00  0.00    +0.000 OA
ENDBRANCH  13  20
BRANCH  18  21
ATOM     21  O   UNL     1       4.399   3.650  19.349  0.00  0.00    +0.000 OA
ATOM     22  C   UNL     1       3.750   2.504  18.825  0.00  0.00    +0.000 C 
ENDBRANCH  18  21
ENDBRANCH   1  16
BRANCH   7  23
ATOM     23  C   UNL     1      -3.331  12.389  19.970  0.00  0.00    +0.000 C 
ATOM     24  O   UNL     1      -3.316  12.425  18.744  0.00  0.00    +0.000 OA
ATOM     25  N   UNL     1      -4.429  12.714  20.739  0.00  0.00    +0.000 N 
ATOM     26  H   UNL     1      -4.271  12.741  21.744  0.00  0.00    +0.000 HD
BRANCH  25  27
ATOM     27  C   UNL     1      -5.678  13.201  20.175  0.00  0.00    +0.000 C 
ATOM     28  C   UNL     1      -6.473  12.057  19.535  0.00  0.00    +0.000 C 
ATOM     29  C   UNL     1      -7.042  11.090  20.573  0.00  0.00    +0.000 C 
ATOM     30  C   UNL     1      -7.872  11.819  21.626  0.00  0.00    +0.000 C 
ATOM     31  C   UNL     1      -7.105  12.971  22.270  0.00  0.00    +0.000 C 
ATOM     32  C   UNL     1      -6.522  13.927  21.230  0.00  0.00    +0.000 C 
ENDBRANCH  25  27
ENDBRANCH   7  23
TORSDOF 5
ENDMDL
MODEL 8
REMARK VINA RESULT:      -7.2      1.389      1.630
REMARK  Name = 
REMARK  7 active torsions:
REMARK  status: ('A' for Active; 'I' for Inactive)
REMARK    1  A    between atoms: C_1  and  O_2
REMARK    2  A    between atoms: O_2  and  C_3
REMARK    3  A    between atoms: C_6  and  N_7
REMARK    4  A    between atoms: C_13  and  C_14
REMARK    5  A    between atoms: N_16  and  C_17
REMARK    6  A    between atoms: C_29  and  O_30
REMARK    7  A    between atoms: O_30  and  C_31
REMARK                            x       y       z     vdW  Elec       q    Type
REMARK                         _______ _______ _______ _____ _____    ______ ____
ROOT
ATOM      1  N   UNL     1       2.002   7.688  18.749  0.00  0.00    +0.000 N 
ATOM      2  C   UNL     1       1.339   7.358  20.026  0.00  0.00    +0.000 C 
ATOM      3  C   UNL     1       1.452   8.553  21.006  0.00  0.00    +0.000 C 
ATOM      4  N   UNL     1       0.941   9.763  20.351  0.00  0.00    +0.000 N 
ATOM      5  C   UNL     1       0.048  10.577  20.998  0.00  0.00    +0.000 A 
ATOM      6  C   UNL     1      -0.860  11.330  20.295  0.00  0.00    +0.000 A 
ATOM      7  C   UNL     1      -1.784  12.042  21.030  0.00  0.00    +0.000 A 
ATOM      8  N   UNL     1      -1.817  12.083  22.382  0.00  0.00    +0.000 NA
ATOM      9  C   UNL     1      -0.883  11.331  22.968  0.00  0.00    +0.000 A 
ATOM     10  N   UNL     1       0.027  10.569  22.344  0.00  0.00    +0.000 NA
ATOM     11  C   UNL     1       1.612  10.113  19.091  0.00  0.00    +0.000 C 
ATOM     12  C   UNL     1       1.513   8.927  18.107  0.00  0.00    +0.000 C 
ENDROOT
BRANCH   1  16
ATOM     13  C   UNL     1       4.696   5.013  16.888  0.00  0.00    +0.000 A 
ATOM     14  C   UNL     1       4.904   6.396  16.833  0.00  0.00    +0.000 A 
ATOM     15  C   UNL     1       4.019   7.282  17.455  0.00  0.00    +0.000 A 
ATOM     16  C   UNL     1       2.878   6.830  18.120  0.00  0.00    +0.000 A 
ATOM     17  C   UNL     1       2.645   5.447  18.085  0.00  0.00    +0.000 A 
ATOM     18  C   UNL     1       3.523   4.533  17.476  0.00  0.00    +0.000 A 
BRANCH  13  20
ATOM     19  C   UNL     1       6.948   4.636  16.313  0.00  0.00    +0.000 C 
ATOM     20  O   UNL     1       5.610   4.142  16.363  0.00  0.00    +0.000 OA
ENDBRANCH  13  20
BRANCH  18  21
ATOM     21  O   UNL     1       3.075   3.243  17.584  0.00  0.00    +0.000 OA
ATOM     22  C   UNL     1       1.824   3.001  18.204  0.00  0.00    +0.000 C 
ENDBRANCH  18  21
ENDBRANCH   1  16
BRANCH   7  23
ATOM     23  C   UNL     1      -2.870  12.776  20.303  0.00  0.00    +0.000 C 
ATOM     24  O   UNL     1      -2.860  13.999  20.201  0.00  0.00    +0.000 OA
ATOM     25  N   UNL     1      -3.839  11.963  19.753  0.00  0.00    +0.000 N 
ATOM     26  H   UNL     1      -3.782  10.978  20.003  0.00  0.00    +0.000 HD
BRANCH  25  27
ATOM     27  C   UNL     1      -4.999  12.478  19.042  0.00  0.00    +0.000 C 
ATOM     28  C   UNL     1      -5.616  11.398  18.147  0.00  0.00    +0.000 C 
ATOM     29  C   UNL     1      -6.302  10.294  18.951  0.00  0.00    +0.000 C 
ATOM     30  C   UNL     1      -7.333  10.864  19.922  0.00  0.00    +0.000 C 
ATOM     31  C   UNL     1      -6.744  11.951  20.818  0.00  0.00    +0.000 C 
ATOM     32  C   UNL     1      -6.043  13.044  20.011  0.00  0.00    +0.000 C 
ENDBRANCH  25  27
ENDBRANCH   7  23
TORSDOF 5
ENDMDL
MODEL 9
REMARK VINA RESULT:      -7.2      1.782      2.385
REMARK  Name = 
REMARK  7 active torsions:
REMARK  status: ('A' for Active; 'I' for Inactive)
REMARK    1  A    between atoms: C_1  and  O_2
REMARK    2  A    between atoms: O_2  and  C_3
REMARK    3  A    between atoms: C_6  and  N_7
REMARK    4  A    between atoms: C_13  and  C_14
REMARK    5  A    between atoms: N_16  and  C_17
REMARK    6  A    between atoms: C_29  and  O_30
REMARK    7  A    between atoms: O_30  and  C_31
REMARK                            x       y       z     vdW  Elec       q    Type
REMARK                         _______ _______ _______ _____ _____    ______ ____
ROOT
ATOM      1  N   UNL     1       1.400   8.642  19.610  0.00  0.00    +0.000 N 
ATOM      2  C   UNL     1       1.149   8.655  21.064  0.00  0.00    +0.000 C 
ATOM      3  C   UNL     1       1.158  10.113  21.590  0.00  0.00    +0.000 C 
ATOM      4  N   UNL     1       0.213  10.914  20.803  0.00  0.00    +0.000 N 
ATOM      5  C   UNL     1      -0.696  11.727  21.428  0.00  0.00    +0.000 A 
ATOM      6  C   UNL     1      -1.903  12.019  20.842  0.00  0.00    +0.000 A 
ATOM      7  C   UNL     1      -2.795  12.763  21.586  0.00  0.00    +0.000 A 
ATOM      8  N   UNL     1      -2.536  13.257  22.819  0.00  0.00    +0.000 NA
ATOM      9  C   UNL     1      -1.331  12.931  23.289  0.00  0.00    +0.000 A 
ATOM     10  N   UNL     1      -0.415  12.176  22.665  0.00  0.00    +0.000 NA
ATOM     11  C   UNL     1       0.470  10.926  19.356  0.00  0.00    +0.000 C 
ATOM     12  C   UNL     1       0.472   9.478  18.819  0.00  0.00    +0.000 C 
ENDROOT
BRANCH   1  16
ATOM     13  C   UNL     1       4.228   6.027  17.865  0.00  0.00    +0.000 A 
ATOM     14  C   UNL     1       3.915   7.251  17.264  0.00  0.00    +0.000 A 
ATOM     15  C   UNL     1       2.986   8.121  17.844  0.00  0.00    +0.000 A 
ATOM     16  C   UNL     1       2.308   7.791  19.019  0.00  0.00    +0.000 A 
ATOM     17  C   UNL     1       2.574   6.521  19.553  0.00  0.00    +0.000 A 
ATOM     18  C   UNL     1       3.510   5.631  18.996  0.00  0.00    +0.000 A 
BRANCH  13  20
ATOM     19  C   UNL     1       6.124   5.872  16.477  0.00  0.00    +0.000 C 
ATOM     20  O   UNL     1       5.204   5.219  17.351  0.00  0.00    +0.000 OA
ENDBRANCH  13  20
BRANCH  18  21
ATOM     21  O   UNL     1       3.591   4.463  19.707  0.00  0.00    +0.000 OA
ATOM     22  C   UNL     1       2.855   3.337  19.262  0.00  0.00    +0.000 C 
ENDBRANCH  18  21
ENDBRANCH   1  16
BRANCH   7  23
ATOM     23  C   UNL     1      -4.170  12.998  21.037  0.00  0.00    +0.000 C 
ATOM     24  O   UNL     1      -4.379  13.039  19.829  0.00  0.00    +0.000 OA
ATOM     25  N   UNL     1      -5.152  13.131  21.996  0.00  0.00    +0.000 N 
ATOM     26  H   UNL     1      -4.824  13.181  22.958  0.00  0.00    +0.000 HD
BRANCH  25  27
ATOM     27  C   UNL     1      -6.544  13.402  21.675  0.00  0.00    +0.000 C 
ATOM     28  C   UNL     1      -7.471  12.390  22.358  0.00  0.00    +0.000 C 
ATOM     29  C   UNL     1      -7.534  12.586  23.873  0.00  0.00    +0.000 C 
ATOM     30  C   UNL     1      -7.913  14.018  24.240  0.00  0.00    +0.000 C 
ATOM     31  C   UNL     1      -7.010  15.046  23.562  0.00  0.00    +0.000 C 
ATOM     32  C   UNL     1      -6.935  14.837  22.050  0.00  0.00    +0.000 C 
ENDBRANCH  25  27
ENDBRANCH   7  23
TORSDOF 5
ENDMDL
