MODEL 1
REMARK VINA RESULT:      -7.4      0.000      0.000
REMARK  Name = 
REMARK  4 active torsions:
REMARK  status: ('A' for Active; 'I' for Inactive)
REMARK    1  A    between atoms: C_1  and  O_2
REMARK    2  A    between atoms: O_2  and  C_3
REMARK    3  A    between atoms: C_10  and  C_11
REMARK    4  A    between atoms: C_14  and  N_15
REMARK                            x       y       z     vdW  Elec       q    Type
REMARK                         _______ _______ _______ _____ _____    ______ ____
ROOT
ATOM      1  C   UNL     1       3.491   4.127  18.131  0.00  0.00    +0.000 A 
ATOM      2  C   UNL     1       4.380   3.715  17.128  0.00  0.00    +0.000 A 
ATOM      3  C   UNL     1       5.009   4.642  16.293  0.00  0.00    +0.000 A 
ATOM      4 BR   UNL     1       6.203   4.025  14.958  0.00  0.00    +0.000 Br
ATOM      5  C   UNL     1       4.776   6.016  16.411  0.00  0.00    +0.000 A 
ATOM      6  C   UNL     1       3.875   6.452  17.398  0.00  0.00    +0.000 A 
ATOM      7  C   UNL     1       3.376   7.713  17.810  0.00  0.00    +0.000 A 
ATOM      8  C   UNL     1       2.495   7.482  18.848  0.00  0.00    +0.000 A 
ATOM      9  O   UNL     1       2.433   6.139  19.099  0.00  0.00    +0.000 OA
ATOM     10  C   UNL     1       3.263   5.507  18.216  0.00  0.00    +0.000 A 
ENDROOT
BRANCH   8  11
ATOM     11  C   UNL     1       1.653   8.343  19.677  0.00  0.00    +0.000 A 
ATOM     12  C   UNL     1       1.382   8.000  21.013  0.00  0.00    +0.000 A 
ATOM     13  C   UNL     1       0.586   8.820  21.824  0.00  0.00    +0.000 A 
ATOM     14  C   UNL     1       0.050  10.000  21.295  0.00  0.00    +0.000 A 
ATOM     15  C   UNL     1       0.304  10.359  19.967  0.00  0.00    +0.000 A 
ATOM     16  C   UNL     1       1.102   9.530  19.168  0.00  0.00    +0.000 A 
BRANCH  14  17
ATOM     17  N   UNL     1      -0.779  10.866  22.142  0.00  0.00    +0.000 N 
ATOM     18  O   UNL     1      -0.737  10.685  23.367  0.00  0.00    +0.000 OA
ATOM     19  O   UNL     1      -1.473  11.725  21.582  0.00  0.00    +0.000 OA
ENDBRANCH  14  17
ENDBRANCH   8  11
BRANCH   1  21
ATOM     20  C   UNL     1       1.656   2.666  18.432  0.00  0.00    +0.000 C 
ATOM     21  O   UNL     1       2.817   3.287  18.976  0.00  0.00    +0.000 OA
ENDBRANCH   1  21
TORSDOF 3
ENDMDL
MODEL 2
REMARK VINA RESULT:      -7.4      0.139      1.262
REMARK  Name = 
REMARK  4 active torsions:
REMARK  status: ('A' for Active; 'I' for Inactive)
REMARK    1  A    between atoms: C_1  and  O_2
REMARK    2  A    between atoms: O_2  and  C_3
REMARK    3  A    between atoms: C_10  and  C_11
REMARK    4  A    between atoms: C_14  and  N_15
REMARK                            x       y       z     vdW  Elec       q    Type
REMARK                         _______ _______ _______ _____ _____    ______ ____
ROOT
ATOM      1  C   UNL     1       3.530   4.114  18.141  0.00  0.00    +0.000 A 
ATOM      2  C   UNL     1       4.400   3.703  17.121  0.00  0.00    +0.000 A 
ATOM      3  C   UNL     1       5.003   4.629  16.266  0.00  0.00    +0.000 A 
ATOM      4 BR   UNL     1       6.173   4.013  14.910  0.00  0.00    +0.000 Br
ATOM      5  C   UNL     1       4.763   6.002  16.381  0.00  0.00    +0.000 A 
ATOM      6  C   UNL     1       3.880   6.437  17.385  0.00  0.00    +0.000 A 
ATOM      7  C   UNL     1       3.380   7.698  17.799  0.00  0.00    +0.000 A 
ATOM      8  C   UNL     1       2.523   7.466  18.858  0.00  0.00    +0.000 A 
ATOM      9  O   UNL     1       2.477   6.124  19.118  0.00  0.00    +0.000 OA
ATOM     10  C   UNL     1       3.293   5.493  18.221  0.00  0.00    +0.000 A 
ENDROOT
BRANCH   8  11
ATOM     11  C   UNL     1       1.692   8.326  19.700  0.00  0.00    +0.000 A 
ATOM     12  C   UNL     1       1.093   9.479  19.165  0.00  0.00    +0.000 A 
ATOM     13  C   UNL     1       0.286  10.309  19.955  0.00  0.00    +0.000 A 
ATOM     14  C   UNL     1       0.073   9.983  21.300  0.00  0.00    +0.000 A 
ATOM     15  C   UNL     1       0.662   8.842  21.854  0.00  0.00    +0.000 A 
ATOM     16  C   UNL     1       1.467   8.022  21.052  0.00  0.00    +0.000 A 
BRANCH  14  17
ATOM     17  N   UNL     1      -0.778  10.844  22.131  0.00  0.00    +0.000 N 
ATOM     18  O   UNL     1      -1.477  11.690  21.557  0.00  0.00    +0.000 OA
ATOM     19  O   UNL     1      -0.743  10.676  23.358  0.00  0.00    +0.000 OA
ENDBRANCH  14  17
ENDBRANCH   8  11
BRANCH   1  21
ATOM     20  C   UNL     1       2.093   2.254  18.400  0.00  0.00    +0.000 C 
ATOM     21  O   UNL     1       2.881   3.275  19.005  0.00  0.00    +0.000 OA
ENDBRANCH   1  21
TORSDOF 3
ENDMDL
MODEL 3
REMARK VINA RESULT:      -7.3      1.760      2.451
REMARK  Name = 
REMARK  4 active torsions:
REMARK  status: ('A' for Active; 'I' for Inactive)
REMARK    1  A    between atoms: C_1  and  O_2
REMARK    2  A    between atoms: O_2  and  C_3
REMARK    3  A    between atoms: C_10  and  C_11
REMARK    4  A    between atoms: C_14  and  N_15
REMARK                            x       y       z     vdW  Elec       q    Type
REMARK                         _______ _______ _______ _____ _____    ______ ____
ROOT
ATOM      1  C   UNL     1       2.618   4.831  20.308  0.00  0.00    +0.000 A 
ATOM      2  C   UNL     1       3.363   4.229  19.284  0.00  0.00    +0.000 A 
ATOM      3  C   UNL     1       3.721   4.939  18.135  0.00  0.00    +0.000 A 
ATOM      4 BR   UNL     1       4.731   4.072  16.788  0.00  0.00    +0.000 Br
ATOM      5  C   UNL     1       3.347   6.273  17.949  0.00  0.00    +0.000 A 
ATOM      6  C   UNL     1       2.584   6.893  18.954  0.00  0.00    +0.000 A 
ATOM      7  C   UNL     1       2.015   8.180  19.126  0.00  0.00    +0.000 A 
ATOM      8  C   UNL     1       1.361   8.174  20.344  0.00  0.00    +0.000 A 
ATOM      9  O   UNL     1       1.507   6.948  20.930  0.00  0.00    +0.000 OA
ATOM     10  C   UNL     1       2.243   6.163  20.087  0.00  0.00    +0.000 A 
ENDROOT
BRANCH   8  11
ATOM     11  C   UNL     1       0.577   9.165  21.081  0.00  0.00    +0.000 A 
ATOM     12  C   UNL     1       0.081  10.306  20.429  0.00  0.00    +0.000 A 
ATOM     13  C   UNL     1      -0.681  11.260  21.118  0.00  0.00    +0.000 A 
ATOM     14  C   UNL     1      -0.952  11.072  22.479  0.00  0.00    +0.000 A 
ATOM     15  C   UNL     1      -0.465   9.945  23.148  0.00  0.00    +0.000 A 
ATOM     16  C   UNL     1       0.295   9.000  22.447  0.00  0.00    +0.000 A 
BRANCH  14  17
ATOM     17  N   UNL     1      -1.756  12.064  23.204  0.00  0.00    +0.000 N 
ATOM     18  O   UNL     1      -2.941  11.788  23.435  0.00  0.00    +0.000 OA
ATOM     19  O   UNL     1      -1.201  13.119  23.539  0.00  0.00    +0.000 OA
ENDBRANCH  14  17
ENDBRANCH   8  11
BRANCH   1  21
ATOM     20  C   UNL     1       2.170   2.781  21.398  0.00  0.00    +0.000 C 
ATOM     21  O   UNL     1       2.208   4.204  21.453  0.00  0.00    +0.000 OA
ENDBRANCH   1  21
TORSDOF 3
ENDMDL
MODEL 4
REMARK VINA RESULT:      -7.3      1.745      2.174
REMARK  Name = 
REMARK  4 active torsions:
REMARK  status: ('A' for Active; 'I' for Inactive)
REMARK    1  A    between atoms: C_1  and  O_2
REMARK    2  A    between atoms: O_2  and  C_3
REMARK    3  A    between atoms: C_10  and  C_11
REMARK    4  A    between atoms: C_14  and  N_15
REMARK                            x       y       z     vdW  Elec       q    Type
REMARK                         _______ _______ _______ _____ _____    ______ ____
ROOT
ATOM      1  C   UNL     1       2.630   4.836  20.273  0.00  0.00    +0.000 A 
ATOM      2  C   UNL     1       3.360   4.215  19.250  0.00  0.00    +0.000 A 
ATOM      3  C   UNL     1       3.712   4.907  18.087  0.00  0.00    +0.000 A 
ATOM      4 BR   UNL     1       4.703   4.014  16.742  0.00  0.00    +0.000 Br
ATOM      5  C   UNL     1       3.345   6.241  17.887  0.00  0.00    +0.000 A 
ATOM      6  C   UNL     1       2.597   6.880  18.890  0.00  0.00    +0.000 A 
ATOM      7  C   UNL     1       2.039   8.174  19.051  0.00  0.00    +0.000 A 
ATOM      8  C   UNL     1       1.397   8.189  20.274  0.00  0.00    +0.000 A 
ATOM      9  O   UNL     1       1.540   6.970  20.877  0.00  0.00    +0.000 OA
ATOM     10  C   UNL     1       2.262   6.168  20.037  0.00  0.00    +0.000 A 
ENDROOT
BRANCH   8  11
ATOM     11  C   UNL     1       0.627   9.195  21.005  0.00  0.00    +0.000 A 
ATOM     12  C   UNL     1       0.274   8.982  22.349  0.00  0.00    +0.000 A 
ATOM     13  C   UNL     1      -0.455   9.940  23.066  0.00  0.00    +0.000 A 
ATOM     14  C   UNL     1      -0.837  11.130  22.434  0.00  0.00    +0.000 A 
ATOM     15  C   UNL     1      -0.498  11.362  21.098  0.00  0.00    +0.000 A 
ATOM     16  C   UNL     1       0.230  10.395  20.393  0.00  0.00    +0.000 A 
BRANCH  14  17
ATOM     17  N   UNL     1      -1.593  12.140  23.184  0.00  0.00    +0.000 N 
ATOM     18  O   UNL     1      -2.758  11.867  23.507  0.00  0.00    +0.000 OA
ATOM     19  O   UNL     1      -1.023  13.208  23.447  0.00  0.00    +0.000 OA
ENDBRANCH  14  17
ENDBRANCH   8  11
BRANCH   1  21
ATOM     20  C   UNL     1       2.312   2.806  21.442  0.00  0.00    +0.000 C 
ATOM     21  O   UNL     1       2.227   4.228  21.430  0.00  0.00    +0.000 OA
ENDBRANCH   1  21
TORSDOF 3
ENDMDL
MODEL 5
REMARK VINA RESULT:      -7.3      3.826      7.375
REMARK  Name = 
REMARK  4 active torsions:
REMARK  status: ('A' for Active; 'I' for Inactive)
REMARK    1  A    between atoms: C_1  and  O_2
REMARK    2  A    between atoms: O_2  and  C_3
REMARK    3  A    between atoms: C_10  and  C_11
REMARK    4  A    between atoms: C_14  and  N_15
REMARK                            x       y       z     vdW  Elec       q    Type
REMARK                         _______ _______ _______ _____ _____    ______ ____
ROOT
ATOM      1  C   UNL     1       0.791  10.299  21.162  0.00  0.00    +0.000 A 
ATOM      2  C   UNL     1       0.395  11.543  20.648  0.00  0.00    +0.000 A 
ATOM      3  C   UNL     1       0.454  11.812  19.278  0.00  0.00    +0.000 A 
ATOM      4 BR   UNL     1      -0.098  13.510  18.644  0.00  0.00    +0.000 Br
ATOM      5  C   UNL     1       0.915  10.863  18.361  0.00  0.00    +0.000 A 
ATOM      6  C   UNL     1       1.333   9.615  18.854  0.00  0.00    +0.000 A 
ATOM      7  C   UNL     1       1.862   8.436  18.270  0.00  0.00    +0.000 A 
ATOM      8  C   UNL     1       2.087   7.541  19.299  0.00  0.00    +0.000 A 
ATOM      9  O   UNL     1       1.716   8.111  20.485  0.00  0.00    +0.000 OA
ATOM     10  C   UNL     1       1.265   9.374  20.222  0.00  0.00    +0.000 A 
ENDROOT
BRANCH   8  11
ATOM     11  C   UNL     1       2.626   6.182  19.364  0.00  0.00    +0.000 A 
ATOM     12  C   UNL     1       2.178   5.287  20.350  0.00  0.00    +0.000 A 
ATOM     13  C   UNL     1       2.676   3.979  20.420  0.00  0.00    +0.000 A 
ATOM     14  C   UNL     1       3.636   3.558  19.492  0.00  0.00    +0.000 A 
ATOM     15  C   UNL     1       4.099   4.433  18.505  0.00  0.00    +0.000 A 
ATOM     16  C   UNL     1       3.592   5.738  18.447  0.00  0.00    +0.000 A 
BRANCH  14  17
ATOM     17  N   UNL     1       4.157   2.186  19.557  0.00  0.00    +0.000 N 
ATOM     18  O   UNL     1       4.981   1.923  20.443  0.00  0.00    +0.000 OA
ATOM     19  O   UNL     1       3.741   1.374  18.719  0.00  0.00    +0.000 OA
ENDBRANCH  14  17
ENDBRANCH   8  11
BRANCH   1  21
ATOM     20  C   UNL     1      -0.499   9.854  23.093  0.00  0.00    +0.000 C 
ATOM     21  O   UNL     1       0.786   9.961  22.487  0.00  0.00    +0.000 OA
ENDBRANCH   1  21
TORSDOF 3
ENDMDL
MODEL 6
REMARK VINA RESULT:      -7.2      3.872      7.388
REMARK  Name = 
REMARK  4 active torsions:
REMARK  status: ('A' for Active; 'I' for Inactive)
REMARK    1  A    between atoms: C_1  and  O_2
REMARK    2  A    between atoms: O_2  and  C_3
REMARK    3  A    between atoms: C_10  and  C_11
REMARK    4  A    between atoms: C_14  and  N_15
REMARK                            x       y       z     vdW  Elec       q    Type
REMARK                         _______ _______ _______ _____ _____    ______ ____
ROOT
ATOM      1  C   UNL     1       0.886  10.248  21.197  0.00  0.00    +0.000 A 
ATOM      2  C   UNL     1       0.502  11.487  20.665  0.00  0.00    +0.000 A 
ATOM      3  C   UNL     1       0.559  11.733  19.291  0.00  0.00    +0.000 A 
ATOM      4 BR   UNL     1       0.024  13.427  18.630  0.00  0.00    +0.000 Br
ATOM      5  C   UNL     1       1.007  10.765  18.387  0.00  0.00    +0.000 A 
ATOM      6  C   UNL     1       1.414   9.521  18.899  0.00  0.00    +0.000 A 
ATOM      7  C   UNL     1       1.929   8.327  18.334  0.00  0.00    +0.000 A 
ATOM      8  C   UNL     1       2.147   7.446  19.376  0.00  0.00    +0.000 A 
ATOM      9  O   UNL     1       1.785   8.039  20.553  0.00  0.00    +0.000 OA
ATOM     10  C   UNL     1       1.347   9.302  20.271  0.00  0.00    +0.000 A 
ENDROOT
BRANCH   8  11
ATOM     11  C   UNL     1       2.672   6.083  19.461  0.00  0.00    +0.000 A 
ATOM     12  C   UNL     1       3.959   5.786  18.983  0.00  0.00    +0.000 A 
ATOM     13  C   UNL     1       4.481   4.488  19.068  0.00  0.00    +0.000 A 
ATOM     14  C   UNL     1       3.706   3.470  19.637  0.00  0.00    +0.000 A 
ATOM     15  C   UNL     1       2.421   3.743  20.116  0.00  0.00    +0.000 A 
ATOM     16  C   UNL     1       1.913   5.045  20.025  0.00  0.00    +0.000 A 
BRANCH  14  17
ATOM     17  N   UNL     1       4.251   2.110  19.734  0.00  0.00    +0.000 N 
ATOM     18  O   UNL     1       5.066   1.879  20.638  0.00  0.00    +0.000 OA
ATOM     19  O   UNL     1       3.864   1.275  18.905  0.00  0.00    +0.000 OA
ENDBRANCH  14  17
ENDBRANCH   8  11
BRANCH   1  21
ATOM     20  C   UNL     1      -0.366   9.484  23.053  0.00  0.00    +0.000 C 
ATOM     21  O   UNL     1       0.882   9.930  22.528  0.00  0.00    +0.000 OA
ENDBRANCH   1  21
TORSDOF 3
ENDMDL
MODEL 7
REMARK VINA RESULT:      -7.0      0.961      1.433
REMARK  Name = 
REMARK  4 active torsions:
REMARK  status: ('A' for Active; 'I' for Inactive)
REMARK    1  A    between atoms: C_1  and  O_2
REMARK    2  A    between atoms: O_2  and  C_3
REMARK    3  A    between atoms: C_10  and  C_11
REMARK    4  A    between atoms: C_14  and  N_15
REMARK                            x       y       z     vdW  Elec       q    Type
REMARK                         _______ _______ _______ _____ _____    ______ ____
ROOT
ATOM      1  C   UNL     1       3.623   4.612  19.200  0.00  0.00    +0.000 A 
ATOM      2  C   UNL     1       4.432   4.080  18.186  0.00  0.00    +0.000 A 
ATOM      3  C   UNL     1       4.779   4.837  17.063  0.00  0.00    +0.000 A 
ATOM      4 BR   UNL     1       5.879   4.064  15.729  0.00  0.00    +0.000 Br
ATOM      5  C   UNL     1       4.329   6.150  16.894  0.00  0.00    +0.000 A 
ATOM      6  C   UNL     1       3.502   6.699  17.889  0.00  0.00    +0.000 A 
ATOM      7  C   UNL     1       2.850   7.945  18.072  0.00  0.00    +0.000 A 
ATOM      8  C   UNL     1       2.163   7.872  19.268  0.00  0.00    +0.000 A 
ATOM      9  O   UNL     1       2.367   6.643  19.833  0.00  0.00    +0.000 OA
ATOM     10  C   UNL     1       3.173   5.923  18.996  0.00  0.00    +0.000 A 
ENDROOT
BRANCH   8  11
ATOM     11  C   UNL     1       1.299   8.795  20.002  0.00  0.00    +0.000 A 
ATOM     12  C   UNL     1       0.909  10.016  19.424  0.00  0.00    +0.000 A 
ATOM     13  C   UNL     1       0.073  10.907  20.110  0.00  0.00    +0.000 A 
ATOM     14  C   UNL     1      -0.381  10.577  21.392  0.00  0.00    +0.000 A 
ATOM     15  C   UNL     1      -0.003   9.370  21.988  0.00  0.00    +0.000 A 
ATOM     16  C   UNL     1       0.833   8.488  21.291  0.00  0.00    +0.000 A 
BRANCH  14  17
ATOM     17  N   UNL     1      -1.263  11.504  22.112  0.00  0.00    +0.000 N 
ATOM     18  O   UNL     1      -1.065  11.664  23.325  0.00  0.00    +0.000 OA
ATOM     19  O   UNL     1      -2.154  12.070  21.464  0.00  0.00    +0.000 OA
ENDBRANCH  14  17
ENDBRANCH   8  11
BRANCH   1  21
ATOM     20  C   UNL     1       3.039   2.531  20.159  0.00  0.00    +0.000 C 
ATOM     21  O   UNL     1       3.219   3.935  20.318  0.00  0.00    +0.000 OA
ENDBRANCH   1  21
TORSDOF 3
ENDMDL
MODEL 8
REMARK VINA RESULT:      -6.9      4.424      8.054
REMARK  Name = 
REMARK  4 active torsions:
REMARK  status: ('A' for Active; 'I' for Inactive)
REMARK    1  A    between atoms: C_1  and  O_2
REMARK    2  A    between atoms: O_2  and  C_3
REMARK    3  A    between atoms: C_10  and  C_11
REMARK    4  A    between atoms: C_14  and  N_15
REMARK                            x       y       z     vdW  Elec       q    Type
REMARK                         _______ _______ _______ _____ _____    ______ ____
ROOT
ATOM      1  C   UNL     1       1.196   9.921  19.343  0.00  0.00    +0.000 A 
ATOM      2  C   UNL     1       0.443  10.144  20.504  0.00  0.00    +0.000 A 
ATOM      3  C   UNL     1       0.365   9.181  21.514  0.00  0.00    +0.000 A 
ATOM      4 BR   UNL     1      -0.666   9.542  23.061  0.00  0.00    +0.000 Br
ATOM      5  C   UNL     1       1.025   7.952  21.410  0.00  0.00    +0.000 A 
ATOM      6  C   UNL     1       1.772   7.698  20.247  0.00  0.00    +0.000 A 
ATOM      7  C   UNL     1       2.542   6.607  19.772  0.00  0.00    +0.000 A 
ATOM      8  C   UNL     1       3.032   6.965  18.531  0.00  0.00    +0.000 A 
ATOM      9  O   UNL     1       2.604   8.227  18.223  0.00  0.00    +0.000 OA
ATOM     10  C   UNL     1       1.832   8.674  19.258  0.00  0.00    +0.000 A 
ENDROOT
BRANCH   8  11
ATOM     11  C   UNL     1       3.861   6.292  17.532  0.00  0.00    +0.000 A 
ATOM     12  C   UNL     1       4.690   7.038  16.677  0.00  0.00    +0.000 A 
ATOM     13  C   UNL     1       5.499   6.408  15.722  0.00  0.00    +0.000 A 
ATOM     14  C   UNL     1       5.480   5.012  15.617  0.00  0.00    +0.000 A 
ATOM     15  C   UNL     1       4.661   4.250  16.456  0.00  0.00    +0.000 A 
ATOM     16  C   UNL     1       3.858   4.894  17.406  0.00  0.00    +0.000 A 
BRANCH  14  17
ATOM     17  N   UNL     1       6.331   4.346  14.623  0.00  0.00    +0.000 N 
ATOM     18  O   UNL     1       7.544   4.596  14.642  0.00  0.00    +0.000 OA
ATOM     19  O   UNL     1       5.785   3.576  13.822  0.00  0.00    +0.000 OA
ENDBRANCH  14  17
ENDBRANCH   8  11
BRANCH   1  21
ATOM     20  C   UNL     1       1.385  12.176  18.656  0.00  0.00    +0.000 C 
ATOM     21  O   UNL     1       1.308  10.798  18.299  0.00  0.00    +0.000 OA
ENDBRANCH   1  21
TORSDOF 3
ENDMDL
MODEL 9
REMARK VINA RESULT:      -6.9      1.258      1.461
REMARK  Name = 
REMARK  4 active torsions:
REMARK  status: ('A' for Active; 'I' for Inactive)
REMARK    1  A    between atoms: C_1  and  O_2
REMARK    2  A    between atoms: O_2  and  C_3
REMARK    3  A    between atoms: C_10  and  C_11
REMARK    4  A    between atoms: C_14  and  N_15
REMARK                            x       y       z     vdW  Elec       q    Type
REMARK                         _______ _______ _______ _____ _____    ______ ____
ROOT
ATOM      1  C   UNL     1       2.979   4.599  19.350  0.00  0.00    +0.000 A 
ATOM      2  C   UNL     1       3.759   4.074  18.310  0.00  0.00    +0.000 A 
ATOM      3  C   UNL     1       4.218   4.884  17.268  0.00  0.00    +0.000 A 
ATOM      4 BR   UNL     1       5.272   4.117  15.893  0.00  0.00    +0.000 Br
ATOM      5  C   UNL     1       3.914   6.247  17.208  0.00  0.00    +0.000 A 
ATOM      6  C   UNL     1       3.119   6.794  18.230  0.00  0.00    +0.000 A 
ATOM      7  C   UNL     1       2.595   8.081  18.510  0.00  0.00    +0.000 A 
ATOM      8  C   UNL     1       1.868   7.978  19.680  0.00  0.00    +0.000 A 
ATOM      9  O   UNL     1       1.925   6.690  20.136  0.00  0.00    +0.000 OA
ATOM     10  C   UNL     1       2.676   5.964  19.255  0.00  0.00    +0.000 A 
ENDROOT
BRANCH   8  11
ATOM     11  C   UNL     1       1.083   8.922  20.475  0.00  0.00    +0.000 A 
ATOM     12  C   UNL     1       0.540   8.530  21.711  0.00  0.00    +0.000 A 
ATOM     13  C   UNL     1      -0.206   9.425  22.490  0.00  0.00    +0.000 A 
ATOM     14  C   UNL     1      -0.413  10.731  22.029  0.00  0.00    +0.000 A 
ATOM     15  C   UNL     1       0.116  11.142  20.802  0.00  0.00    +0.000 A 
ATOM     16  C   UNL     1       0.859  10.236  20.034  0.00  0.00    +0.000 A 
BRANCH  14  17
ATOM     17  N   UNL     1      -1.187  11.675  22.845  0.00  0.00    +0.000 N 
ATOM     18  O   UNL     1      -0.821  12.859  22.861  0.00  0.00    +0.000 OA
ATOM     19  O   UNL     1      -2.158  11.232  23.472  0.00  0.00    +0.000 OA
ENDBRANCH  14  17
ENDBRANCH   8  11
BRANCH   1  21
ATOM     20  C   UNL     1       3.199   2.698  20.740  0.00  0.00    +0.000 C 
ATOM     21  O   UNL     1       2.472   3.875  20.394  0.00  0.00    +0.000 OA
ENDBRANCH   1  21
TORSDOF 3
ENDMDL
