MODEL 1
REMARK VINA RESULT:      -6.5      0.000      0.000
REMARK  Name = 
REMARK  12 active torsions:
REMARK  status: ('A' for Active; 'I' for Inactive)
REMARK    1  A    between atoms: C_1  and  C_2
REMARK    2  A    between atoms: C_2  and  C_3
REMARK    3  A    between atoms: C_2  and  O_4
REMARK    4  A    between atoms: O_4  and  P_5
REMARK    5  A    between atoms: P_5  and  O_7
REMARK    6  A    between atoms: P_5  and  C_11
REMARK    7  A    between atoms: O_7  and  C_8
REMARK    8  A    between atoms: C_8  and  C_9
REMARK    9  A    between atoms: C_8  and  C_10
REMARK   10  A    between atoms: C_13  and  N_14
REMARK   11  A    between atoms: N_14  and  C_15
REMARK   12  A    between atoms: C_18  and  N_19
REMARK                            x       y       z     vdW  Elec       q    Type
REMARK                         _______ _______ _______ _____ _____    ______ ____
ROOT
ATOM      1  C   UNL     1       3.672   5.186  18.334  0.00  0.00    +0.000 C 
ATOM      2 CL   UNL     1       2.111   4.604  17.779  0.00  0.00    +0.000 Cl
ATOM      3  C   UNL     1       3.690   5.995  19.410  0.00  0.00    +0.000 C 
ENDROOT
BRANCH   1   4
ATOM      4  P   UNL     1       5.185   4.809  17.375  0.00  0.00    +0.000 P 
ATOM      5  O   UNL     1       5.630   3.738  18.392  0.00  0.00    +0.000 OA
BRANCH   4   6
ATOM      6  O   UNL     1       6.614   4.454  16.469  0.00  0.00    +0.000 OA
BRANCH   6   8
ATOM      7  C   UNL     1       5.230   4.239  14.580  0.00  0.00    +0.000 C 
ATOM      8  C   UNL     1       6.683   4.161  15.077  0.00  0.00    +0.000 C 
ATOM      9  C   UNL     1       7.468   5.150  14.205  0.00  0.00    +0.000 C 
ENDBRANCH   6   8
ENDBRANCH   4   6
BRANCH   4  10
ATOM     10  O   UNL     1       5.875   6.253  17.836  0.00  0.00    +0.000 OA
BRANCH  10  11
ATOM     11  C   UNL     1       7.305   6.309  17.883  0.00  0.00    +0.000 C 
ATOM     12  C   UNL     1       7.757   7.705  17.475  0.00  0.00    +0.000 C 
ATOM     13  C   UNL     1       7.768   5.874  19.271  0.00  0.00    +0.000 C 
ENDBRANCH  10  11
ENDBRANCH   4  10
ENDBRANCH   1   4
BRANCH   3  14
ATOM     14  N   UNL     1       2.616   6.404  20.164  0.00  0.00    +0.000 N 
ATOM     15  H   UNL     1       2.371   5.789  20.938  0.00  0.00    +0.000 HD
BRANCH  14  16
ATOM     16  C   UNL     1       1.871   7.586  20.058  0.00  0.00    +0.000 A 
ATOM     17  C   UNL     1       1.908   8.295  18.845  0.00  0.00    +0.000 A 
ATOM     18  C   UNL     1       1.261   9.528  18.702  0.00  0.00    +0.000 A 
ATOM     19  C   UNL     1       0.558  10.061  19.787  0.00  0.00    +0.000 A 
ATOM     20  C   UNL     1       0.506   9.369  21.002  0.00  0.00    +0.000 A 
ATOM     21  C   UNL     1       1.170   8.145  21.133  0.00  0.00    +0.000 A 
BRANCH  19  22
ATOM     22  N   UNL     1      -0.126  11.355  19.654  0.00  0.00    +0.000 N 
ATOM     23  O   UNL     1       0.562  12.352  19.389  0.00  0.00    +0.000 OA
ATOM     24  O   UNL     1      -1.360  11.374  19.814  0.00  0.00    +0.000 OA
ENDBRANCH  19  22
ENDBRANCH  14  16
ENDBRANCH   3  14
TORSDOF 8
ENDMDL
MODEL 2
REMARK VINA RESULT:      -6.4      1.090      1.510
REMARK  Name = 
REMARK  12 active torsions:
REMARK  status: ('A' for Active; 'I' for Inactive)
REMARK    1  A    between atoms: C_1  and  C_2
REMARK    2  A    between atoms: C_2  and  C_3
REMARK    3  A    between atoms: C_2  and  O_4
REMARK    4  A    between atoms: O_4  and  P_5
REMARK    5  A    between atoms: P_5  and  O_7
REMARK    6  A    between atoms: P_5  and  C_11
REMARK    7  A    between atoms: O_7  and  C_8
REMARK    8  A    between atoms: C_8  and  C_9
REMARK    9  A    between atoms: C_8  and  C_10
REMARK   10  A    between atoms: C_13  and  N_14
REMARK   11  A    between atoms: N_14  and  C_15
REMARK   12  A    between atoms: C_18  and  N_19
REMARK                            x       y       z     vdW  Elec       q    Type
REMARK                         _______ _______ _______ _____ _____    ______ ____
ROOT
ATOM      1  C   UNL     1       4.011   5.544  17.514  0.00  0.00    +0.000 C 
ATOM      2 CL   UNL     1       2.961   4.137  17.499  0.00  0.00    +0.000 Cl
ATOM      3  C   UNL     1       3.648   6.587  18.286  0.00  0.00    +0.000 C 
ENDROOT
BRANCH   1   4
ATOM      4  P   UNL     1       5.459   5.619  16.398  0.00  0.00    +0.000 P 
ATOM      5  O   UNL     1       6.076   4.350  17.021  0.00  0.00    +0.000 OA
BRANCH   4   6
ATOM      6  O   UNL     1       6.828   5.690  15.342  0.00  0.00    +0.000 OA
BRANCH   6   8
ATOM      7  C   UNL     1       5.826   4.171  13.851  0.00  0.00    +0.000 C 
ATOM      8  C   UNL     1       7.169   4.743  14.335  0.00  0.00    +0.000 C 
ATOM      9  C   UNL     1       7.856   5.293  13.079  0.00  0.00    +0.000 C 
ENDBRANCH   6   8
ENDBRANCH   4   6
BRANCH   4  10
ATOM     10  O   UNL     1       6.069   6.929  17.224  0.00  0.00    +0.000 OA
BRANCH  10  11
ATOM     11  C   UNL     1       7.468   6.916  17.529  0.00  0.00    +0.000 C 
ATOM     12  C   UNL     1       7.970   8.353  17.600  0.00  0.00    +0.000 C 
ATOM     13  C   UNL     1       7.687   6.106  18.803  0.00  0.00    +0.000 C 
ENDBRANCH  10  11
ENDBRANCH   4  10
ENDBRANCH   1   4
BRANCH   3  14
ATOM     14  N   UNL     1       2.549   6.673  19.106  0.00  0.00    +0.000 N 
ATOM     15  H   UNL     1       2.199   5.783  19.456  0.00  0.00    +0.000 HD
BRANCH  14  16
ATOM     16  C   UNL     1       1.902   7.820  19.586  0.00  0.00    +0.000 A 
ATOM     17  C   UNL     1       1.419   7.814  20.905  0.00  0.00    +0.000 A 
ATOM     18  C   UNL     1       0.685   8.891  21.417  0.00  0.00    +0.000 A 
ATOM     19  C   UNL     1       0.433   9.997  20.599  0.00  0.00    +0.000 A 
ATOM     20  C   UNL     1       0.908  10.024  19.283  0.00  0.00    +0.000 A 
ATOM     21  C   UNL     1       1.628   8.934  18.783  0.00  0.00    +0.000 A 
BRANCH  19  22
ATOM     22  N   UNL     1      -0.337  11.135  21.121  0.00  0.00    +0.000 N 
ATOM     23  O   UNL     1       0.018  11.631  22.200  0.00  0.00    +0.000 OA
ATOM     24  O   UNL     1      -1.303  11.536  20.446  0.00  0.00    +0.000 OA
ENDBRANCH  19  22
ENDBRANCH  14  16
ENDBRANCH   3  14
TORSDOF 8
ENDMDL
MODEL 3
REMARK VINA RESULT:      -6.4      1.373      2.107
REMARK  Name = 
REMARK  12 active torsions:
REMARK  status: ('A' for Active; 'I' for Inactive)
REMARK    1  A    between atoms: C_1  and  C_2
REMARK    2  A    between atoms: C_2  and  C_3
REMARK    3  A    between atoms: C_2  and  O_4
REMARK    4  A    between atoms: O_4  and  P_5
REMARK    5  A    between atoms: P_5  and  O_7
REMARK    6  A    between atoms: P_5  and  C_11
REMARK    7  A    between atoms: O_7  and  C_8
REMARK    8  A    between atoms: C_8  and  C_9
REMARK    9  A    between atoms: C_8  and  C_10
REMARK   10  A    between atoms: C_13  and  N_14
REMARK   11  A    between atoms: N_14  and  C_15
REMARK   12  A    between atoms: C_18  and  N_19
REMARK                            x       y       z     vdW  Elec       q    Type
REMARK                         _______ _______ _______ _____ _____    ______ ____
ROOT
ATOM      1  C   UNL     1       4.800   4.915  17.625  0.00  0.00    +0.000 C 
ATOM      2 CL   UNL     1       4.813   3.760  18.947  0.00  0.00    +0.000 Cl
ATOM      3  C   UNL     1       3.859   5.878  17.645  0.00  0.00    +0.000 C 
ENDROOT
BRANCH   1   4
ATOM      4  P   UNL     1       5.942   4.702  16.211  0.00  0.00    +0.000 P 
ATOM      5  O   UNL     1       5.696   3.179  16.169  0.00  0.00    +0.000 OA
BRANCH   4   6
ATOM      6  O   UNL     1       7.022   4.501  14.875  0.00  0.00    +0.000 OA
BRANCH   6   8
ATOM      7  C   UNL     1       8.047   5.394  12.955  0.00  0.00    +0.000 C 
ATOM      8  C   UNL     1       6.744   4.795  13.510  0.00  0.00    +0.000 C 
ATOM      9  C   UNL     1       6.422   3.601  12.602  0.00  0.00    +0.000 C 
ENDBRANCH   6   8
ENDBRANCH   4   6
BRANCH   4  10
ATOM     10  O   UNL     1       7.259   4.968  17.194  0.00  0.00    +0.000 OA
BRANCH  10  11
ATOM     11  C   UNL     1       7.201   6.094  18.077  0.00  0.00    +0.000 C 
ATOM     12  C   UNL     1       7.990   5.772  19.340  0.00  0.00    +0.000 C 
ATOM     13  C   UNL     1       7.685   7.331  17.326  0.00  0.00    +0.000 C 
ENDBRANCH  10  11
ENDBRANCH   4  10
ENDBRANCH   1   4
BRANCH   3  14
ATOM     14  N   UNL     1       2.906   6.091  18.612  0.00  0.00    +0.000 N 
ATOM     15  H   UNL     1       2.624   5.262  19.133  0.00  0.00    +0.000 HD
BRANCH  14  16
ATOM     16  C   UNL     1       2.335   7.301  19.028  0.00  0.00    +0.000 A 
ATOM     17  C   UNL     1       1.934   7.428  20.369  0.00  0.00    +0.000 A 
ATOM     18  C   UNL     1       1.277   8.575  20.828  0.00  0.00    +0.000 A 
ATOM     19  C   UNL     1       1.018   9.619  19.934  0.00  0.00    +0.000 A 
ATOM     20  C   UNL     1       1.411   9.513  18.595  0.00  0.00    +0.000 A 
ATOM     21  C   UNL     1       2.056   8.355  18.149  0.00  0.00    +0.000 A 
BRANCH  19  22
ATOM     22  N   UNL     1       0.327  10.829  20.399  0.00  0.00    +0.000 N 
ATOM     23  O   UNL     1      -0.567  11.301  19.681  0.00  0.00    +0.000 OA
ATOM     24  O   UNL     1       0.680  11.311  21.491  0.00  0.00    +0.000 OA
ENDBRANCH  19  22
ENDBRANCH  14  16
ENDBRANCH   3  14
TORSDOF 8
ENDMDL
MODEL 4
REMARK VINA RESULT:      -6.3      1.952      3.239
REMARK  Name = 
REMARK  12 active torsions:
REMARK  status: ('A' for Active; 'I' for Inactive)
REMARK    1  A    between atoms: C_1  and  C_2
REMARK    2  A    between atoms: C_2  and  C_3
REMARK    3  A    between atoms: C_2  and  O_4
REMARK    4  A    between atoms: O_4  and  P_5
REMARK    5  A    between atoms: P_5  and  O_7
REMARK    6  A    between atoms: P_5  and  C_11
REMARK    7  A    between atoms: O_7  and  C_8
REMARK    8  A    between atoms: C_8  and  C_9
REMARK    9  A    between atoms: C_8  and  C_10
REMARK   10  A    between atoms: C_13  and  N_14
REMARK   11  A    between atoms: N_14  and  C_15
REMARK   12  A    between atoms: C_18  and  N_19
REMARK                            x       y       z     vdW  Elec       q    Type
REMARK                         _______ _______ _______ _____ _____    ______ ____
ROOT
ATOM      1  C   UNL     1       2.991   6.016  18.001  0.00  0.00    +0.000 C 
ATOM      2 CL   UNL     1       1.464   5.209  17.684  0.00  0.00    +0.000 Cl
ATOM      3  C   UNL     1       2.975   7.357  18.130  0.00  0.00    +0.000 C 
ENDROOT
BRANCH   1   4
ATOM      4  P   UNL     1       4.551   5.059  18.001  0.00  0.00    +0.000 P 
ATOM      5  O   UNL     1       3.949   3.971  17.088  0.00  0.00    +0.000 OA
BRANCH   4   6
ATOM      6  O   UNL     1       6.025   4.154  18.002  0.00  0.00    +0.000 OA
BRANCH   6   8
ATOM      7  C   UNL     1       7.286   5.272  16.362  0.00  0.00    +0.000 C 
ATOM      8  C   UNL     1       7.333   4.667  17.775  0.00  0.00    +0.000 C 
ATOM      9  C   UNL     1       7.794   5.807  18.694  0.00  0.00    +0.000 C 
ENDBRANCH   6   8
ENDBRANCH   4   6
BRANCH   4  10
ATOM     10  O   UNL     1       4.296   4.584  19.577  0.00  0.00    +0.000 OA
BRANCH  10  11
ATOM     11  C   UNL     1       3.478   3.428  19.787  0.00  0.00    +0.000 C 
ATOM     12  C   UNL     1       4.374   2.249  20.146  0.00  0.00    +0.000 C 
ATOM     13  C   UNL     1       2.419   3.760  20.835  0.00  0.00    +0.000 C 
ENDBRANCH  10  11
ENDBRANCH   4  10
ENDBRANCH   1   4
BRANCH   3  14
ATOM     14  N   UNL     1       1.880   8.186  18.075  0.00  0.00    +0.000 N 
ATOM     15  H   UNL     1       1.397   8.207  17.178  0.00  0.00    +0.000 HD
BRANCH  14  16
ATOM     16  C   UNL     1       1.297   8.936  19.104  0.00  0.00    +0.000 A 
ATOM     17  C   UNL     1       1.435   8.481  20.426  0.00  0.00    +0.000 A 
ATOM     18  C   UNL     1       0.802   9.133  21.491  0.00  0.00    +0.000 A 
ATOM     19  C   UNL     1       0.021  10.265  21.233  0.00  0.00    +0.000 A 
ATOM     20  C   UNL     1      -0.125  10.736  19.924  0.00  0.00    +0.000 A 
ATOM     21  C   UNL     1       0.502  10.065  18.869  0.00  0.00    +0.000 A 
BRANCH  19  22
ATOM     22  N   UNL     1      -0.650  10.960  22.340  0.00  0.00    +0.000 N 
ATOM     23  O   UNL     1      -1.424  11.888  22.059  0.00  0.00    +0.000 OA
ATOM     24  O   UNL     1      -0.403  10.575  23.498  0.00  0.00    +0.000 OA
ENDBRANCH  19  22
ENDBRANCH  14  16
ENDBRANCH   3  14
TORSDOF 8
ENDMDL
MODEL 5
REMARK VINA RESULT:      -6.3      2.855      3.957
REMARK  Name = 
REMARK  12 active torsions:
REMARK  status: ('A' for Active; 'I' for Inactive)
REMARK    1  A    between atoms: C_1  and  C_2
REMARK    2  A    between atoms: C_2  and  C_3
REMARK    3  A    between atoms: C_2  and  O_4
REMARK    4  A    between atoms: O_4  and  P_5
REMARK    5  A    between atoms: P_5  and  O_7
REMARK    6  A    between atoms: P_5  and  C_11
REMARK    7  A    between atoms: O_7  and  C_8
REMARK    8  A    between atoms: C_8  and  C_9
REMARK    9  A    between atoms: C_8  and  C_10
REMARK   10  A    between atoms: C_13  and  N_14
REMARK   11  A    between atoms: N_14  and  C_15
REMARK   12  A    between atoms: C_18  and  N_19
REMARK                            x       y       z     vdW  Elec       q    Type
REMARK                         _______ _______ _______ _____ _____    ______ ____
ROOT
ATOM      1  C   UNL     1       2.202   7.017  19.328  0.00  0.00    +0.000 C 
ATOM      2 CL   UNL     1       2.632   7.803  17.818  0.00  0.00    +0.000 Cl
ATOM      3  C   UNL     1       1.665   7.780  20.299  0.00  0.00    +0.000 C 
ENDROOT
BRANCH   1   4
ATOM      4  P   UNL     1       2.618   5.255  19.595  0.00  0.00    +0.000 P 
ATOM      5  O   UNL     1       2.021   5.271  21.018  0.00  0.00    +0.000 OA
BRANCH   4   6
ATOM      6  O   UNL     1       3.012   3.590  19.848  0.00  0.00    +0.000 OA
BRANCH   6   8
ATOM      7  C   UNL     1       1.262   3.055  18.370  0.00  0.00    +0.000 C 
ATOM      8  C   UNL     1       2.429   2.473  19.185  0.00  0.00    +0.000 C 
ATOM      9  C   UNL     1       3.312   1.738  18.169  0.00  0.00    +0.000 C 
ENDBRANCH   6   8
ENDBRANCH   4   6
BRANCH   4  10
ATOM     10  O   UNL     1       4.236   5.625  19.729  0.00  0.00    +0.000 OA
BRANCH  10  11
ATOM     11  C   UNL     1       5.139   4.934  18.858  0.00  0.00    +0.000 C 
ATOM     12  C   UNL     1       4.676   5.123  17.419  0.00  0.00    +0.000 C 
ATOM     13  C   UNL     1       6.558   5.422  19.136  0.00  0.00    +0.000 C 
ENDBRANCH  10  11
ENDBRANCH   4  10
ENDBRANCH   1   4
BRANCH   3  14
ATOM     14  N   UNL     1       1.375   9.122  20.240  0.00  0.00    +0.000 N 
ATOM     15  H   UNL     1       1.889   9.645  19.532  0.00  0.00    +0.000 HD
BRANCH  14  16
ATOM     16  C   UNL     1       0.417   9.845  20.963  0.00  0.00    +0.000 A 
ATOM     17  C   UNL     1      -0.226  10.923  20.332  0.00  0.00    +0.000 A 
ATOM     18  C   UNL     1      -1.127  11.741  21.024  0.00  0.00    +0.000 A 
ATOM     19  C   UNL     1      -1.395  11.475  22.371  0.00  0.00    +0.000 A 
ATOM     20  C   UNL     1      -0.768  10.404  23.017  0.00  0.00    +0.000 A 
ATOM     21  C   UNL     1       0.140   9.605  22.314  0.00  0.00    +0.000 A 
BRANCH  19  22
ATOM     22  N   UNL     1      -2.336  12.325  23.112  0.00  0.00    +0.000 N 
ATOM     23  O   UNL     1      -1.872  13.254  23.790  0.00  0.00    +0.000 OA
ATOM     24  O   UNL     1      -3.550  12.063  23.016  0.00  0.00    +0.000 OA
ENDBRANCH  19  22
ENDBRANCH  14  16
ENDBRANCH   3  14
TORSDOF 8
ENDMDL
MODEL 6
REMARK VINA RESULT:      -6.2      2.386      3.586
REMARK  Name = 
REMARK  12 active torsions:
REMARK  status: ('A' for Active; 'I' for Inactive)
REMARK    1  A    between atoms: C_1  and  C_2
REMARK    2  A    between atoms: C_2  and  C_3
REMARK    3  A    between atoms: C_2  and  O_4
REMARK    4  A    between atoms: O_4  and  P_5
REMARK    5  A    between atoms: P_5  and  O_7
REMARK    6  A    between atoms: P_5  and  C_11
REMARK    7  A    between atoms: O_7  and  C_8
REMARK    8  A    between atoms: C_8  and  C_9
REMARK    9  A    between atoms: C_8  and  C_10
REMARK   10  A    between atoms: C_13  and  N_14
REMARK   11  A    between atoms: N_14  and  C_15
REMARK   12  A    between atoms: C_18  and  N_19
REMARK                            x       y       z     vdW  Elec       q    Type
REMARK                         _______ _______ _______ _____ _____    ______ ____
ROOT
ATOM      1  C   UNL     1       2.539   5.813  20.005  0.00  0.00    +0.000 C 
ATOM      2 CL   UNL     1       2.159   4.703  21.312  0.00  0.00    +0.000 Cl
ATOM      3  C   UNL     1       2.202   7.106  20.165  0.00  0.00    +0.000 C 
ENDROOT
BRANCH   1   4
ATOM      4  P   UNL     1       3.232   5.176  18.435  0.00  0.00    +0.000 P 
ATOM      5  O   UNL     1       1.887   5.359  17.702  0.00  0.00    +0.000 OA
BRANCH   4   6
ATOM      6  O   UNL     1       3.888   4.575  16.952  0.00  0.00    +0.000 OA
BRANCH   6   8
ATOM      7  C   UNL     1       5.299   6.456  16.921  0.00  0.00    +0.000 C 
ATOM      8  C   UNL     1       4.993   5.115  16.235  0.00  0.00    +0.000 C 
ATOM      9  C   UNL     1       6.303   4.319  16.289  0.00  0.00    +0.000 C 
ENDBRANCH   6   8
ENDBRANCH   4   6
BRANCH   4  10
ATOM     10  O   UNL     1       3.264   3.626  19.041  0.00  0.00    +0.000 OA
BRANCH  10  11
ATOM     11  C   UNL     1       2.704   2.593  18.223  0.00  0.00    +0.000 C 
ATOM     12  C   UNL     1       3.645   1.395  18.228  0.00  0.00    +0.000 C 
ATOM     13  C   UNL     1       1.291   2.289  18.715  0.00  0.00    +0.000 C 
ENDBRANCH  10  11
ENDBRANCH   4  10
ENDBRANCH   1   4
BRANCH   3  14
ATOM     14  N   UNL     1       1.613   7.684  21.265  0.00  0.00    +0.000 N 
ATOM     15  H   UNL     1       1.884   7.284  22.161  0.00  0.00    +0.000 HD
BRANCH  14  16
ATOM     16  C   UNL     1       0.759   8.793  21.320  0.00  0.00    +0.000 A 
ATOM     17  C   UNL     1       0.540   9.530  20.143  0.00  0.00    +0.000 A 
ATOM     18  C   UNL     1      -0.228  10.700  20.148  0.00  0.00    +0.000 A 
ATOM     19  C   UNL     1      -0.794  11.141  21.349  0.00  0.00    +0.000 A 
ATOM     20  C   UNL     1      -0.591  10.420  22.530  0.00  0.00    +0.000 A 
ATOM     21  C   UNL     1       0.191   9.261  22.511  0.00  0.00    +0.000 A 
BRANCH  19  22
ATOM     22  N   UNL     1      -1.602  12.368  21.371  0.00  0.00    +0.000 N 
ATOM     23  O   UNL     1      -2.419  12.510  22.292  0.00  0.00    +0.000 OA
ATOM     24  O   UNL     1      -1.417  13.197  20.460  0.00  0.00    +0.000 OA
ENDBRANCH  19  22
ENDBRANCH  14  16
ENDBRANCH   3  14
TORSDOF 8
ENDMDL
MODEL 7
REMARK VINA RESULT:      -6.2      4.111      8.591
REMARK  Name = 
REMARK  12 active torsions:
REMARK  status: ('A' for Active; 'I' for Inactive)
REMARK    1  A    between atoms: C_1  and  C_2
REMARK    2  A    between atoms: C_2  and  C_3
REMARK    3  A    between atoms: C_2  and  O_4
REMARK    4  A    between atoms: O_4  and  P_5
REMARK    5  A    between atoms: P_5  and  O_7
REMARK    6  A    between atoms: P_5  and  C_11
REMARK    7  A    between atoms: O_7  and  C_8
REMARK    8  A    between atoms: C_8  and  C_9
REMARK    9  A    between atoms: C_8  and  C_10
REMARK   10  A    between atoms: C_13  and  N_14
REMARK   11  A    between atoms: N_14  and  C_15
REMARK   12  A    between atoms: C_18  and  N_19
REMARK                            x       y       z     vdW  Elec       q    Type
REMARK                         _______ _______ _______ _____ _____    ______ ____
ROOT
ATOM      1  C   UNL     1       0.856   9.486  19.854  0.00  0.00    +0.000 C 
ATOM      2 CL   UNL     1       1.209   9.273  18.147  0.00  0.00    +0.000 Cl
ATOM      3  C   UNL     1       1.430   8.631  20.722  0.00  0.00    +0.000 C 
ENDROOT
BRANCH   1   4
ATOM      4  P   UNL     1      -0.366  10.739  20.388  0.00  0.00    +0.000 P 
ATOM      5  O   UNL     1      -1.119  10.660  19.043  0.00  0.00    +0.000 OA
BRANCH   4   6
ATOM      6  O   UNL     1      -1.521  11.924  20.892  0.00  0.00    +0.000 OA
BRANCH   6   8
ATOM      7  C   UNL     1      -1.344  11.090  23.084  0.00  0.00    +0.000 C 
ATOM      8  C   UNL     1      -1.850  12.267  22.234  0.00  0.00    +0.000 C 
ATOM      9  C   UNL     1      -1.166  13.513  22.812  0.00  0.00    +0.000 C 
ENDBRANCH   6   8
ENDBRANCH   4   6
BRANCH   4  10
ATOM     10  O   UNL     1       0.769  11.950  20.253  0.00  0.00    +0.000 OA
BRANCH  10  11
ATOM     11  C   UNL     1       0.830  12.654  19.008  0.00  0.00    +0.000 C 
ATOM     12  C   UNL     1       0.300  14.067  19.213  0.00  0.00    +0.000 C 
ATOM     13  C   UNL     1       2.259  12.585  18.475  0.00  0.00    +0.000 C 
ENDBRANCH  10  11
ENDBRANCH   4  10
ENDBRANCH   1   4
BRANCH   3  14
ATOM     14  N   UNL     1       2.302   7.610  20.432  0.00  0.00    +0.000 N 
ATOM     15  H   UNL     1       3.262   7.759  20.739  0.00  0.00    +0.000 HD
BRANCH  14  16
ATOM     16  C   UNL     1       2.031   6.366  19.847  0.00  0.00    +0.000 A 
ATOM     17  C   UNL     1       1.424   5.373  20.634  0.00  0.00    +0.000 A 
ATOM     18  C   UNL     1       1.208   4.081  20.139  0.00  0.00    +0.000 A 
ATOM     19  C   UNL     1       1.600   3.775  18.832  0.00  0.00    +0.000 A 
ATOM     20  C   UNL     1       2.203   4.751  18.031  0.00  0.00    +0.000 A 
ATOM     21  C   UNL     1       2.424   6.033  18.545  0.00  0.00    +0.000 A 
BRANCH  19  22
ATOM     22  N   UNL     1       1.381   2.424  18.298  0.00  0.00    +0.000 N 
ATOM     23  O   UNL     1       2.189   1.991  17.464  0.00  0.00    +0.000 OA
ATOM     24  O   UNL     1       0.394   1.791  18.717  0.00  0.00    +0.000 OA
ENDBRANCH  19  22
ENDBRANCH  14  16
ENDBRANCH   3  14
TORSDOF 8
ENDMDL
MODEL 8
REMARK VINA RESULT:      -6.2      2.473      3.752
REMARK  Name = 
REMARK  12 active torsions:
REMARK  status: ('A' for Active; 'I' for Inactive)
REMARK    1  A    between atoms: C_1  and  C_2
REMARK    2  A    between atoms: C_2  and  C_3
REMARK    3  A    between atoms: C_2  and  O_4
REMARK    4  A    between atoms: O_4  and  P_5
REMARK    5  A    between atoms: P_5  and  O_7
REMARK    6  A    between atoms: P_5  and  C_11
REMARK    7  A    between atoms: O_7  and  C_8
REMARK    8  A    between atoms: C_8  and  C_9
REMARK    9  A    between atoms: C_8  and  C_10
REMARK   10  A    between atoms: C_13  and  N_14
REMARK   11  A    between atoms: N_14  and  C_15
REMARK   12  A    between atoms: C_18  and  N_19
REMARK                            x       y       z     vdW  Elec       q    Type
REMARK                         _______ _______ _______ _____ _____    ______ ____
ROOT
ATOM      1  C   UNL     1       2.304   5.858  19.994  0.00  0.00    +0.000 C 
ATOM      2 CL   UNL     1       1.621   4.713  21.137  0.00  0.00    +0.000 Cl
ATOM      3  C   UNL     1       2.124   7.170  20.240  0.00  0.00    +0.000 C 
ENDROOT
BRANCH   1   4
ATOM      4  P   UNL     1       3.098   5.258  18.459  0.00  0.00    +0.000 P 
ATOM      5  O   UNL     1       1.785   5.395  17.660  0.00  0.00    +0.000 OA
BRANCH   4   6
ATOM      6  O   UNL     1       3.849   4.690  17.007  0.00  0.00    +0.000 OA
BRANCH   6   8
ATOM      7  C   UNL     1       5.361   4.197  15.275  0.00  0.00    +0.000 C 
ATOM      8  C   UNL     1       5.098   5.119  16.477  0.00  0.00    +0.000 C 
ATOM      9  C   UNL     1       5.155   6.547  15.919  0.00  0.00    +0.000 C 
ENDBRANCH   6   8
ENDBRANCH   4   6
BRANCH   4  10
ATOM     10  O   UNL     1       3.157   3.706  19.058  0.00  0.00    +0.000 OA
BRANCH  10  11
ATOM     11  C   UNL     1       2.692   2.656  18.202  0.00  0.00    +0.000 C 
ATOM     12  C   UNL     1       3.664   1.485  18.286  0.00  0.00    +0.000 C 
ATOM     13  C   UNL     1       1.254   2.313  18.582  0.00  0.00    +0.000 C 
ENDBRANCH  10  11
ENDBRANCH   4  10
ENDBRANCH   1   4
BRANCH   3  14
ATOM     14  N   UNL     1       1.483   7.735  21.317  0.00  0.00    +0.000 N 
ATOM     15  H   UNL     1       1.613   7.249  22.202  0.00  0.00    +0.000 HD
BRANCH  14  16
ATOM     16  C   UNL     1       0.749   8.927  21.373  0.00  0.00    +0.000 A 
ATOM     17  C   UNL     1       0.252   9.350  22.617  0.00  0.00    +0.000 A 
ATOM     18  C   UNL     1      -0.565  10.482  22.728  0.00  0.00    +0.000 A 
ATOM     19  C   UNL     1      -0.886  11.209  21.578  0.00  0.00    +0.000 A 
ATOM     20  C   UNL     1      -0.398  10.806  20.330  0.00  0.00    +0.000 A 
ATOM     21  C   UNL     1       0.405   9.665  20.234  0.00  0.00    +0.000 A 
BRANCH  19  22
ATOM     22  N   UNL     1      -1.743  12.399  21.677  0.00  0.00    +0.000 N 
ATOM     23  O   UNL     1      -2.685  12.506  20.878  0.00  0.00    +0.000 OA
ATOM     24  O   UNL     1      -1.472  13.232  22.562  0.00  0.00    +0.000 OA
ENDBRANCH  19  22
ENDBRANCH  14  16
ENDBRANCH   3  14
TORSDOF 8
ENDMDL
MODEL 9
REMARK VINA RESULT:      -6.2      4.036      8.350
REMARK  Name = 
REMARK  12 active torsions:
REMARK  status: ('A' for Active; 'I' for Inactive)
REMARK    1  A    between atoms: C_1  and  C_2
REMARK    2  A    between atoms: C_2  and  C_3
REMARK    3  A    between atoms: C_2  and  O_4
REMARK    4  A    between atoms: O_4  and  P_5
REMARK    5  A    between atoms: P_5  and  O_7
REMARK    6  A    between atoms: P_5  and  C_11
REMARK    7  A    between atoms: O_7  and  C_8
REMARK    8  A    between atoms: C_8  and  C_9
REMARK    9  A    between atoms: C_8  and  C_10
REMARK   10  A    between atoms: C_13  and  N_14
REMARK   11  A    between atoms: N_14  and  C_15
REMARK   12  A    between atoms: C_18  and  N_19
REMARK                            x       y       z     vdW  Elec       q    Type
REMARK                         _______ _______ _______ _____ _____    ______ ____
ROOT
ATOM      1  C   UNL     1       0.568   9.514  20.873  0.00  0.00    +0.000 C 
ATOM      2 CL   UNL     1      -0.462   9.079  22.228  0.00  0.00    +0.000 Cl
ATOM      3  C   UNL     1       1.490   8.617  20.475  0.00  0.00    +0.000 C 
ENDROOT
BRANCH   1   4
ATOM      4  P   UNL     1       0.466  11.191  20.147  0.00  0.00    +0.000 P 
ATOM      5  O   UNL     1       0.754  11.859  21.508  0.00  0.00    +0.000 OA
BRANCH   4   6
ATOM      6  O   UNL     1       0.370  12.776  19.460  0.00  0.00    +0.000 OA
BRANCH   6   8
ATOM      7  C   UNL     1       1.735  14.659  19.114  0.00  0.00    +0.000 C 
ATOM      8  C   UNL     1       1.256  13.335  18.497  0.00  0.00    +0.000 C 
ATOM      9  C   UNL     1       2.532  12.540  18.192  0.00  0.00    +0.000 C 
ENDBRANCH   6   8
ENDBRANCH   4   6
BRANCH   4  10
ATOM     10  O   UNL     1      -1.186  11.060  19.995  0.00  0.00    +0.000 OA
BRANCH  10  11
ATOM     11  C   UNL     1      -1.752  11.366  18.716  0.00  0.00    +0.000 C 
ATOM     12  C   UNL     1      -1.594  10.157  17.804  0.00  0.00    +0.000 C 
ATOM     13  C   UNL     1      -3.194  11.825  18.915  0.00  0.00    +0.000 C 
ENDBRANCH  10  11
ENDBRANCH   4  10
ENDBRANCH   1   4
BRANCH   3  14
ATOM     14  N   UNL     1       1.707   7.361  20.991  0.00  0.00    +0.000 N 
ATOM     15  H   UNL     1       1.607   7.285  22.001  0.00  0.00    +0.000 HD
BRANCH  14  16
ATOM     16  C   UNL     1       1.965   6.166  20.306  0.00  0.00    +0.000 A 
ATOM     17  C   UNL     1       2.654   6.230  19.083  0.00  0.00    +0.000 A 
ATOM     18  C   UNL     1       2.865   5.085  18.305  0.00  0.00    +0.000 A 
ATOM     19  C   UNL     1       2.384   3.852  18.758  0.00  0.00    +0.000 A 
ATOM     20  C   UNL     1       1.698   3.768  19.975  0.00  0.00    +0.000 A 
ATOM     21  C   UNL     1       1.484   4.923  20.734  0.00  0.00    +0.000 A 
BRANCH  19  22
ATOM     22  N   UNL     1       2.596   2.642  17.954  0.00  0.00    +0.000 N 
ATOM     23  O   UNL     1       3.042   1.635  18.523  0.00  0.00    +0.000 OA
ATOM     24  O   UNL     1       2.313   2.698  16.742  0.00  0.00    +0.000 OA
ENDBRANCH  19  22
ENDBRANCH  14  16
ENDBRANCH   3  14
TORSDOF 8
ENDMDL
