MODEL 1
REMARK VINA RESULT:      -7.3      0.000      0.000
REMARK  Name = 
REMARK  4 active torsions:
REMARK  status: ('A' for Active; 'I' for Inactive)
REMARK    1  A    between atoms: S_2  and  C_4
REMARK    2  A    between atoms: S_2  and  N_7
REMARK    3  A    between atoms: C_9  and  O_10
REMARK    4  A    between atoms: O_10  and  C_11
REMARK                            x       y       z     vdW  Elec       q    Type
REMARK                         _______ _______ _______ _____ _____    ______ ____
ROOT
ATOM      1  N   UNL     1       3.536   3.783  18.139  0.00  0.00    +0.000 NA
ATOM      2  C   UNL     1       4.315   3.211  16.976  0.00  0.00    +0.000 C 
ATOM      3  C   UNL     1       5.348   4.273  16.568  0.00  0.00    +0.000 C 
ATOM      4  C   UNL     1       5.605   4.988  17.897  0.00  0.00    +0.000 C 
ATOM      5  O   UNL     1       6.281   6.241  17.807  0.00  0.00    +0.000 OA
ATOM      6  C   UNL     1       5.578   7.274  17.125  0.00  0.00    +0.000 C 
ATOM      7  C   UNL     1       4.186   7.505  17.699  0.00  0.00    +0.000 C 
ATOM      8  C   UNL     1       3.381   6.216  17.802  0.00  0.00    +0.000 C 
ATOM      9  C   UNL     1       4.190   5.097  18.470  0.00  0.00    +0.000 C 
ENDROOT
BRANCH   1  11
ATOM     10  O   UNL     1       4.684   2.468  19.987  0.00  0.00    +0.000 OA
ATOM     11  S   UNL     1       3.354   2.754  19.489  0.00  0.00    +0.000 S 
ATOM     12  O   UNL     1       2.477   1.671  19.087  0.00  0.00    +0.000 OA
BRANCH  11  13
ATOM     13  C   UNL     1       2.516   3.601  20.856  0.00  0.00    +0.000 C 
ATOM     14  C   UNL     1       1.061   3.892  20.575  0.00  0.00    +0.000 C 
ATOM     15  C   UNL     1       1.439   2.873  21.610  0.00  0.00    +0.000 C 
ENDBRANCH  11  13
ENDBRANCH   1  11
BRANCH   3  16
ATOM     16  O   UNL     1       6.557   3.719  16.047  0.00  0.00    +0.000 OA
BRANCH  16  17
ATOM     17  C   UNL     1       6.802   4.168  14.763  0.00  0.00    +0.000 A 
ATOM     18  C   UNL     1       6.197   3.485  13.725  0.00  0.00    +0.000 A 
ATOM     19  C   UNL     1       6.461   3.904  12.424  0.00  0.00    +0.000 A 
ATOM     20  C   UNL     1       7.299   4.994  12.213  0.00  0.00    +0.000 A 
ATOM     21  C   UNL     1       7.837   5.630  13.319  0.00  0.00    +0.000 A 
ATOM     22  N   UNL     1       7.603   5.243  14.592  0.00  0.00    +0.000 NA
ENDBRANCH  16  17
ENDBRANCH   3  16
TORSDOF 4
ENDMDL
MODEL 2
REMARK VINA RESULT:      -7.2      3.189      6.928
REMARK  Name = 
REMARK  4 active torsions:
REMARK  status: ('A' for Active; 'I' for Inactive)
REMARK    1  A    between atoms: S_2  and  C_4
REMARK    2  A    between atoms: S_2  and  N_7
REMARK    3  A    between atoms: C_9  and  O_10
REMARK    4  A    between atoms: O_10  and  C_11
REMARK                            x       y       z     vdW  Elec       q    Type
REMARK                         _______ _______ _______ _____ _____    ______ ____
ROOT
ATOM      1  N   UNL     1       3.986   5.216  17.661  0.00  0.00    +0.000 NA
ATOM      2  C   UNL     1       3.526   6.599  18.061  0.00  0.00    +0.000 C 
ATOM      3  C   UNL     1       2.517   6.418  19.207  0.00  0.00    +0.000 C 
ATOM      4  C   UNL     1       3.014   5.125  19.859  0.00  0.00    +0.000 C 
ATOM      5  O   UNL     1       2.106   4.499  20.764  0.00  0.00    +0.000 OA
ATOM      6  C   UNL     1       0.897   4.014  20.189  0.00  0.00    +0.000 C 
ATOM      7  C   UNL     1       1.148   3.077  19.016  0.00  0.00    +0.000 C 
ATOM      8  C   UNL     1       2.089   3.682  17.982  0.00  0.00    +0.000 C 
ATOM      9  C   UNL     1       3.347   4.267  18.636  0.00  0.00    +0.000 C 
ENDROOT
BRANCH   1  11
ATOM     10  O   UNL     1       6.097   4.178  18.623  0.00  0.00    +0.000 OA
ATOM     11  S   UNL     1       5.674   5.008  17.515  0.00  0.00    +0.000 S 
ATOM     12  O   UNL     1       6.253   6.324  17.325  0.00  0.00    +0.000 OA
BRANCH  11  13
ATOM     13  C   UNL     1       6.095   4.053  16.031  0.00  0.00    +0.000 C 
ATOM     14  C   UNL     1       5.478   4.608  14.770  0.00  0.00    +0.000 C 
ATOM     15  C   UNL     1       6.962   4.689  14.980  0.00  0.00    +0.000 C 
ENDBRANCH  11  13
ENDBRANCH   1  11
BRANCH   3  16
ATOM     16  O   UNL     1       2.522   7.495  20.144  0.00  0.00    +0.000 OA
BRANCH  16  17
ATOM     17  C   UNL     1       1.563   8.438  19.829  0.00  0.00    +0.000 A 
ATOM     18  C   UNL     1       0.677   8.802  20.826  0.00  0.00    +0.000 A 
ATOM     19  C   UNL     1      -0.317   9.725  20.514  0.00  0.00    +0.000 A 
ATOM     20  C   UNL     1      -0.376  10.260  19.231  0.00  0.00    +0.000 A 
ATOM     21  C   UNL     1       0.573   9.854  18.308  0.00  0.00    +0.000 A 
ATOM     22  N   UNL     1       1.544   8.956  18.580  0.00  0.00    +0.000 NA
ENDBRANCH  16  17
ENDBRANCH   3  16
TORSDOF 4
ENDMDL
MODEL 3
REMARK VINA RESULT:      -7.1      3.126      6.880
REMARK  Name = 
REMARK  4 active torsions:
REMARK  status: ('A' for Active; 'I' for Inactive)
REMARK    1  A    between atoms: S_2  and  C_4
REMARK    2  A    between atoms: S_2  and  N_7
REMARK    3  A    between atoms: C_9  and  O_10
REMARK    4  A    between atoms: O_10  and  C_11
REMARK                            x       y       z     vdW  Elec       q    Type
REMARK                         _______ _______ _______ _____ _____    ______ ____
ROOT
ATOM      1  N   UNL     1       4.063   5.251  17.529  0.00  0.00    +0.000 NA
ATOM      2  C   UNL     1       3.596   6.629  17.937  0.00  0.00    +0.000 C 
ATOM      3  C   UNL     1       2.576   6.435  19.071  0.00  0.00    +0.000 C 
ATOM      4  C   UNL     1       3.069   5.138  19.717  0.00  0.00    +0.000 C 
ATOM      5  O   UNL     1       2.154   4.501  20.607  0.00  0.00    +0.000 OA
ATOM      6  C   UNL     1       0.952   4.019  20.016  0.00  0.00    +0.000 C 
ATOM      7  C   UNL     1       1.217   3.093  18.837  0.00  0.00    +0.000 C 
ATOM      8  C   UNL     1       2.166   3.710  17.817  0.00  0.00    +0.000 C 
ATOM      9  C   UNL     1       3.416   4.291  18.490  0.00  0.00    +0.000 C 
ENDROOT
BRANCH   1  11
ATOM     10  O   UNL     1       6.176   4.264  18.539  0.00  0.00    +0.000 OA
ATOM     11  S   UNL     1       5.753   5.048  17.398  0.00  0.00    +0.000 S 
ATOM     12  O   UNL     1       6.325   6.360  17.161  0.00  0.00    +0.000 OA
BRANCH  11  13
ATOM     13  C   UNL     1       6.186   4.040  15.953  0.00  0.00    +0.000 C 
ATOM     14  C   UNL     1       5.455   4.451  14.698  0.00  0.00    +0.000 C 
ATOM     15  C   UNL     1       6.933   4.682  14.817  0.00  0.00    +0.000 C 
ENDBRANCH  11  13
ENDBRANCH   1  11
BRANCH   3  16
ATOM     16  O   UNL     1       2.569   7.504  20.019  0.00  0.00    +0.000 OA
BRANCH  16  17
ATOM     17  C   UNL     1       1.578   8.423  19.730  0.00  0.00    +0.000 A 
ATOM     18  C   UNL     1       1.504   8.891  18.432  0.00  0.00    +0.000 A 
ATOM     19  C   UNL     1       0.533   9.843  18.134  0.00  0.00    +0.000 A 
ATOM     20  C   UNL     1      -0.333  10.273  19.134  0.00  0.00    +0.000 A 
ATOM     21  C   UNL     1      -0.197   9.725  20.397  0.00  0.00    +0.000 A 
ATOM     22  N   UNL     1       0.738   8.805  20.717  0.00  0.00    +0.000 NA
ENDBRANCH  16  17
ENDBRANCH   3  16
TORSDOF 4
ENDMDL
MODEL 4
REMARK VINA RESULT:      -7.0      3.334      7.058
REMARK  Name = 
REMARK  4 active torsions:
REMARK  status: ('A' for Active; 'I' for Inactive)
REMARK    1  A    between atoms: S_2  and  C_4
REMARK    2  A    between atoms: S_2  and  N_7
REMARK    3  A    between atoms: C_9  and  O_10
REMARK    4  A    between atoms: O_10  and  C_11
REMARK                            x       y       z     vdW  Elec       q    Type
REMARK                         _______ _______ _______ _____ _____    ______ ____
ROOT
ATOM      1  N   UNL     1       3.473   5.327  17.389  0.00  0.00    +0.000 NA
ATOM      2  C   UNL     1       3.119   6.673  17.979  0.00  0.00    +0.000 C 
ATOM      3  C   UNL     1       2.367   6.399  19.291  0.00  0.00    +0.000 C 
ATOM      4  C   UNL     1       2.974   5.064  19.727  0.00  0.00    +0.000 C 
ATOM      5  O   UNL     1       2.266   4.365  20.750  0.00  0.00    +0.000 OA
ATOM      6  C   UNL     1       0.960   3.918  20.402  0.00  0.00    +0.000 C 
ATOM      7  C   UNL     1       0.955   3.074  19.135  0.00  0.00    +0.000 C 
ATOM      8  C   UNL     1       1.668   3.762  17.978  0.00  0.00    +0.000 C 
ATOM      9  C   UNL     1       3.039   4.303  18.401  0.00  0.00    +0.000 C 
ENDROOT
BRANCH   1  11
ATOM     10  O   UNL     1       5.309   6.078  15.800  0.00  0.00    +0.000 OA
ATOM     11  S   UNL     1       5.093   5.141  16.883  0.00  0.00    +0.000 S 
ATOM     12  O   UNL     1       5.317   3.724  16.678  0.00  0.00    +0.000 OA
BRANCH  11  13
ATOM     13  C   UNL     1       6.253   5.654  18.180  0.00  0.00    +0.000 C 
ATOM     14  C   UNL     1       7.632   5.062  18.015  0.00  0.00    +0.000 C 
ATOM     15  C   UNL     1       7.415   6.533  17.809  0.00  0.00    +0.000 C 
ENDBRANCH  11  13
ENDBRANCH   1  11
BRANCH   3  16
ATOM     16  O   UNL     1       2.575   7.402  20.286  0.00  0.00    +0.000 OA
BRANCH  16  17
ATOM     17  C   UNL     1       1.553   8.332  20.282  0.00  0.00    +0.000 A 
ATOM     18  C   UNL     1       0.753   8.401  21.408  0.00  0.00    +0.000 A 
ATOM     19  C   UNL     1      -0.302   9.309  21.406  0.00  0.00    +0.000 A 
ATOM     20  C   UNL     1      -0.506  10.120  20.294  0.00  0.00    +0.000 A 
ATOM     21  C   UNL     1       0.366   9.996  19.225  0.00  0.00    +0.000 A 
ATOM     22  N   UNL     1       1.394   9.121  19.196  0.00  0.00    +0.000 NA
ENDBRANCH  16  17
ENDBRANCH   3  16
TORSDOF 4
ENDMDL
MODEL 5
REMARK VINA RESULT:      -6.9      3.231      6.939
REMARK  Name = 
REMARK  4 active torsions:
REMARK  status: ('A' for Active; 'I' for Inactive)
REMARK    1  A    between atoms: S_2  and  C_4
REMARK    2  A    between atoms: S_2  and  N_7
REMARK    3  A    between atoms: C_9  and  O_10
REMARK    4  A    between atoms: O_10  and  C_11
REMARK                            x       y       z     vdW  Elec       q    Type
REMARK                         _______ _______ _______ _____ _____    ______ ____
ROOT
ATOM      1  N   UNL     1       3.535   5.167  17.364  0.00  0.00    +0.000 NA
ATOM      2  C   UNL     1       3.176   6.548  17.862  0.00  0.00    +0.000 C 
ATOM      3  C   UNL     1       2.435   6.360  19.196  0.00  0.00    +0.000 C 
ATOM      4  C   UNL     1       3.054   5.062  19.718  0.00  0.00    +0.000 C 
ATOM      5  O   UNL     1       2.358   4.431  20.793  0.00  0.00    +0.000 OA
ATOM      6  C   UNL     1       1.053   3.954  20.486  0.00  0.00    +0.000 C 
ATOM      7  C   UNL     1       1.044   3.024  19.280  0.00  0.00    +0.000 C 
ATOM      8  C   UNL     1       1.744   3.634  18.073  0.00  0.00    +0.000 C 
ATOM      9  C   UNL     1       3.115   4.211  18.447  0.00  0.00    +0.000 C 
ENDROOT
BRANCH   1  11
ATOM     10  O   UNL     1       5.497   6.105  16.048  0.00  0.00    +0.000 OA
ATOM     11  S   UNL     1       5.152   4.956  16.859  0.00  0.00    +0.000 S 
ATOM     12  O   UNL     1       5.259   3.617  16.312  0.00  0.00    +0.000 OA
BRANCH  11  13
ATOM     13  C   UNL     1       6.296   5.019  18.266  0.00  0.00    +0.000 C 
ATOM     14  C   UNL     1       7.723   4.702  17.889  0.00  0.00    +0.000 C 
ATOM     15  C   UNL     1       7.346   6.095  18.300  0.00  0.00    +0.000 C 
ENDBRANCH  11  13
ENDBRANCH   1  11
BRANCH   3  16
ATOM     16  O   UNL     1       2.644   7.431  20.118  0.00  0.00    +0.000 OA
BRANCH  16  17
ATOM     17  C   UNL     1       1.586   8.319  20.103  0.00  0.00    +0.000 A 
ATOM     18  C   UNL     1       1.418   9.090  18.968  0.00  0.00    +0.000 A 
ATOM     19  C   UNL     1       0.377  10.013  18.952  0.00  0.00    +0.000 A 
ATOM     20  C   UNL     1      -0.463  10.117  20.056  0.00  0.00    +0.000 A 
ATOM     21  C   UNL     1      -0.231   9.282  21.135  0.00  0.00    +0.000 A 
ATOM     22  N   UNL     1       0.774   8.381  21.182  0.00  0.00    +0.000 NA
ENDBRANCH  16  17
ENDBRANCH   3  16
TORSDOF 4
ENDMDL
MODEL 6
REMARK VINA RESULT:      -6.9      0.714      1.074
REMARK  Name = 
REMARK  4 active torsions:
REMARK  status: ('A' for Active; 'I' for Inactive)
REMARK    1  A    between atoms: S_2  and  C_4
REMARK    2  A    between atoms: S_2  and  N_7
REMARK    3  A    between atoms: C_9  and  O_10
REMARK    4  A    between atoms: O_10  and  C_11
REMARK                            x       y       z     vdW  Elec       q    Type
REMARK                         _______ _______ _______ _____ _____    ______ ____
ROOT
ATOM      1  N   UNL     1       3.479   3.669  18.117  0.00  0.00    +0.000 NA
ATOM      2  C   UNL     1       4.386   3.198  17.003  0.00  0.00    +0.000 C 
ATOM      3  C   UNL     1       5.259   4.398  16.604  0.00  0.00    +0.000 C 
ATOM      4  C   UNL     1       5.343   5.176  17.919  0.00  0.00    +0.000 C 
ATOM      5  O   UNL     1       5.820   6.517  17.818  0.00  0.00    +0.000 OA
ATOM      6  C   UNL     1       4.995   7.410  17.077  0.00  0.00    +0.000 C 
ATOM      7  C   UNL     1       3.562   7.435  17.589  0.00  0.00    +0.000 C 
ATOM      8  C   UNL     1       2.962   6.039  17.699  0.00  0.00    +0.000 C 
ATOM      9  C   UNL     1       3.905   5.077  18.433  0.00  0.00    +0.000 C 
ENDROOT
BRANCH   1  11
ATOM     10  O   UNL     1       4.757   2.469  19.956  0.00  0.00    +0.000 OA
ATOM     11  S   UNL     1       3.400   2.657  19.489  0.00  0.00    +0.000 S 
ATOM     12  O   UNL     1       2.586   1.512  19.131  0.00  0.00    +0.000 OA
BRANCH  11  13
ATOM     13  C   UNL     1       2.544   3.475  20.864  0.00  0.00    +0.000 C 
ATOM     14  C   UNL     1       1.109   3.824  20.549  0.00  0.00    +0.000 C 
ATOM     15  C   UNL     1       1.420   2.752  21.552  0.00  0.00    +0.000 C 
ENDBRANCH  11  13
ENDBRANCH   1  11
BRANCH   3  16
ATOM     16  O   UNL     1       6.561   4.027  16.148  0.00  0.00    +0.000 OA
BRANCH  16  17
ATOM     17  C   UNL     1       6.663   4.145  14.775  0.00  0.00    +0.000 A 
ATOM     18  C   UNL     1       7.602   5.032  14.281  0.00  0.00    +0.000 A 
ATOM     19  C   UNL     1       7.694   5.187  12.901  0.00  0.00    +0.000 A 
ATOM     20  C   UNL     1       6.862   4.442  12.072  0.00  0.00    +0.000 A 
ATOM     21  C   UNL     1       5.973   3.559  12.660  0.00  0.00    +0.000 A 
ATOM     22  N   UNL     1       5.857   3.391  13.995  0.00  0.00    +0.000 NA
ENDBRANCH  16  17
ENDBRANCH   3  16
TORSDOF 4
ENDMDL
MODEL 7
REMARK VINA RESULT:      -6.9      2.959      5.505
REMARK  Name = 
REMARK  4 active torsions:
REMARK  status: ('A' for Active; 'I' for Inactive)
REMARK    1  A    between atoms: S_2  and  C_4
REMARK    2  A    between atoms: S_2  and  N_7
REMARK    3  A    between atoms: C_9  and  O_10
REMARK    4  A    between atoms: O_10  and  C_11
REMARK                            x       y       z     vdW  Elec       q    Type
REMARK                         _______ _______ _______ _____ _____    ______ ____
ROOT
ATOM      1  N   UNL     1       3.512   4.460  18.839  0.00  0.00    +0.000 NA
ATOM      2  C   UNL     1       2.713   5.743  18.883  0.00  0.00    +0.000 C 
ATOM      3  C   UNL     1       3.555   6.815  18.174  0.00  0.00    +0.000 C 
ATOM      4  C   UNL     1       4.349   5.977  17.170  0.00  0.00    +0.000 C 
ATOM      5  O   UNL     1       5.466   6.627  16.565  0.00  0.00    +0.000 OA
ATOM      6  C   UNL     1       6.523   6.986  17.448  0.00  0.00    +0.000 C 
ATOM      7  C   UNL     1       7.024   5.802  18.264  0.00  0.00    +0.000 C 
ATOM      8  C   UNL     1       5.894   5.066  18.971  0.00  0.00    +0.000 C 
ATOM      9  C   UNL     1       4.734   4.760  18.015  0.00  0.00    +0.000 C 
ENDROOT
BRANCH   1  11
ATOM     10  O   UNL     1       3.652   2.104  17.896  0.00  0.00    +0.000 OA
ATOM     11  S   UNL     1       2.663   3.074  18.318  0.00  0.00    +0.000 S 
ATOM     12  O   UNL     1       1.638   3.521  17.394  0.00  0.00    +0.000 OA
BRANCH  11  13
ATOM     13  C   UNL     1       1.789   2.279  19.695  0.00  0.00    +0.000 C 
ATOM     14  C   UNL     1       2.332   2.669  21.049  0.00  0.00    +0.000 C 
ATOM     15  C   UNL     1       0.970   3.132  20.623  0.00  0.00    +0.000 C 
ENDBRANCH  11  13
ENDBRANCH   1  11
BRANCH   3  16
ATOM     16  O   UNL     1       2.769   7.803  17.504  0.00  0.00    +0.000 OA
BRANCH  16  17
ATOM     17  C   UNL     1       1.942   8.469  18.387  0.00  0.00    +0.000 A 
ATOM     18  C   UNL     1       1.102   9.436  17.866  0.00  0.00    +0.000 A 
ATOM     19  C   UNL     1       0.288  10.140  18.748  0.00  0.00    +0.000 A 
ATOM     20  C   UNL     1       0.329   9.840  20.106  0.00  0.00    +0.000 A 
ATOM     21  C   UNL     1       1.183   8.836  20.528  0.00  0.00    +0.000 A 
ATOM     22  N   UNL     1       1.989   8.141  19.698  0.00  0.00    +0.000 NA
ENDBRANCH  16  17
ENDBRANCH   3  16
TORSDOF 4
ENDMDL
MODEL 8
REMARK VINA RESULT:      -6.7      2.264      6.593
REMARK  Name = 
REMARK  4 active torsions:
REMARK  status: ('A' for Active; 'I' for Inactive)
REMARK    1  A    between atoms: S_2  and  C_4
REMARK    2  A    between atoms: S_2  and  N_7
REMARK    3  A    between atoms: C_9  and  O_10
REMARK    4  A    between atoms: O_10  and  C_11
REMARK                            x       y       z     vdW  Elec       q    Type
REMARK                         _______ _______ _______ _____ _____    ______ ____
ROOT
ATOM      1  N   UNL     1       6.439   4.111  15.775  0.00  0.00    +0.000 NA
ATOM      2  C   UNL     1       5.231   3.242  16.037  0.00  0.00    +0.000 C 
ATOM      3  C   UNL     1       4.575   3.768  17.324  0.00  0.00    +0.000 C 
ATOM      4  C   UNL     1       4.951   5.251  17.282  0.00  0.00    +0.000 C 
ATOM      5  O   UNL     1       4.767   5.973  18.500  0.00  0.00    +0.000 OA
ATOM      6  C   UNL     1       5.585   5.561  19.590  0.00  0.00    +0.000 C 
ATOM      7  C   UNL     1       7.066   5.561  19.236  0.00  0.00    +0.000 C 
ATOM      8  C   UNL     1       7.357   4.784  17.958  0.00  0.00    +0.000 C 
ATOM      9  C   UNL     1       6.409   5.191  16.822  0.00  0.00    +0.000 C 
ENDROOT
BRANCH   1  11
ATOM     10  O   UNL     1       7.877   5.373  14.101  0.00  0.00    +0.000 OA
ATOM     11  S   UNL     1       6.592   4.710  14.184  0.00  0.00    +0.000 S 
ATOM     12  O   UNL     1       5.375   5.437  13.881  0.00  0.00    +0.000 OA
BRANCH  11  13
ATOM     13  C   UNL     1       6.688   3.358  12.977  0.00  0.00    +0.000 C 
ATOM     14  C   UNL     1       5.495   3.299  12.053  0.00  0.00    +0.000 C 
ATOM     15  C   UNL     1       6.840   3.696  11.520  0.00  0.00    +0.000 C 
ENDBRANCH  11  13
ENDBRANCH   1  11
BRANCH   3  16
ATOM     16  O   UNL     1       3.157   3.603  17.347  0.00  0.00    +0.000 OA
BRANCH  16  17
ATOM     17  C   UNL     1       2.694   3.424  18.637  0.00  0.00    +0.000 A 
ATOM     18  C   UNL     1       1.446   3.937  18.941  0.00  0.00    +0.000 A 
ATOM     19  C   UNL     1       0.981   3.795  20.245  0.00  0.00    +0.000 A 
ATOM     20  C   UNL     1       1.767   3.134  21.184  0.00  0.00    +0.000 A 
ATOM     21  C   UNL     1       2.991   2.632  20.776  0.00  0.00    +0.000 A 
ATOM     22  N   UNL     1       3.471   2.759  19.520  0.00  0.00    +0.000 NA
ENDBRANCH  16  17
ENDBRANCH   3  16
TORSDOF 4
ENDMDL
MODEL 9
REMARK VINA RESULT:      -6.6      2.909      5.348
REMARK  Name = 
REMARK  4 active torsions:
REMARK  status: ('A' for Active; 'I' for Inactive)
REMARK    1  A    between atoms: S_2  and  C_4
REMARK    2  A    between atoms: S_2  and  N_7
REMARK    3  A    between atoms: C_9  and  O_10
REMARK    4  A    between atoms: O_10  and  C_11
REMARK                            x       y       z     vdW  Elec       q    Type
REMARK                         _______ _______ _______ _____ _____    ______ ____
ROOT
ATOM      1  N   UNL     1       3.568   4.395  18.818  0.00  0.00    +0.000 NA
ATOM      2  C   UNL     1       2.783   5.686  18.765  0.00  0.00    +0.000 C 
ATOM      3  C   UNL     1       3.685   6.727  18.082  0.00  0.00    +0.000 C 
ATOM      4  C   UNL     1       4.537   5.848  17.164  0.00  0.00    +0.000 C 
ATOM      5  O   UNL     1       5.702   6.467  16.619  0.00  0.00    +0.000 OA
ATOM      6  C   UNL     1       6.698   6.845  17.562  0.00  0.00    +0.000 C 
ATOM      7  C   UNL     1       7.127   5.684  18.449  0.00  0.00    +0.000 C 
ATOM      8  C   UNL     1       5.942   4.982  19.098  0.00  0.00    +0.000 C 
ATOM      9  C   UNL     1       4.848   4.656  18.073  0.00  0.00    +0.000 C 
ENDROOT
BRANCH   1  11
ATOM     10  O   UNL     1       3.744   1.995  18.003  0.00  0.00    +0.000 OA
ATOM     11  S   UNL     1       2.741   3.001  18.284  0.00  0.00    +0.000 S 
ATOM     12  O   UNL     1       1.818   3.421  17.248  0.00  0.00    +0.000 OA
BRANCH  11  13
ATOM     13  C   UNL     1       1.725   2.288  19.608  0.00  0.00    +0.000 C 
ATOM     14  C   UNL     1       2.182   2.688  20.990  0.00  0.00    +0.000 C 
ATOM     15  C   UNL     1       0.882   3.206  20.448  0.00  0.00    +0.000 C 
ENDBRANCH  11  13
ENDBRANCH   1  11
BRANCH   3  16
ATOM     16  O   UNL     1       2.960   7.699  17.328  0.00  0.00    +0.000 OA
BRANCH  16  17
ATOM     17  C   UNL     1       2.220   8.524  18.153  0.00  0.00    +0.000 A 
ATOM     18  C   UNL     1       1.992   8.091  19.446  0.00  0.00    +0.000 A 
ATOM     19  C   UNL     1       1.219   8.895  20.279  0.00  0.00    +0.000 A 
ATOM     20  C   UNL     1       0.722  10.101  19.796  0.00  0.00    +0.000 A 
ATOM     21  C   UNL     1       1.027  10.461  18.495  0.00  0.00    +0.000 A 
ATOM     22  N   UNL     1       1.769   9.700  17.662  0.00  0.00    +0.000 NA
ENDBRANCH  16  17
ENDBRANCH   3  16
TORSDOF 4
ENDMDL
