MODEL 1
REMARK VINA RESULT:      -8.9      0.000      0.000
REMARK  Name = 
REMARK  7 active torsions:
REMARK  status: ('A' for Active; 'I' for Inactive)
REMARK    1  A    between atoms: C_1  and  C_2
REMARK    2  A    between atoms: C_4  and  C_5
REMARK    3  A    between atoms: C_11  and  N_12
REMARK    4  A    between atoms: N_12  and  C_13
REMARK    5  A    between atoms: C_17  and  N_18
REMARK    6  A    between atoms: C_19  and  C_21
REMARK    7  A    between atoms: C_26  and  C_27
REMARK                            x       y       z     vdW  Elec       q    Type
REMARK                         _______ _______ _______ _____ _____    ______ ____
ROOT
ATOM      1  C   UNL     1       7.042   4.871  17.021  0.00  0.00    +0.000 C 
ATOM      2  C   UNL     1       7.933   5.520  18.086  0.00  0.00    +0.000 C 
ATOM      3  C   UNL     1       7.688   7.025  17.966  0.00  0.00    +0.000 C 
ATOM      4  C   UNL     1       6.373   7.193  17.205  0.00  0.00    +0.000 C 
ATOM      5  C   UNL     1       5.787   5.787  17.059  0.00  0.00    +0.000 C 
ENDROOT
BRANCH   5   6
ATOM      6  N   UNL     1       4.894   5.462  18.166  0.00  0.00    +0.000 N 
ATOM      7  C   UNL     1       3.823   4.603  18.006  0.00  0.00    +0.000 C 
ATOM      8  O   UNL     1       3.468   4.173  16.916  0.00  0.00    +0.000 OA
ATOM      9  H   UNL     1       5.031   5.862  19.090  0.00  0.00    +0.000 HD
BRANCH   7  10
ATOM     10  C   UNL     1       3.095   4.277  19.283  0.00  0.00    +0.000 A 
ATOM     11  N   UNL     1       3.207   2.953  19.640  0.00  0.00    +0.000 NA
ATOM     12  C   UNL     1       2.702   2.600  20.838  0.00  0.00    +0.000 A 
ATOM     13  C   UNL     1       2.070   3.484  21.692  0.00  0.00    +0.000 A 
ATOM     14  C   UNL     1       1.924   4.807  21.282  0.00  0.00    +0.000 A 
ATOM     15  C   UNL     1       2.426   5.245  20.039  0.00  0.00    +0.000 A 
BRANCH  15  16
ATOM     16  C   UNL     1       2.180   6.615  19.586  0.00  0.00    +0.000 A 
ATOM     17  N   UNL     1       1.676   7.487  20.486  0.00  0.00    +0.000 NA
ATOM     18  C   UNL     1       1.429   8.733  20.039  0.00  0.00    +0.000 A 
ATOM     19  C   UNL     1       1.660   9.135  18.746  0.00  0.00    +0.000 A 
ATOM     20  C   UNL     1       2.136   8.162  17.899  0.00  0.00    +0.000 A 
ATOM     21  N   UNL     1       2.356   6.892  18.283  0.00  0.00    +0.000 NA
ENDBRANCH  15  16
ENDBRANCH   7  10
ENDBRANCH   5   6
BRANCH   1  22
ATOM     22  N   UNL     1       7.688   4.934  15.694  0.00  0.00    +0.000 N 
ATOM     23  H   UNL     1       7.989   5.882  15.484  0.00  0.00    +0.000 HD
BRANCH  22  30
ATOM     24  C   UNL     1       8.515   5.683  13.041  0.00  0.00    +0.000 C 
ATOM     25  C   UNL     1       7.285   4.862  13.306  0.00  0.00    +0.000 A 
ATOM     26  C   UNL     1       6.500   4.424  12.229  0.00  0.00    +0.000 A 
ATOM     27  C   UNL     1       5.364   3.648  12.459  0.00  0.00    +0.000 A 
ATOM     28  C   UNL     1       5.062   3.352  13.775  0.00  0.00    +0.000 A 
ATOM     29  N   UNL     1       5.804   3.750  14.832  0.00  0.00    +0.000 NA
ATOM     30  C   UNL     1       6.901   4.505  14.608  0.00  0.00    +0.000 A 
BRANCH  27  31
ATOM     31  C   UNL     1       4.494   3.124  11.363  0.00  0.00    +0.000 C 
ATOM     32  F   UNL     1       3.233   2.809  11.770  0.00  0.00    +0.000 F 
ATOM     33  F   UNL     1       4.343   4.017  10.345  0.00  0.00    +0.000 F 
ATOM     34  F   UNL     1       4.994   1.993  10.793  0.00  0.00    +0.000 F 
ENDBRANCH  27  31
ENDBRANCH  22  30
ENDBRANCH   1  22
TORSDOF 6
ENDMDL
MODEL 2
REMARK VINA RESULT:      -8.8      0.208      1.089
REMARK  Name = 
REMARK  7 active torsions:
REMARK  status: ('A' for Active; 'I' for Inactive)
REMARK    1  A    between atoms: C_1  and  C_2
REMARK    2  A    between atoms: C_4  and  C_5
REMARK    3  A    between atoms: C_11  and  N_12
REMARK    4  A    between atoms: N_12  and  C_13
REMARK    5  A    between atoms: C_17  and  N_18
REMARK    6  A    between atoms: C_19  and  C_21
REMARK    7  A    between atoms: C_26  and  C_27
REMARK                            x       y       z     vdW  Elec       q    Type
REMARK                         _______ _______ _______ _____ _____    ______ ____
ROOT
ATOM      1  C   UNL     1       6.960   5.056  16.959  0.00  0.00    +0.000 C 
ATOM      2  C   UNL     1       7.946   5.433  18.072  0.00  0.00    +0.000 C 
ATOM      3  C   UNL     1       7.875   6.957  18.185  0.00  0.00    +0.000 C 
ATOM      4  C   UNL     1       6.571   7.384  17.511  0.00  0.00    +0.000 C 
ATOM      5  C   UNL     1       5.822   6.091  17.183  0.00  0.00    +0.000 C 
ENDROOT
BRANCH   5   6
ATOM      6  N   UNL     1       4.923   5.704  18.264  0.00  0.00    +0.000 N 
ATOM      7  C   UNL     1       3.891   4.806  18.065  0.00  0.00    +0.000 C 
ATOM      8  O   UNL     1       3.575   4.387  16.959  0.00  0.00    +0.000 OA
ATOM      9  H   UNL     1       5.026   6.088  19.200  0.00  0.00    +0.000 HD
BRANCH   7  10
ATOM     10  C   UNL     1       3.154   4.421  19.320  0.00  0.00    +0.000 A 
ATOM     11  N   UNL     1       3.343   3.103  19.669  0.00  0.00    +0.000 NA
ATOM     12  C   UNL     1       2.832   2.707  20.851  0.00  0.00    +0.000 A 
ATOM     13  C   UNL     1       2.123   3.539  21.695  0.00  0.00    +0.000 A 
ATOM     14  C   UNL     1       1.901   4.854  21.292  0.00  0.00    +0.000 A 
ATOM     15  C   UNL     1       2.405   5.336  20.066  0.00  0.00    +0.000 A 
BRANCH  15  16
ATOM     16  C   UNL     1       2.082   6.692  19.618  0.00  0.00    +0.000 A 
ATOM     17  N   UNL     1       2.314   6.992  18.322  0.00  0.00    +0.000 NA
ATOM     18  C   UNL     1       2.038   8.253  17.940  0.00  0.00    +0.000 A 
ATOM     19  C   UNL     1       1.549   9.214  18.792  0.00  0.00    +0.000 A 
ATOM     20  C   UNL     1       1.386   8.819  20.099  0.00  0.00    +0.000 A 
ATOM     21  N   UNL     1       1.689   7.586  20.541  0.00  0.00    +0.000 NA
ENDBRANCH  15  16
ENDBRANCH   7  10
ENDBRANCH   5   6
BRANCH   1  22
ATOM     22  N   UNL     1       7.578   5.247  15.631  0.00  0.00    +0.000 N 
ATOM     23  H   UNL     1       7.723   6.235  15.439  0.00  0.00    +0.000 HD
BRANCH  22  30
ATOM     24  C   UNL     1       8.616   5.694  12.984  0.00  0.00    +0.000 C 
ATOM     25  C   UNL     1       7.350   4.928  13.240  0.00  0.00    +0.000 A 
ATOM     26  C   UNL     1       6.634   4.392  12.159  0.00  0.00    +0.000 A 
ATOM     27  C   UNL     1       5.465   3.665  12.383  0.00  0.00    +0.000 A 
ATOM     28  C   UNL     1       5.061   3.516  13.697  0.00  0.00    +0.000 A 
ATOM     29  N   UNL     1       5.733   4.011  14.758  0.00  0.00    +0.000 NA
ATOM     30  C   UNL     1       6.862   4.719  14.540  0.00  0.00    +0.000 A 
BRANCH  27  31
ATOM     31  C   UNL     1       4.664   3.042  11.286  0.00  0.00    +0.000 C 
ATOM     32  F   UNL     1       4.522   3.842  10.193  0.00  0.00    +0.000 F 
ATOM     33  F   UNL     1       5.218   1.885  10.829  0.00  0.00    +0.000 F 
ATOM     34  F   UNL     1       3.401   2.720  11.678  0.00  0.00    +0.000 F 
ENDBRANCH  27  31
ENDBRANCH  22  30
ENDBRANCH   1  22
TORSDOF 6
ENDMDL
MODEL 3
REMARK VINA RESULT:      -8.8      1.147      3.038
REMARK  Name = 
REMARK  7 active torsions:
REMARK  status: ('A' for Active; 'I' for Inactive)
REMARK    1  A    between atoms: C_1  and  C_2
REMARK    2  A    between atoms: C_4  and  C_5
REMARK    3  A    between atoms: C_11  and  N_12
REMARK    4  A    between atoms: N_12  and  C_13
REMARK    5  A    between atoms: C_17  and  N_18
REMARK    6  A    between atoms: C_19  and  C_21
REMARK    7  A    between atoms: C_26  and  C_27
REMARK                            x       y       z     vdW  Elec       q    Type
REMARK                         _______ _______ _______ _____ _____    ______ ____
ROOT
ATOM      1  C   UNL     1       6.780   5.532  17.037  0.00  0.00    +0.000 C 
ATOM      2  C   UNL     1       7.722   5.600  18.245  0.00  0.00    +0.000 C 
ATOM      3  C   UNL     1       8.212   7.048  18.304  0.00  0.00    +0.000 C 
ATOM      4  C   UNL     1       7.232   7.874  17.471  0.00  0.00    +0.000 C 
ATOM      5  C   UNL     1       6.091   6.924  17.097  0.00  0.00    +0.000 C 
ENDROOT
BRANCH   5   6
ATOM      6  N   UNL     1       5.013   6.971  18.078  0.00  0.00    +0.000 N 
ATOM      7  C   UNL     1       3.830   6.279  17.891  0.00  0.00    +0.000 C 
ATOM      8  O   UNL     1       3.550   5.706  16.847  0.00  0.00    +0.000 OA
ATOM      9  H   UNL     1       5.098   7.517  18.932  0.00  0.00    +0.000 HD
BRANCH   7  10
ATOM     10  C   UNL     1       2.890   6.331  19.066  0.00  0.00    +0.000 A 
ATOM     11  N   UNL     1       2.599   7.617  19.462  0.00  0.00    +0.000 NA
ATOM     12  C   UNL     1       1.660   7.762  20.417  0.00  0.00    +0.000 A 
ATOM     13  C   UNL     1       1.011   6.700  21.019  0.00  0.00    +0.000 A 
ATOM     14  C   UNL     1       1.363   5.409  20.636  0.00  0.00    +0.000 A 
ATOM     15  C   UNL     1       2.340   5.183  19.643  0.00  0.00    +0.000 A 
BRANCH  15  16
ATOM     16  C   UNL     1       2.762   3.819  19.321  0.00  0.00    +0.000 A 
ATOM     17  N   UNL     1       3.880   3.355  19.921  0.00  0.00    +0.000 NA
ATOM     18  C   UNL     1       4.266   2.109  19.587  0.00  0.00    +0.000 A 
ATOM     19  C   UNL     1       3.590   1.321  18.687  0.00  0.00    +0.000 A 
ATOM     20  C   UNL     1       2.489   1.900  18.103  0.00  0.00    +0.000 A 
ATOM     21  N   UNL     1       2.087   3.156  18.367  0.00  0.00    +0.000 NA
ENDBRANCH  15  16
ENDBRANCH   7  10
ENDBRANCH   5   6
BRANCH   1  22
ATOM     22  N   UNL     1       7.549   5.389  15.785  0.00  0.00    +0.000 N 
ATOM     23  H   UNL     1       7.905   6.290  15.475  0.00  0.00    +0.000 HD
BRANCH  22  30
ATOM     24  C   UNL     1       8.653   5.727  13.148  0.00  0.00    +0.000 C 
ATOM     25  C   UNL     1       7.372   4.985  13.403  0.00  0.00    +0.000 A 
ATOM     26  C   UNL     1       6.675   4.418  12.325  0.00  0.00    +0.000 A 
ATOM     27  C   UNL     1       5.493   3.713  12.548  0.00  0.00    +0.000 A 
ATOM     28  C   UNL     1       5.056   3.617  13.856  0.00  0.00    +0.000 A 
ATOM     29  N   UNL     1       5.709   4.144  14.914  0.00  0.00    +0.000 NA
ATOM     30  C   UNL     1       6.852   4.830  14.697  0.00  0.00    +0.000 A 
BRANCH  27  31
ATOM     31  C   UNL     1       4.710   3.060  11.455  0.00  0.00    +0.000 C 
ATOM     32  F   UNL     1       4.606   3.819  10.329  0.00  0.00    +0.000 F 
ATOM     33  F   UNL     1       5.256   1.878  11.057  0.00  0.00    +0.000 F 
ATOM     34  F   UNL     1       3.432   2.771  11.828  0.00  0.00    +0.000 F 
ENDBRANCH  27  31
ENDBRANCH  22  30
ENDBRANCH   1  22
TORSDOF 6
ENDMDL
MODEL 4
REMARK VINA RESULT:      -8.7      1.157      3.012
REMARK  Name = 
REMARK  7 active torsions:
REMARK  status: ('A' for Active; 'I' for Inactive)
REMARK    1  A    between atoms: C_1  and  C_2
REMARK    2  A    between atoms: C_4  and  C_5
REMARK    3  A    between atoms: C_11  and  N_12
REMARK    4  A    between atoms: N_12  and  C_13
REMARK    5  A    between atoms: C_17  and  N_18
REMARK    6  A    between atoms: C_19  and  C_21
REMARK    7  A    between atoms: C_26  and  C_27
REMARK                            x       y       z     vdW  Elec       q    Type
REMARK                         _______ _______ _______ _____ _____    ______ ____
ROOT
ATOM      1  C   UNL     1       6.771   5.587  17.017  0.00  0.00    +0.000 C 
ATOM      2  C   UNL     1       7.722   5.624  18.219  0.00  0.00    +0.000 C 
ATOM      3  C   UNL     1       8.216   7.070  18.309  0.00  0.00    +0.000 C 
ATOM      4  C   UNL     1       7.231   7.917  17.503  0.00  0.00    +0.000 C 
ATOM      5  C   UNL     1       6.086   6.979  17.115  0.00  0.00    +0.000 C 
ENDROOT
BRANCH   5   6
ATOM      6  N   UNL     1       5.015   7.005  18.104  0.00  0.00    +0.000 N 
ATOM      7  C   UNL     1       3.817   6.348  17.895  0.00  0.00    +0.000 C 
ATOM      8  O   UNL     1       3.518   5.828  16.828  0.00  0.00    +0.000 OA
ATOM      9  H   UNL     1       5.117   7.510  18.980  0.00  0.00    +0.000 HD
BRANCH   7  10
ATOM     10  C   UNL     1       2.885   6.367  19.077  0.00  0.00    +0.000 A 
ATOM     11  N   UNL     1       2.581   7.641  19.499  0.00  0.00    +0.000 NA
ATOM     12  C   UNL     1       1.648   7.758  20.463  0.00  0.00    +0.000 A 
ATOM     13  C   UNL     1       1.017   6.678  21.050  0.00  0.00    +0.000 A 
ATOM     14  C   UNL     1       1.381   5.398  20.641  0.00  0.00    +0.000 A 
ATOM     15  C   UNL     1       2.353   5.202  19.637  0.00  0.00    +0.000 A 
BRANCH  15  16
ATOM     16  C   UNL     1       2.790   3.849  19.289  0.00  0.00    +0.000 A 
ATOM     17  N   UNL     1       2.046   3.166  18.392  0.00  0.00    +0.000 NA
ATOM     18  C   UNL     1       2.449   1.913  18.109  0.00  0.00    +0.000 A 
ATOM     19  C   UNL     1       3.549   1.322  18.683  0.00  0.00    +0.000 A 
ATOM     20  C   UNL     1       4.214   2.086  19.612  0.00  0.00    +0.000 A 
ATOM     21  N   UNL     1       3.827   3.325  19.963  0.00  0.00    +0.000 NA
ENDBRANCH  15  16
ENDBRANCH   7  10
ENDBRANCH   5   6
BRANCH   1  22
ATOM     22  N   UNL     1       7.532   5.473  15.756  0.00  0.00    +0.000 N 
ATOM     23  H   UNL     1       7.849   6.386  15.441  0.00  0.00    +0.000 HD
BRANCH  22  30
ATOM     24  C   UNL     1       8.676   5.714  13.126  0.00  0.00    +0.000 C 
ATOM     25  C   UNL     1       7.384   4.994  13.385  0.00  0.00    +0.000 A 
ATOM     26  C   UNL     1       6.696   4.399  12.317  0.00  0.00    +0.000 A 
ATOM     27  C   UNL     1       5.504   3.713  12.545  0.00  0.00    +0.000 A 
ATOM     28  C   UNL     1       5.047   3.664  13.849  0.00  0.00    +0.000 A 
ATOM     29  N   UNL     1       5.691   4.218  14.899  0.00  0.00    +0.000 NA
ATOM     30  C   UNL     1       6.844   4.885  14.677  0.00  0.00    +0.000 A 
BRANCH  27  31
ATOM     31  C   UNL     1       4.730   3.033  11.462  0.00  0.00    +0.000 C 
ATOM     32  F   UNL     1       3.447   2.738  11.811  0.00  0.00    +0.000 F 
ATOM     33  F   UNL     1       4.642   3.787  10.332  0.00  0.00    +0.000 F 
ATOM     34  F   UNL     1       5.292   1.853  11.079  0.00  0.00    +0.000 F 
ENDBRANCH  27  31
ENDBRANCH  22  30
ENDBRANCH   1  22
TORSDOF 6
ENDMDL
MODEL 5
REMARK VINA RESULT:      -8.6      4.425      5.954
REMARK  Name = 
REMARK  7 active torsions:
REMARK  status: ('A' for Active; 'I' for Inactive)
REMARK    1  A    between atoms: C_1  and  C_2
REMARK    2  A    between atoms: C_4  and  C_5
REMARK    3  A    between atoms: C_11  and  N_12
REMARK    4  A    between atoms: N_12  and  C_13
REMARK    5  A    between atoms: C_17  and  N_18
REMARK    6  A    between atoms: C_19  and  C_21
REMARK    7  A    between atoms: C_26  and  C_27
REMARK                            x       y       z     vdW  Elec       q    Type
REMARK                         _______ _______ _______ _____ _____    ______ ____
ROOT
ATOM      1  C   UNL     1       5.980   6.099  16.862  0.00  0.00    +0.000 C 
ATOM      2  C   UNL     1       5.064   6.195  15.636  0.00  0.00    +0.000 C 
ATOM      3  C   UNL     1       5.368   4.951  14.798  0.00  0.00    +0.000 C 
ATOM      4  C   UNL     1       6.065   3.959  15.727  0.00  0.00    +0.000 C 
ATOM      5  C   UNL     1       5.988   4.567  17.129  0.00  0.00    +0.000 C 
ENDROOT
BRANCH   5   6
ATOM      6  N   UNL     1       4.798   4.120  17.843  0.00  0.00    +0.000 N 
ATOM      7  C   UNL     1       4.588   4.431  19.173  0.00  0.00    +0.000 C 
ATOM      8  O   UNL     1       5.434   4.971  19.874  0.00  0.00    +0.000 OA
ATOM      9  H   UNL     1       4.084   3.561  17.382  0.00  0.00    +0.000 HD
BRANCH   7  10
ATOM     10  C   UNL     1       3.246   4.005  19.706  0.00  0.00    +0.000 A 
ATOM     11  N   UNL     1       3.198   2.668  20.029  0.00  0.00    +0.000 NA
ATOM     12  C   UNL     1       2.081   2.229  20.640  0.00  0.00    +0.000 A 
ATOM     13  C   UNL     1       0.997   3.038  20.925  0.00  0.00    +0.000 A 
ATOM     14  C   UNL     1       1.051   4.375  20.539  0.00  0.00    +0.000 A 
ATOM     15  C   UNL     1       2.190   4.902  19.893  0.00  0.00    +0.000 A 
BRANCH  15  16
ATOM     16  C   UNL     1       2.190   6.284  19.413  0.00  0.00    +0.000 A 
ATOM     17  N   UNL     1       1.790   7.244  20.274  0.00  0.00    +0.000 NA
ATOM     18  C   UNL     1       1.769   8.504  19.801  0.00  0.00    +0.000 A 
ATOM     19  C   UNL     1       2.125   8.838  18.516  0.00  0.00    +0.000 A 
ATOM     20  C   UNL     1       2.478   7.784  17.707  0.00  0.00    +0.000 A 
ATOM     21  N   UNL     1       2.472   6.503  18.117  0.00  0.00    +0.000 NA
ENDBRANCH  15  16
ENDBRANCH   7  10
ENDBRANCH   5   6
BRANCH   1  22
ATOM     22  N   UNL     1       7.339   6.574  16.534  0.00  0.00    +0.000 N 
ATOM     23  H   UNL     1       8.009   5.810  16.577  0.00  0.00    +0.000 HD
BRANCH  22  30
ATOM     24  C   UNL     1       8.288   5.879  19.161  0.00  0.00    +0.000 C 
ATOM     25  C   UNL     1       8.307   7.287  18.638  0.00  0.00    +0.000 A 
ATOM     26  C   UNL     1       8.814   8.318  19.444  0.00  0.00    +0.000 A 
ATOM     27  C   UNL     1       8.852   9.627  18.965  0.00  0.00    +0.000 A 
ATOM     28  C   UNL     1       8.367   9.844  17.689  0.00  0.00    +0.000 A 
ATOM     29  N   UNL     1       7.882   8.871  16.886  0.00  0.00    +0.000 NA
ATOM     30  C   UNL     1       7.842   7.604  17.352  0.00  0.00    +0.000 A 
BRANCH  27  31
ATOM     31  C   UNL     1       9.400  10.772  19.754  0.00  0.00    +0.000 C 
ATOM     32  F   UNL     1       9.295  10.607  21.102  0.00  0.00    +0.000 F 
ATOM     33  F   UNL     1      10.722  10.988  19.509  0.00  0.00    +0.000 F 
ATOM     34  F   UNL     1       8.773  11.948  19.473  0.00  0.00    +0.000 F 
ENDBRANCH  27  31
ENDBRANCH  22  30
ENDBRANCH   1  22
TORSDOF 6
ENDMDL
MODEL 6
REMARK VINA RESULT:      -8.6      5.458      9.023
REMARK  Name = 
REMARK  7 active torsions:
REMARK  status: ('A' for Active; 'I' for Inactive)
REMARK    1  A    between atoms: C_1  and  C_2
REMARK    2  A    between atoms: C_4  and  C_5
REMARK    3  A    between atoms: C_11  and  N_12
REMARK    4  A    between atoms: N_12  and  C_13
REMARK    5  A    between atoms: C_17  and  N_18
REMARK    6  A    between atoms: C_19  and  C_21
REMARK    7  A    between atoms: C_26  and  C_27
REMARK                            x       y       z     vdW  Elec       q    Type
REMARK                         _______ _______ _______ _____ _____    ______ ____
ROOT
ATOM      1  C   UNL     1      -0.199   9.549  20.741  0.00  0.00    +0.000 C 
ATOM      2  C   UNL     1      -0.653   8.814  22.008  0.00  0.00    +0.000 C 
ATOM      3  C   UNL     1      -0.366   9.773  23.165  0.00  0.00    +0.000 C 
ATOM      4  C   UNL     1      -0.205  11.163  22.550  0.00  0.00    +0.000 C 
ATOM      5  C   UNL     1      -0.583  11.018  21.074  0.00  0.00    +0.000 C 
ENDROOT
BRANCH   5   6
ATOM      6  N   UNL     1      -2.000  11.285  20.856  0.00  0.00    +0.000 N 
ATOM      7  C   UNL     1      -2.429  12.377  20.124  0.00  0.00    +0.000 C 
ATOM      8  O   UNL     1      -1.674  13.258  19.734  0.00  0.00    +0.000 OA
ATOM      9  H   UNL     1      -2.719  10.677  21.240  0.00  0.00    +0.000 HD
BRANCH   7  10
ATOM     10  C   UNL     1      -3.915  12.418  19.886  0.00  0.00    +0.000 A 
ATOM     11  N   UNL     1      -4.612  12.965  20.940  0.00  0.00    +0.000 NA
ATOM     12  C   UNL     1      -5.931  13.167  20.760  0.00  0.00    +0.000 A 
ATOM     13  C   UNL     1      -6.603  12.834  19.600  0.00  0.00    +0.000 A 
ATOM     14  C   UNL     1      -5.885  12.233  18.569  0.00  0.00    +0.000 A 
ATOM     15  C   UNL     1      -4.500  11.990  18.691  0.00  0.00    +0.000 A 
BRANCH  15  16
ATOM     16  C   UNL     1      -3.783  11.275  17.635  0.00  0.00    +0.000 A 
ATOM     17  N   UNL     1      -4.187  11.473  16.362  0.00  0.00    +0.000 NA
ATOM     18  C   UNL     1      -3.532  10.781  15.410  0.00  0.00    +0.000 A 
ATOM     19  C   UNL     1      -2.505   9.908  15.678  0.00  0.00    +0.000 A 
ATOM     20  C   UNL     1      -2.198   9.746  17.008  0.00  0.00    +0.000 A 
ATOM     21  N   UNL     1      -2.850  10.379  17.999  0.00  0.00    +0.000 NA
ENDBRANCH  15  16
ENDBRANCH   7  10
ENDBRANCH   5   6
BRANCH   1  22
ATOM     22  N   UNL     1       1.262   9.425  20.565  0.00  0.00    +0.000 N 
ATOM     23  H   UNL     1       1.636  10.230  20.068  0.00  0.00    +0.000 HD
BRANCH  22  30
ATOM     24  C   UNL     1       1.872   9.681  17.763  0.00  0.00    +0.000 C 
ATOM     25  C   UNL     1       2.001   8.382  18.506  0.00  0.00    +0.000 A 
ATOM     26  C   UNL     1       2.445   7.237  17.827  0.00  0.00    +0.000 A 
ATOM     27  C   UNL     1       2.584   6.028  18.507  0.00  0.00    +0.000 A 
ATOM     28  C   UNL     1       2.260   6.023  19.851  0.00  0.00    +0.000 A 
ATOM     29  N   UNL     1       1.840   7.110  20.534  0.00  0.00    +0.000 NA
ATOM     30  C   UNL     1       1.701   8.279  19.874  0.00  0.00    +0.000 A 
BRANCH  27  31
ATOM     31  C   UNL     1       3.075   4.775  17.858  0.00  0.00    +0.000 C 
ATOM     32  F   UNL     1       3.706   3.926  18.716  0.00  0.00    +0.000 F 
ATOM     33  F   UNL     1       2.068   4.051  17.295  0.00  0.00    +0.000 F 
ATOM     34  F   UNL     1       3.964   5.018  16.855  0.00  0.00    +0.000 F 
ENDBRANCH  27  31
ENDBRANCH  22  30
ENDBRANCH   1  22
TORSDOF 6
ENDMDL
MODEL 7
REMARK VINA RESULT:      -8.5      5.274      8.629
REMARK  Name = 
REMARK  7 active torsions:
REMARK  status: ('A' for Active; 'I' for Inactive)
REMARK    1  A    between atoms: C_1  and  C_2
REMARK    2  A    between atoms: C_4  and  C_5
REMARK    3  A    between atoms: C_11  and  N_12
REMARK    4  A    between atoms: N_12  and  C_13
REMARK    5  A    between atoms: C_17  and  N_18
REMARK    6  A    between atoms: C_19  and  C_21
REMARK    7  A    between atoms: C_26  and  C_27
REMARK                            x       y       z     vdW  Elec       q    Type
REMARK                         _______ _______ _______ _____ _____    ______ ____
ROOT
ATOM      1  C   UNL     1       0.312   8.561  20.654  0.00  0.00    +0.000 C 
ATOM      2  C   UNL     1      -0.292   8.442  22.058  0.00  0.00    +0.000 C 
ATOM      3  C   UNL     1       0.157   9.698  22.807  0.00  0.00    +0.000 C 
ATOM      4  C   UNL     1       0.589  10.708  21.745  0.00  0.00    +0.000 C 
ATOM      5  C   UNL     1       0.210  10.091  20.396  0.00  0.00    +0.000 C 
ENDROOT
BRANCH   5   6
ATOM      6  N   UNL     1      -1.127  10.497  19.979  0.00  0.00    +0.000 N 
ATOM      7  C   UNL     1      -1.345  11.676  19.289  0.00  0.00    +0.000 C 
ATOM      8  O   UNL     1      -0.473  12.515  19.107  0.00  0.00    +0.000 OA
ATOM      9  H   UNL     1      -1.942   9.926  20.185  0.00  0.00    +0.000 HD
BRANCH   7  10
ATOM     10  C   UNL     1      -2.764  11.865  18.820  0.00  0.00    +0.000 A 
ATOM     11  N   UNL     1      -2.964  11.431  17.530  0.00  0.00    +0.000 NA
ATOM     12  C   UNL     1      -4.231  11.436  17.075  0.00  0.00    +0.000 A 
ATOM     13  C   UNL     1      -5.310  11.872  17.822  0.00  0.00    +0.000 A 
ATOM     14  C   UNL     1      -5.072  12.356  19.106  0.00  0.00    +0.000 A 
ATOM     15  C   UNL     1      -3.768  12.381  19.645  0.00  0.00    +0.000 A 
BRANCH  15  16
ATOM     16  C   UNL     1      -3.526  12.979  20.959  0.00  0.00    +0.000 A 
ATOM     17  N   UNL     1      -3.976  12.309  22.041  0.00  0.00    +0.000 NA
ATOM     18  C   UNL     1      -3.770  12.893  23.237  0.00  0.00    +0.000 A 
ATOM     19  C   UNL     1      -3.142  14.105  23.390  0.00  0.00    +0.000 A 
ATOM     20  C   UNL     1      -2.758  14.725  22.225  0.00  0.00    +0.000 A 
ATOM     21  N   UNL     1      -2.981  14.207  21.004  0.00  0.00    +0.000 NA
ENDBRANCH  15  16
ENDBRANCH   7  10
ENDBRANCH   5   6
BRANCH   1  22
ATOM     22  N   UNL     1       1.725   8.131  20.657  0.00  0.00    +0.000 N 
ATOM     23  H   UNL     1       2.320   8.841  20.239  0.00  0.00    +0.000 HD
BRANCH  22  30
ATOM     24  C   UNL     1       2.653   8.268  17.936  0.00  0.00    +0.000 C 
ATOM     25  C   UNL     1       2.450   6.967  18.659  0.00  0.00    +0.000 A 
ATOM     26  C   UNL     1       2.728   5.759  18.002  0.00  0.00    +0.000 A 
ATOM     27  C   UNL     1       2.560   4.545  18.666  0.00  0.00    +0.000 A 
ATOM     28  C   UNL     1       2.106   4.600  19.971  0.00  0.00    +0.000 A 
ATOM     29  N   UNL     1       1.839   5.747  20.633  0.00  0.00    +0.000 NA
ATOM     30  C   UNL     1       1.999   6.922  19.988  0.00  0.00    +0.000 A 
BRANCH  27  31
ATOM     31  C   UNL     1       2.859   3.221  18.041  0.00  0.00    +0.000 C 
ATOM     32  F   UNL     1       2.467   3.129  16.741  0.00  0.00    +0.000 F 
ATOM     33  F   UNL     1       4.190   2.931  18.049  0.00  0.00    +0.000 F 
ATOM     34  F   UNL     1       2.250   2.188  18.687  0.00  0.00    +0.000 F 
ENDBRANCH  27  31
ENDBRANCH  22  30
ENDBRANCH   1  22
TORSDOF 6
ENDMDL
MODEL 8
REMARK VINA RESULT:      -8.4      5.027      8.397
REMARK  Name = 
REMARK  7 active torsions:
REMARK  status: ('A' for Active; 'I' for Inactive)
REMARK    1  A    between atoms: C_1  and  C_2
REMARK    2  A    between atoms: C_4  and  C_5
REMARK    3  A    between atoms: C_11  and  N_12
REMARK    4  A    between atoms: N_12  and  C_13
REMARK    5  A    between atoms: C_17  and  N_18
REMARK    6  A    between atoms: C_19  and  C_21
REMARK    7  A    between atoms: C_26  and  C_27
REMARK                            x       y       z     vdW  Elec       q    Type
REMARK                         _______ _______ _______ _____ _____    ______ ____
ROOT
ATOM      1  C   UNL     1       0.546   8.351  20.572  0.00  0.00    +0.000 C 
ATOM      2  C   UNL     1       0.013   8.354  22.010  0.00  0.00    +0.000 C 
ATOM      3  C   UNL     1       0.585   9.616  22.659  0.00  0.00    +0.000 C 
ATOM      4  C   UNL     1       1.024  10.532  21.516  0.00  0.00    +0.000 C 
ATOM      5  C   UNL     1       0.532   9.867  20.229  0.00  0.00    +0.000 C 
ENDROOT
BRANCH   5   6
ATOM      6  N   UNL     1      -0.796  10.342  19.856  0.00  0.00    +0.000 N 
ATOM      7  C   UNL     1      -0.970  11.416  19.003  0.00  0.00    +0.000 C 
ATOM      8  O   UNL     1      -0.046  12.121  18.620  0.00  0.00    +0.000 OA
ATOM      9  H   UNL     1      -1.636   9.897  20.215  0.00  0.00    +0.000 HD
BRANCH   7  10
ATOM     10  C   UNL     1      -2.402  11.678  18.621  0.00  0.00    +0.000 A 
ATOM     11  N   UNL     1      -2.712  11.224  17.359  0.00  0.00    +0.000 NA
ATOM     12  C   UNL     1      -4.004  11.293  16.986  0.00  0.00    +0.000 A 
ATOM     13  C   UNL     1      -5.004  11.811  17.788  0.00  0.00    +0.000 A 
ATOM     14  C   UNL     1      -4.654  12.311  19.040  0.00  0.00    +0.000 A 
ATOM     15  C   UNL     1      -3.319  12.272  19.493  0.00  0.00    +0.000 A 
BRANCH  15  16
ATOM     16  C   UNL     1      -2.957  12.887  20.771  0.00  0.00    +0.000 A 
ATOM     17  N   UNL     1      -2.795  14.228  20.794  0.00  0.00    +0.000 NA
ATOM     18  C   UNL     1      -2.433  14.768  21.973  0.00  0.00    +0.000 A 
ATOM     19  C   UNL     1      -2.225  14.030  23.114  0.00  0.00    +0.000 A 
ATOM     20  C   UNL     1      -2.376  12.671  22.975  0.00  0.00    +0.000 A 
ATOM     21  N   UNL     1      -2.692  12.078  21.810  0.00  0.00    +0.000 NA
ENDBRANCH  15  16
ENDBRANCH   7  10
ENDBRANCH   5   6
BRANCH   1  22
ATOM     22  N   UNL     1       1.925   7.824  20.531  0.00  0.00    +0.000 N 
ATOM     23  H   UNL     1       2.531   8.440  19.995  0.00  0.00    +0.000 HD
BRANCH  22  30
ATOM     24  C   UNL     1       2.984   7.589  17.865  0.00  0.00    +0.000 C 
ATOM     25  C   UNL     1       2.584   6.397  18.687  0.00  0.00    +0.000 A 
ATOM     26  C   UNL     1       2.734   5.107  18.155  0.00  0.00    +0.000 A 
ATOM     27  C   UNL     1       2.381   3.991  18.912  0.00  0.00    +0.000 A 
ATOM     28  C   UNL     1       1.880   4.225  20.179  0.00  0.00    +0.000 A 
ATOM     29  N   UNL     1       1.733   5.453  20.722  0.00  0.00    +0.000 NA
ATOM     30  C   UNL     1       2.071   6.534  19.987  0.00  0.00    +0.000 A 
BRANCH  27  31
ATOM     31  C   UNL     1       2.536   2.587  18.424  0.00  0.00    +0.000 C 
ATOM     32  F   UNL     1       3.760   2.051  18.684  0.00  0.00    +0.000 F 
ATOM     33  F   UNL     1       1.631   1.738  18.985  0.00  0.00    +0.000 F 
ATOM     34  F   UNL     1       2.361   2.479  17.078  0.00  0.00    +0.000 F 
ENDBRANCH  27  31
ENDBRANCH  22  30
ENDBRANCH   1  22
TORSDOF 6
ENDMDL
MODEL 9
REMARK VINA RESULT:      -8.4      4.961      8.183
REMARK  Name = 
REMARK  7 active torsions:
REMARK  status: ('A' for Active; 'I' for Inactive)
REMARK    1  A    between atoms: C_1  and  C_2
REMARK    2  A    between atoms: C_4  and  C_5
REMARK    3  A    between atoms: C_11  and  N_12
REMARK    4  A    between atoms: N_12  and  C_13
REMARK    5  A    between atoms: C_17  and  N_18
REMARK    6  A    between atoms: C_19  and  C_21
REMARK    7  A    between atoms: C_26  and  C_27
REMARK                            x       y       z     vdW  Elec       q    Type
REMARK                         _______ _______ _______ _____ _____    ______ ____
ROOT
ATOM      1  C   UNL     1       0.451   8.406  20.728  0.00  0.00    +0.000 C 
ATOM      2  C   UNL     1      -0.192   8.423  22.120  0.00  0.00    +0.000 C 
ATOM      3  C   UNL     1       0.452   9.599  22.857  0.00  0.00    +0.000 C 
ATOM      4  C   UNL     1       1.073  10.496  21.786  0.00  0.00    +0.000 C 
ATOM      5  C   UNL     1       0.620   9.925  20.441  0.00  0.00    +0.000 C 
ENDROOT
BRANCH   5   6
ATOM      6  N   UNL     1      -0.618  10.547  19.985  0.00  0.00    +0.000 N 
ATOM      7  C   UNL     1      -1.037  10.452  18.671  0.00  0.00    +0.000 C 
ATOM      8  O   UNL     1      -0.345   9.973  17.782  0.00  0.00    +0.000 OA
ATOM      9  H   UNL     1      -1.211  11.073  20.622  0.00  0.00    +0.000 HD
BRANCH   7  10
ATOM     10  C   UNL     1      -2.401  11.035  18.412  0.00  0.00    +0.000 A 
ATOM     11  N   UNL     1      -3.013  10.495  17.305  0.00  0.00    +0.000 NA
ATOM     12  C   UNL     1      -4.289  10.858  17.076  0.00  0.00    +0.000 A 
ATOM     13  C   UNL     1      -4.985  11.748  17.872  0.00  0.00    +0.000 A 
ATOM     14  C   UNL     1      -4.325  12.320  18.956  0.00  0.00    +0.000 A 
ATOM     15  C   UNL     1      -2.986  11.987  19.253  0.00  0.00    +0.000 A 
BRANCH  15  16
ATOM     16  C   UNL     1      -2.281  12.668  20.339  0.00  0.00    +0.000 A 
ATOM     17  N   UNL     1      -1.372  13.608  19.999  0.00  0.00    +0.000 NA
ATOM     18  C   UNL     1      -0.714  14.200  21.013  0.00  0.00    +0.000 A 
ATOM     19  C   UNL     1      -0.923  13.892  22.336  0.00  0.00    +0.000 A 
ATOM     20  C   UNL     1      -1.838  12.895  22.574  0.00  0.00    +0.000 A 
ATOM     21  N   UNL     1      -2.489  12.240  21.596  0.00  0.00    +0.000 NA
ENDBRANCH  15  16
ENDBRANCH   7  10
ENDBRANCH   5   6
BRANCH   1  22
ATOM     22  N   UNL     1       1.767   7.738  20.772  0.00  0.00    +0.000 N 
ATOM     23  H   UNL     1       2.481   8.319  20.339  0.00  0.00    +0.000 HD
BRANCH  22  30
ATOM     24  C   UNL     1       2.782   7.603  18.082  0.00  0.00    +0.000 C 
ATOM     25  C   UNL     1       2.325   6.388  18.839  0.00  0.00    +0.000 A 
ATOM     26  C   UNL     1       2.396   5.126  18.231  0.00  0.00    +0.000 A 
ATOM     27  C   UNL     1       1.990   3.988  18.927  0.00  0.00    +0.000 A 
ATOM     28  C   UNL     1       1.517   4.174  20.212  0.00  0.00    +0.000 A 
ATOM     29  N   UNL     1       1.445   5.374  20.828  0.00  0.00    +0.000 NA
ATOM     30  C   UNL     1       1.835   6.476  20.152  0.00  0.00    +0.000 A 
BRANCH  27  31
ATOM     31  C   UNL     1       2.060   2.609  18.355  0.00  0.00    +0.000 C 
ATOM     32  F   UNL     1       0.883   1.928  18.425  0.00  0.00    +0.000 F 
ATOM     33  F   UNL     1       2.413   2.608  17.040  0.00  0.00    +0.000 F 
ATOM     34  F   UNL     1       2.980   1.828  18.987  0.00  0.00    +0.000 F 
ENDBRANCH  27  31
ENDBRANCH  22  30
ENDBRANCH   1  22
TORSDOF 6
ENDMDL
