MODEL 1
REMARK VINA RESULT:      -6.7      0.000      0.000
REMARK  Name = 
REMARK  10 active torsions:
REMARK  status: ('A' for Active; 'I' for Inactive)
REMARK    1  A    between atoms: C_1  and  O_2
REMARK    2  A    between atoms: O_2  and  C_3
REMARK    3  A    between atoms: C_3  and  C_4
REMARK    4  A    between atoms: C_3  and  C_10
REMARK    5  A    between atoms: C_10  and  C_11
REMARK    6  A    between atoms: C_10  and  N_12
REMARK    7  A    between atoms: N_12  and  C_13
REMARK    8  A    between atoms: C_13  and  C_14
REMARK    9  A    between atoms: C_16  and  C_17
REMARK   10  A    between atoms: C_19  and  C_20
REMARK                            x       y       z     vdW  Elec       q    Type
REMARK                         _______ _______ _______ _____ _____    ______ ____
ROOT
ATOM      1  C   UNL     1       6.842   4.763  17.136  0.00  0.00    +0.000 C 
ATOM      2  C   UNL     1       7.605   5.970  17.702  0.00  0.00    +0.000 C 
ENDROOT
BRANCH   1   3
ATOM      3  N   UNL     1       6.139   3.975  18.172  0.00  0.00    +0.000 NA
ATOM      4  H   UNL     1       6.782   3.322  18.620  0.00  0.00    +0.000 HD
BRANCH   3   5
ATOM      5  C   UNL     1       5.407   4.715  19.190  0.00  0.00    +0.000 C 
BRANCH   5   6
ATOM      6  C   UNL     1       3.957   4.336  19.134  0.00  0.00    +0.000 A 
ATOM      7  S   UNL     1       3.481   2.720  18.803  0.00  0.00    +0.000 S 
ATOM      8  C   UNL     1       1.833   3.175  18.949  0.00  0.00    +0.000 A 
ATOM      9  C   UNL     1       0.747   2.171  18.783  0.00  0.00    +0.000 C 
ATOM     10  N   UNL     1       1.621   4.445  19.212  0.00  0.00    +0.000 NA
ATOM     11  C   UNL     1       2.825   5.123  19.313  0.00  0.00    +0.000 A 
ATOM     12  C   UNL     1       2.779   6.583  19.598  0.00  0.00    +0.000 C 
ENDBRANCH   5   6
ENDBRANCH   3   5
ENDBRANCH   1   3
BRANCH   1  13
ATOM     13  C   UNL     1       5.819   5.258  16.031  0.00  0.00    +0.000 C 
BRANCH  13  14
ATOM     14  C   UNL     1       6.246   4.839  14.613  0.00  0.00    +0.000 A 
ATOM     15  C   UNL     1       7.408   5.348  14.010  0.00  0.00    +0.000 A 
ATOM     16  C   UNL     1       7.800   4.944  12.722  0.00  0.00    +0.000 A 
ATOM     17  C   UNL     1       7.036   4.020  12.023  0.00  0.00    +0.000 A 
ATOM     18  C   UNL     1       5.878   3.510  12.600  0.00  0.00    +0.000 A 
ATOM     19  C   UNL     1       5.479   3.920  13.870  0.00  0.00    +0.000 A 
ENDBRANCH  13  14
BRANCH  13  21
ATOM     20  C   UNL     1       4.369   7.140  16.507  0.00  0.00    +0.000 C 
ATOM     21  O   UNL     1       5.637   6.691  16.049  0.00  0.00    +0.000 OA
ENDBRANCH  13  21
ENDBRANCH   1  13
TORSDOF 6
ENDMDL
MODEL 2
REMARK VINA RESULT:      -6.5      1.114      1.606
REMARK  Name = 
REMARK  10 active torsions:
REMARK  status: ('A' for Active; 'I' for Inactive)
REMARK    1  A    between atoms: C_1  and  O_2
REMARK    2  A    between atoms: O_2  and  C_3
REMARK    3  A    between atoms: C_3  and  C_4
REMARK    4  A    between atoms: C_3  and  C_10
REMARK    5  A    between atoms: C_10  and  C_11
REMARK    6  A    between atoms: C_10  and  N_12
REMARK    7  A    between atoms: N_12  and  C_13
REMARK    8  A    between atoms: C_13  and  C_14
REMARK    9  A    between atoms: C_16  and  C_17
REMARK   10  A    between atoms: C_19  and  C_20
REMARK                            x       y       z     vdW  Elec       q    Type
REMARK                         _______ _______ _______ _____ _____    ______ ____
ROOT
ATOM      1  C   UNL     1       6.542   4.050  16.927  0.00  0.00    +0.000 C 
ATOM      2  C   UNL     1       7.722   4.694  17.668  0.00  0.00    +0.000 C 
ENDROOT
BRANCH   1   3
ATOM      3  N   UNL     1       5.465   3.585  17.830  0.00  0.00    +0.000 NA
ATOM      4  H   UNL     1       5.572   4.001  18.755  0.00  0.00    +0.000 HD
BRANCH   3   5
ATOM      5  C   UNL     1       4.093   3.757  17.374  0.00  0.00    +0.000 C 
BRANCH   5   6
ATOM      6  C   UNL     1       3.179   3.820  18.561  0.00  0.00    +0.000 A 
ATOM      7  S   UNL     1       2.920   2.438  19.548  0.00  0.00    +0.000 S 
ATOM      8  C   UNL     1       1.874   3.352  20.554  0.00  0.00    +0.000 A 
ATOM      9  C   UNL     1       1.229   2.734  21.745  0.00  0.00    +0.000 C 
ATOM     10  N   UNL     1       1.698   4.604  20.195  0.00  0.00    +0.000 NA
ATOM     11  C   UNL     1       2.432   4.884  19.053  0.00  0.00    +0.000 A 
ATOM     12  C   UNL     1       2.346   6.259  18.491  0.00  0.00    +0.000 C 
ENDBRANCH   5   6
ENDBRANCH   3   5
ENDBRANCH   1   3
BRANCH   1  13
ATOM     13  C   UNL     1       5.965   5.074  15.863  0.00  0.00    +0.000 C 
BRANCH  13  14
ATOM     14  C   UNL     1       6.355   4.699  14.423  0.00  0.00    +0.000 A 
ATOM     15  C   UNL     1       5.641   3.738  13.689  0.00  0.00    +0.000 A 
ATOM     16  C   UNL     1       5.993   3.417  12.368  0.00  0.00    +0.000 A 
ATOM     17  C   UNL     1       7.064   4.058  11.760  0.00  0.00    +0.000 A 
ATOM     18  C   UNL     1       7.790   5.008  12.473  0.00  0.00    +0.000 A 
ATOM     19  C   UNL     1       7.452   5.317  13.788  0.00  0.00    +0.000 A 
ENDBRANCH  13  14
BRANCH  13  21
ATOM     20  C   UNL     1       5.545   7.194  16.961  0.00  0.00    +0.000 C 
ATOM     21  O   UNL     1       6.395   6.431  16.115  0.00  0.00    +0.000 OA
ENDBRANCH  13  21
ENDBRANCH   1  13
TORSDOF 6
ENDMDL
MODEL 3
REMARK VINA RESULT:      -6.5      1.389      1.846
REMARK  Name = 
REMARK  10 active torsions:
REMARK  status: ('A' for Active; 'I' for Inactive)
REMARK    1  A    between atoms: C_1  and  O_2
REMARK    2  A    between atoms: O_2  and  C_3
REMARK    3  A    between atoms: C_3  and  C_4
REMARK    4  A    between atoms: C_3  and  C_10
REMARK    5  A    between atoms: C_10  and  C_11
REMARK    6  A    between atoms: C_10  and  N_12
REMARK    7  A    between atoms: N_12  and  C_13
REMARK    8  A    between atoms: C_13  and  C_14
REMARK    9  A    between atoms: C_16  and  C_17
REMARK   10  A    between atoms: C_19  and  C_20
REMARK                            x       y       z     vdW  Elec       q    Type
REMARK                         _______ _______ _______ _____ _____    ______ ____
ROOT
ATOM      1  C   UNL     1       6.466   4.754  17.488  0.00  0.00    +0.000 C 
ATOM      2  C   UNL     1       7.897   4.376  17.897  0.00  0.00    +0.000 C 
ENDROOT
BRANCH   1   3
ATOM      3  N   UNL     1       5.656   5.284  18.607  0.00  0.00    +0.000 NA
ATOM      4  H   UNL     1       6.183   5.988  19.125  0.00  0.00    +0.000 HD
BRANCH   3   5
ATOM      5  C   UNL     1       4.335   5.803  18.285  0.00  0.00    +0.000 C 
BRANCH   5   6
ATOM      6  C   UNL     1       3.336   5.260  19.264  0.00  0.00    +0.000 A 
ATOM      7  S   UNL     1       3.281   3.583  19.627  0.00  0.00    +0.000 S 
ATOM      8  C   UNL     1       1.998   3.864  20.731  0.00  0.00    +0.000 A 
ATOM      9  C   UNL     1       1.397   2.742  21.504  0.00  0.00    +0.000 C 
ATOM     10  N   UNL     1       1.606   5.114  20.833  0.00  0.00    +0.000 NA
ATOM     11  C   UNL     1       2.356   5.923  19.995  0.00  0.00    +0.000 A 
ATOM     12  C   UNL     1       2.043   7.377  19.969  0.00  0.00    +0.000 C 
ENDBRANCH   5   6
ENDBRANCH   3   5
ENDBRANCH   1   3
BRANCH   1  13
ATOM     13  C   UNL     1       6.518   5.802  16.299  0.00  0.00    +0.000 C 
BRANCH  13  14
ATOM     14  C   UNL     1       6.552   5.118  14.922  0.00  0.00    +0.000 A 
ATOM     15  C   UNL     1       5.586   4.174  14.540  0.00  0.00    +0.000 A 
ATOM     16  C   UNL     1       5.615   3.569  13.271  0.00  0.00    +0.000 A 
ATOM     17  C   UNL     1       6.611   3.907  12.365  0.00  0.00    +0.000 A 
ATOM     18  C   UNL     1       7.583   4.835  12.727  0.00  0.00    +0.000 A 
ATOM     19  C   UNL     1       7.565   5.424  13.989  0.00  0.00    +0.000 A 
ENDBRANCH  13  14
BRANCH  13  21
ATOM     20  C   UNL     1       7.496   7.784  17.292  0.00  0.00    +0.000 C 
ATOM     21  O   UNL     1       7.652   6.691  16.397  0.00  0.00    +0.000 OA
ENDBRANCH  13  21
ENDBRANCH   1  13
TORSDOF 6
ENDMDL
MODEL 4
REMARK VINA RESULT:      -6.5      2.310      6.347
REMARK  Name = 
REMARK  10 active torsions:
REMARK  status: ('A' for Active; 'I' for Inactive)
REMARK    1  A    between atoms: C_1  and  O_2
REMARK    2  A    between atoms: O_2  and  C_3
REMARK    3  A    between atoms: C_3  and  C_4
REMARK    4  A    between atoms: C_3  and  C_10
REMARK    5  A    between atoms: C_10  and  C_11
REMARK    6  A    between atoms: C_10  and  N_12
REMARK    7  A    between atoms: N_12  and  C_13
REMARK    8  A    between atoms: C_13  and  C_14
REMARK    9  A    between atoms: C_16  and  C_17
REMARK   10  A    between atoms: C_19  and  C_20
REMARK                            x       y       z     vdW  Elec       q    Type
REMARK                         _______ _______ _______ _____ _____    ______ ____
ROOT
ATOM      1  C   UNL     1       3.597   5.286  19.857  0.00  0.00    +0.000 C 
ATOM      2  C   UNL     1       2.606   4.419  20.648  0.00  0.00    +0.000 C 
ENDROOT
BRANCH   1   3
ATOM      3  N   UNL     1       4.835   4.568  19.482  0.00  0.00    +0.000 NA
ATOM      4  H   UNL     1       4.681   4.006  18.645  0.00  0.00    +0.000 HD
BRANCH   3   5
ATOM      5  C   UNL     1       6.044   5.363  19.320  0.00  0.00    +0.000 C 
BRANCH   5   6
ATOM      6  C   UNL     1       6.431   5.390  17.871  0.00  0.00    +0.000 A 
ATOM      7  S   UNL     1       5.949   4.131  16.807  0.00  0.00    +0.000 S 
ATOM      8  C   UNL     1       6.733   4.929  15.507  0.00  0.00    +0.000 A 
ATOM      9  C   UNL     1       6.710   4.354  14.134  0.00  0.00    +0.000 C 
ATOM     10  N   UNL     1       7.336   6.054  15.818  0.00  0.00    +0.000 NA
ATOM     11  C   UNL     1       7.178   6.328  17.168  0.00  0.00    +0.000 A 
ATOM     12  C   UNL     1       7.807   7.564  17.705  0.00  0.00    +0.000 C 
ENDBRANCH   5   6
ENDBRANCH   3   5
ENDBRANCH   1   3
BRANCH   1  13
ATOM     13  C   UNL     1       2.881   5.861  18.565  0.00  0.00    +0.000 C 
BRANCH  13  14
ATOM     14  C   UNL     1       2.292   7.262  18.802  0.00  0.00    +0.000 A 
ATOM     15  C   UNL     1       2.189   8.206  17.767  0.00  0.00    +0.000 A 
ATOM     16  C   UNL     1       1.631   9.477  17.989  0.00  0.00    +0.000 A 
ATOM     17  C   UNL     1       1.163   9.818  19.250  0.00  0.00    +0.000 A 
ATOM     18  C   UNL     1       1.263   8.900  20.291  0.00  0.00    +0.000 A 
ATOM     19  C   UNL     1       1.829   7.645  20.077  0.00  0.00    +0.000 A 
ENDBRANCH  13  14
BRANCH  13  21
ATOM     20  C   UNL     1       2.254   3.865  17.343  0.00  0.00    +0.000 C 
ATOM     21  O   UNL     1       1.826   4.996  18.089  0.00  0.00    +0.000 OA
ENDBRANCH  13  21
ENDBRANCH   1  13
TORSDOF 6
ENDMDL
MODEL 5
REMARK VINA RESULT:      -6.5      1.066      1.672
REMARK  Name = 
REMARK  10 active torsions:
REMARK  status: ('A' for Active; 'I' for Inactive)
REMARK    1  A    between atoms: C_1  and  O_2
REMARK    2  A    between atoms: O_2  and  C_3
REMARK    3  A    between atoms: C_3  and  C_4
REMARK    4  A    between atoms: C_3  and  C_10
REMARK    5  A    between atoms: C_10  and  C_11
REMARK    6  A    between atoms: C_10  and  N_12
REMARK    7  A    between atoms: N_12  and  C_13
REMARK    8  A    between atoms: C_13  and  C_14
REMARK    9  A    between atoms: C_16  and  C_17
REMARK   10  A    between atoms: C_19  and  C_20
REMARK                            x       y       z     vdW  Elec       q    Type
REMARK                         _______ _______ _______ _____ _____    ______ ____
ROOT
ATOM      1  C   UNL     1       7.289   4.804  18.044  0.00  0.00    +0.000 C 
ATOM      2  C   UNL     1       8.174   5.537  19.065  0.00  0.00    +0.000 C 
ENDROOT
BRANCH   1   3
ATOM      3  N   UNL     1       6.119   4.135  18.656  0.00  0.00    +0.000 NA
ATOM      4  H   UNL     1       6.423   3.378  19.268  0.00  0.00    +0.000 HD
BRANCH   3   5
ATOM      5  C   UNL     1       5.163   4.977  19.359  0.00  0.00    +0.000 C 
BRANCH   5   6
ATOM      6  C   UNL     1       3.770   4.516  19.045  0.00  0.00    +0.000 A 
ATOM      7  S   UNL     1       3.287   2.898  19.355  0.00  0.00    +0.000 S 
ATOM      8  C   UNL     1       1.714   3.256  18.773  0.00  0.00    +0.000 A 
ATOM      9  C   UNL     1       0.650   2.214  18.760  0.00  0.00    +0.000 C 
ATOM     10  N   UNL     1       1.534   4.488  18.355  0.00  0.00    +0.000 NA
ATOM     11  C   UNL     1       2.703   5.219  18.497  0.00  0.00    +0.000 A 
ATOM     12  C   UNL     1       2.691   6.642  18.061  0.00  0.00    +0.000 C 
ENDBRANCH   5   6
ENDBRANCH   3   5
ENDBRANCH   1   3
BRANCH   1  13
ATOM     13  C   UNL     1       6.818   5.825  16.927  0.00  0.00    +0.000 C 
BRANCH  13  14
ATOM     14  C   UNL     1       6.594   5.138  15.569  0.00  0.00    +0.000 A 
ATOM     15  C   UNL     1       5.449   4.369  15.308  0.00  0.00    +0.000 A 
ATOM     16  C   UNL     1       5.244   3.763  14.058  0.00  0.00    +0.000 A 
ATOM     17  C   UNL     1       6.182   3.922  13.048  0.00  0.00    +0.000 A 
ATOM     18  C   UNL     1       7.328   4.674  13.288  0.00  0.00    +0.000 A 
ATOM     19  C   UNL     1       7.541   5.264  14.531  0.00  0.00    +0.000 A 
ENDBRANCH  13  14
BRANCH  13  21
ATOM     20  C   UNL     1       7.423   8.122  17.408  0.00  0.00    +0.000 C 
ATOM     21  O   UNL     1       7.754   6.911  16.742  0.00  0.00    +0.000 OA
ENDBRANCH  13  21
ENDBRANCH   1  13
TORSDOF 6
ENDMDL
MODEL 6
REMARK VINA RESULT:      -6.4      2.454      6.506
REMARK  Name = 
REMARK  10 active torsions:
REMARK  status: ('A' for Active; 'I' for Inactive)
REMARK    1  A    between atoms: C_1  and  O_2
REMARK    2  A    between atoms: O_2  and  C_3
REMARK    3  A    between atoms: C_3  and  C_4
REMARK    4  A    between atoms: C_3  and  C_10
REMARK    5  A    between atoms: C_10  and  C_11
REMARK    6  A    between atoms: C_10  and  N_12
REMARK    7  A    between atoms: N_12  and  C_13
REMARK    8  A    between atoms: C_13  and  C_14
REMARK    9  A    between atoms: C_16  and  C_17
REMARK   10  A    between atoms: C_19  and  C_20
REMARK                            x       y       z     vdW  Elec       q    Type
REMARK                         _______ _______ _______ _____ _____    ______ ____
ROOT
ATOM      1  C   UNL     1       4.263   3.419  19.872  0.00  0.00    +0.000 C 
ATOM      2  C   UNL     1       3.953   2.100  20.595  0.00  0.00    +0.000 C 
ENDROOT
BRANCH   1   3
ATOM      3  N   UNL     1       5.480   3.356  19.032  0.00  0.00    +0.000 NA
ATOM      4  H   UNL     1       5.928   2.444  19.123  0.00  0.00    +0.000 HD
BRANCH   3   5
ATOM      5  C   UNL     1       5.335   3.690  17.623  0.00  0.00    +0.000 C 
BRANCH   5   6
ATOM      6  C   UNL     1       6.169   4.897  17.310  0.00  0.00    +0.000 A 
ATOM      7  S   UNL     1       6.456   6.102  18.499  0.00  0.00    +0.000 S 
ATOM      8  C   UNL     1       7.414   6.980  17.379  0.00  0.00    +0.000 A 
ATOM      9  C   UNL     1       8.067   8.259  17.771  0.00  0.00    +0.000 C 
ATOM     10  N   UNL     1       7.520   6.442  16.185  0.00  0.00    +0.000 NA
ATOM     11  C   UNL     1       6.807   5.254  16.127  0.00  0.00    +0.000 A 
ATOM     12  C   UNL     1       6.803   4.507  14.841  0.00  0.00    +0.000 C 
ENDBRANCH   5   6
ENDBRANCH   3   5
ENDBRANCH   1   3
BRANCH   1  13
ATOM     13  C   UNL     1       3.012   3.847  18.998  0.00  0.00    +0.000 C 
BRANCH  13  14
ATOM     14  C   UNL     1       2.573   5.294  19.279  0.00  0.00    +0.000 A 
ATOM     15  C   UNL     1       2.009   5.671  20.509  0.00  0.00    +0.000 A 
ATOM     16  C   UNL     1       1.630   6.999  20.763  0.00  0.00    +0.000 A 
ATOM     17  C   UNL     1       1.815   7.972  19.790  0.00  0.00    +0.000 A 
ATOM     18  C   UNL     1       2.365   7.618  18.562  0.00  0.00    +0.000 A 
ATOM     19  C   UNL     1       2.728   6.299  18.302  0.00  0.00    +0.000 A 
ENDBRANCH  13  14
BRANCH  13  21
ATOM     20  C   UNL     1       0.770   3.208  18.335  0.00  0.00    +0.000 C 
ATOM     21  O   UNL     1       1.876   2.977  19.198  0.00  0.00    +0.000 OA
ENDBRANCH  13  21
ENDBRANCH   1  13
TORSDOF 6
ENDMDL
MODEL 7
REMARK VINA RESULT:      -6.4      2.501      6.453
REMARK  Name = 
REMARK  10 active torsions:
REMARK  status: ('A' for Active; 'I' for Inactive)
REMARK    1  A    between atoms: C_1  and  O_2
REMARK    2  A    between atoms: O_2  and  C_3
REMARK    3  A    between atoms: C_3  and  C_4
REMARK    4  A    between atoms: C_3  and  C_10
REMARK    5  A    between atoms: C_10  and  C_11
REMARK    6  A    between atoms: C_10  and  N_12
REMARK    7  A    between atoms: N_12  and  C_13
REMARK    8  A    between atoms: C_13  and  C_14
REMARK    9  A    between atoms: C_16  and  C_17
REMARK   10  A    between atoms: C_19  and  C_20
REMARK                            x       y       z     vdW  Elec       q    Type
REMARK                         _______ _______ _______ _____ _____    ______ ____
ROOT
ATOM      1  C   UNL     1       3.049   2.865  19.005  0.00  0.00    +0.000 C 
ATOM      2  C   UNL     1       2.544   2.055  17.801  0.00  0.00    +0.000 C 
ENDROOT
BRANCH   1   3
ATOM      3  N   UNL     1       4.200   3.737  18.684  0.00  0.00    +0.000 NA
ATOM      4  H   UNL     1       4.923   3.649  19.398  0.00  0.00    +0.000 HD
BRANCH   3   5
ATOM      5  C   UNL     1       4.797   3.592  17.364  0.00  0.00    +0.000 C 
BRANCH   5   6
ATOM      6  C   UNL     1       5.746   4.729  17.121  0.00  0.00    +0.000 A 
ATOM      7  S   UNL     1       5.997   5.938  18.315  0.00  0.00    +0.000 S 
ATOM      8  C   UNL     1       7.128   6.717  17.287  0.00  0.00    +0.000 A 
ATOM      9  C   UNL     1       7.830   7.955  17.725  0.00  0.00    +0.000 C 
ATOM     10  N   UNL     1       7.317   6.145  16.119  0.00  0.00    +0.000 NA
ATOM     11  C   UNL     1       6.528   5.011  16.006  0.00  0.00    +0.000 A 
ATOM     12  C   UNL     1       6.601   4.237  14.739  0.00  0.00    +0.000 C 
ENDBRANCH   5   6
ENDBRANCH   3   5
ENDBRANCH   1   3
BRANCH   1  13
ATOM     13  C   UNL     1       1.856   3.723  19.599  0.00  0.00    +0.000 C 
BRANCH  13  14
ATOM     14  C   UNL     1       2.001   5.221  19.279  0.00  0.00    +0.000 A 
ATOM     15  C   UNL     1       2.015   6.196  20.290  0.00  0.00    +0.000 A 
ATOM     16  C   UNL     1       2.168   7.559  19.989  0.00  0.00    +0.000 A 
ATOM     17  C   UNL     1       2.315   7.966  18.670  0.00  0.00    +0.000 A 
ATOM     18  C   UNL     1       2.297   7.016  17.653  0.00  0.00    +0.000 A 
ATOM     19  C   UNL     1       2.130   5.666  17.948  0.00  0.00    +0.000 A 
ENDBRANCH  13  14
BRANCH  13  21
ATOM     20  C   UNL     1       2.486   2.516  21.604  0.00  0.00    +0.000 C 
ATOM     21  O   UNL     1       1.726   3.571  21.030  0.00  0.00    +0.000 OA
ENDBRANCH  13  21
ENDBRANCH   1  13
TORSDOF 6
ENDMDL
MODEL 8
REMARK VINA RESULT:      -6.4      1.391      1.596
REMARK  Name = 
REMARK  10 active torsions:
REMARK  status: ('A' for Active; 'I' for Inactive)
REMARK    1  A    between atoms: C_1  and  O_2
REMARK    2  A    between atoms: O_2  and  C_3
REMARK    3  A    between atoms: C_3  and  C_4
REMARK    4  A    between atoms: C_3  and  C_10
REMARK    5  A    between atoms: C_10  and  C_11
REMARK    6  A    between atoms: C_10  and  N_12
REMARK    7  A    between atoms: N_12  and  C_13
REMARK    8  A    between atoms: C_13  and  C_14
REMARK    9  A    between atoms: C_16  and  C_17
REMARK   10  A    between atoms: C_19  and  C_20
REMARK                            x       y       z     vdW  Elec       q    Type
REMARK                         _______ _______ _______ _____ _____    ______ ____
ROOT
ATOM      1  C   UNL     1       5.655   4.358  16.877  0.00  0.00    +0.000 C 
ATOM      2  C   UNL     1       6.418   4.413  18.210  0.00  0.00    +0.000 C 
ENDROOT
BRANCH   1   3
ATOM      3  N   UNL     1       4.190   4.488  17.034  0.00  0.00    +0.000 NA
ATOM      4  H   UNL     1       3.796   3.630  17.421  0.00  0.00    +0.000 HD
BRANCH   3   5
ATOM      5  C   UNL     1       3.700   5.633  17.788  0.00  0.00    +0.000 C 
BRANCH   5   6
ATOM      6  C   UNL     1       2.931   5.150  18.982  0.00  0.00    +0.000 A 
ATOM      7  S   UNL     1       2.804   3.472  19.328  0.00  0.00    +0.000 S 
ATOM      8  C   UNL     1       1.874   3.831  20.725  0.00  0.00    +0.000 A 
ATOM      9  C   UNL     1       1.380   2.742  21.612  0.00  0.00    +0.000 C 
ATOM     10  N   UNL     1       1.646   5.107  20.937  0.00  0.00    +0.000 NA
ATOM     11  C   UNL     1       2.237   5.873  19.945  0.00  0.00    +0.000 A 
ATOM     12  C   UNL     1       2.072   7.350  20.016  0.00  0.00    +0.000 C 
ENDBRANCH   5   6
ENDBRANCH   3   5
ENDBRANCH   1   3
BRANCH   1  13
ATOM     13  C   UNL     1       6.208   5.484  15.908  0.00  0.00    +0.000 C 
BRANCH  13  14
ATOM     14  C   UNL     1       6.483   4.949  14.492  0.00  0.00    +0.000 A 
ATOM     15  C   UNL     1       7.564   5.411  13.724  0.00  0.00    +0.000 A 
ATOM     16  C   UNL     1       7.819   4.902  12.439  0.00  0.00    +0.000 A 
ATOM     17  C   UNL     1       6.997   3.918  11.908  0.00  0.00    +0.000 A 
ATOM     18  C   UNL     1       5.916   3.452  12.650  0.00  0.00    +0.000 A 
ATOM     19  C   UNL     1       5.652   3.966  13.917  0.00  0.00    +0.000 A 
ENDBRANCH  13  14
BRANCH  13  21
ATOM     20  C   UNL     1       7.236   7.330  17.095  0.00  0.00    +0.000 C 
ATOM     21  O   UNL     1       7.416   6.099  16.408  0.00  0.00    +0.000 OA
ENDBRANCH  13  21
ENDBRANCH   1  13
TORSDOF 6
ENDMDL
MODEL 9
REMARK VINA RESULT:      -6.3      1.131      1.276
REMARK  Name = 
REMARK  10 active torsions:
REMARK  status: ('A' for Active; 'I' for Inactive)
REMARK    1  A    between atoms: C_1  and  O_2
REMARK    2  A    between atoms: O_2  and  C_3
REMARK    3  A    between atoms: C_3  and  C_4
REMARK    4  A    between atoms: C_3  and  C_10
REMARK    5  A    between atoms: C_10  and  C_11
REMARK    6  A    between atoms: C_10  and  N_12
REMARK    7  A    between atoms: N_12  and  C_13
REMARK    8  A    between atoms: C_13  and  C_14
REMARK    9  A    between atoms: C_16  and  C_17
REMARK   10  A    between atoms: C_19  and  C_20
REMARK                            x       y       z     vdW  Elec       q    Type
REMARK                         _______ _______ _______ _____ _____    ______ ____
ROOT
ATOM      1  C   UNL     1       6.411   4.801  17.416  0.00  0.00    +0.000 C 
ATOM      2  C   UNL     1       7.826   4.454  17.906  0.00  0.00    +0.000 C 
ENDROOT
BRANCH   1   3
ATOM      3  N   UNL     1       5.530   5.317  18.487  0.00  0.00    +0.000 NA
ATOM      4  H   UNL     1       6.048   5.945  19.102  0.00  0.00    +0.000 HD
BRANCH   3   5
ATOM      5  C   UNL     1       4.286   5.951  18.078  0.00  0.00    +0.000 C 
BRANCH   5   6
ATOM      6  C   UNL     1       3.127   5.109  18.526  0.00  0.00    +0.000 A 
ATOM      7  S   UNL     1       2.805   3.591  17.790  0.00  0.00    +0.000 S 
ATOM      8  C   UNL     1       1.468   3.366  18.841  0.00  0.00    +0.000 A 
ATOM      9  C   UNL     1       0.644   2.128  18.771  0.00  0.00    +0.000 C 
ATOM     10  N   UNL     1       1.244   4.347  19.686  0.00  0.00    +0.000 NA
ATOM     11  C   UNL     1       2.179   5.355  19.512  0.00  0.00    +0.000 A 
ATOM     12  C   UNL     1       2.074   6.559  20.380  0.00  0.00    +0.000 C 
ENDBRANCH   5   6
ENDBRANCH   3   5
ENDBRANCH   1   3
BRANCH   1  13
ATOM     13  C   UNL     1       6.507   5.847  16.229  0.00  0.00    +0.000 C 
BRANCH  13  14
ATOM     14  C   UNL     1       6.550   5.162  14.852  0.00  0.00    +0.000 A 
ATOM     15  C   UNL     1       7.562   5.440  13.919  0.00  0.00    +0.000 A 
ATOM     16  C   UNL     1       7.604   4.794  12.672  0.00  0.00    +0.000 A 
ATOM     17  C   UNL     1       6.635   3.855  12.344  0.00  0.00    +0.000 A 
ATOM     18  C   UNL     1       5.620   3.571  13.252  0.00  0.00    +0.000 A 
ATOM     19  C   UNL     1       5.567   4.221  14.482  0.00  0.00    +0.000 A 
ENDBRANCH  13  14
BRANCH  13  21
ATOM     20  C   UNL     1       7.514   7.802  17.247  0.00  0.00    +0.000 C 
ATOM     21  O   UNL     1       7.658   6.711  16.346  0.00  0.00    +0.000 OA
ENDBRANCH  13  21
ENDBRANCH   1  13
TORSDOF 6
ENDMDL
