MODEL 1
REMARK VINA RESULT:      -7.0      0.000      0.000
REMARK  Name = 
REMARK  5 active torsions:
REMARK  status: ('A' for Active; 'I' for Inactive)
REMARK    1  A    between atoms: O_1  and  C_2
REMARK    2  A    between atoms: C_5  and  C_6
REMARK    3  A    between atoms: C_7  and  C_8
REMARK    4  A    between atoms: C_10  and  O_11
REMARK    5  A    between atoms: C_13  and  O_14
REMARK                            x       y       z     vdW  Elec       q    Type
REMARK                         _______ _______ _______ _____ _____    ______ ____
ROOT
ATOM      1  C   UNL     1       9.738  11.027  18.907  0.00  0.00    +0.000 A 
ATOM      2  C   UNL     1      10.365  11.385  17.703  0.00  0.00    +0.000 A 
ATOM      3  C   UNL     1      10.931  12.649  17.561  0.00  0.00    +0.000 A 
ATOM      4  C   UNL     1      10.887  13.576  18.597  0.00  0.00    +0.000 A 
ATOM      5  C   UNL     1      10.272  13.227  19.798  0.00  0.00    +0.000 A 
ATOM      6  C   UNL     1       9.698  11.957  19.965  0.00  0.00    +0.000 A 
ATOM      7 BR   UNL     1       8.852  11.522  21.620  0.00  0.00    +0.000 Br
ENDROOT
BRANCH   1   9
ATOM      8  C   UNL     1       8.423   9.148  17.969  0.00  0.00    +0.000 C 
ATOM      9  C   UNL     1       9.097   9.706  18.987  0.00  0.00    +0.000 C 
BRANCH   8  13
ATOM     10  C   UNL     1       6.700   5.241  18.239  0.00  0.00    +0.000 A 
ATOM     11  C   UNL     1       7.748   5.600  19.080  0.00  0.00    +0.000 A 
ATOM     12  C   UNL     1       8.308   6.880  18.977  0.00  0.00    +0.000 A 
ATOM     13  C   UNL     1       7.833   7.798  18.030  0.00  0.00    +0.000 A 
ATOM     14  C   UNL     1       6.763   7.416  17.206  0.00  0.00    +0.000 A 
ATOM     15  C   UNL     1       6.204   6.138  17.305  0.00  0.00    +0.000 A 
BRANCH  10  16
ATOM     16  O   UNL     1       6.121   4.010  18.306  0.00  0.00    +0.000 OA
ATOM     17  H   UNL     1       5.218   4.069  17.952  0.00  0.00    +0.000 HD
ENDBRANCH  10  16
ENDBRANCH   8  13
ENDBRANCH   1   9
BRANCH   3  18
ATOM     18  O   UNL     1      11.537  13.032  16.401  0.00  0.00    +0.000 OA
ATOM     19  H   UNL     1      11.151  13.873  16.105  0.00  0.00    +0.000 HD
ENDBRANCH   3  18
BRANCH   5  20
ATOM     20  O   UNL     1      10.221  14.144  20.814  0.00  0.00    +0.000 OA
ATOM     21  H   UNL     1      11.121  14.438  21.027  0.00  0.00    +0.000 HD
ENDBRANCH   5  20
TORSDOF 5
ENDMDL
MODEL 2
REMARK VINA RESULT:      -6.9      0.169      1.147
REMARK  Name = 
REMARK  5 active torsions:
REMARK  status: ('A' for Active; 'I' for Inactive)
REMARK    1  A    between atoms: O_1  and  C_2
REMARK    2  A    between atoms: C_5  and  C_6
REMARK    3  A    between atoms: C_7  and  C_8
REMARK    4  A    between atoms: C_10  and  O_11
REMARK    5  A    between atoms: C_13  and  O_14
REMARK                            x       y       z     vdW  Elec       q    Type
REMARK                         _______ _______ _______ _____ _____    ______ ____
ROOT
ATOM      1  C   UNL     1       9.749  11.027  18.944  0.00  0.00    +0.000 A 
ATOM      2  C   UNL     1      10.401  11.360  17.745  0.00  0.00    +0.000 A 
ATOM      3  C   UNL     1      11.035  12.592  17.616  0.00  0.00    +0.000 A 
ATOM      4  C   UNL     1      11.038  13.511  18.659  0.00  0.00    +0.000 A 
ATOM      5  C   UNL     1      10.399  13.187  19.855  0.00  0.00    +0.000 A 
ATOM      6  C   UNL     1       9.756  11.949  20.009  0.00  0.00    +0.000 A 
ATOM      7 BR   UNL     1       8.880  11.548  21.656  0.00  0.00    +0.000 Br
ENDROOT
BRANCH   1   9
ATOM      8  C   UNL     1       8.465   9.158  17.944  0.00  0.00    +0.000 C 
ATOM      9  C   UNL     1       9.035   9.743  19.009  0.00  0.00    +0.000 C 
BRANCH   8  13
ATOM     10  C   UNL     1       6.554   5.330  18.011  0.00  0.00    +0.000 A 
ATOM     11  C   UNL     1       6.107   6.317  17.139  0.00  0.00    +0.000 A 
ATOM     12  C   UNL     1       6.736   7.568  17.131  0.00  0.00    +0.000 A 
ATOM     13  C   UNL     1       7.803   7.842  18.000  0.00  0.00    +0.000 A 
ATOM     14  C   UNL     1       8.246   6.822  18.856  0.00  0.00    +0.000 A 
ATOM     15  C   UNL     1       7.618   5.573  18.867  0.00  0.00    +0.000 A 
BRANCH  10  16
ATOM     16  O   UNL     1       5.977   4.097  18.051  0.00  0.00    +0.000 OA
ATOM     17  H   UNL     1       6.646   3.431  17.821  0.00  0.00    +0.000 HD
ENDBRANCH  10  16
ENDBRANCH   8  13
ENDBRANCH   1   9
BRANCH   3  18
ATOM     18  O   UNL     1      11.667  12.950  16.462  0.00  0.00    +0.000 OA
ATOM     19  H   UNL     1      11.151  12.627  15.705  0.00  0.00    +0.000 HD
ENDBRANCH   3  18
BRANCH   5  20
ATOM     20  O   UNL     1      10.394  14.097  20.878  0.00  0.00    +0.000 OA
ATOM     21  H   UNL     1      10.550  13.637  21.719  0.00  0.00    +0.000 HD
ENDBRANCH   5  20
TORSDOF 5
ENDMDL
MODEL 3
REMARK VINA RESULT:      -6.9      7.908      8.671
REMARK  Name = 
REMARK  5 active torsions:
REMARK  status: ('A' for Active; 'I' for Inactive)
REMARK    1  A    between atoms: O_1  and  C_2
REMARK    2  A    between atoms: C_5  and  C_6
REMARK    3  A    between atoms: C_7  and  C_8
REMARK    4  A    between atoms: C_10  and  O_11
REMARK    5  A    between atoms: C_13  and  O_14
REMARK                            x       y       z     vdW  Elec       q    Type
REMARK                         _______ _______ _______ _____ _____    ______ ____
ROOT
ATOM      1  C   UNL     1       1.472   8.198  20.516  0.00  0.00    +0.000 A 
ATOM      2  C   UNL     1       1.137   8.341  21.872  0.00  0.00    +0.000 A 
ATOM      3  C   UNL     1       0.606   9.541  22.336  0.00  0.00    +0.000 A 
ATOM      4  C   UNL     1       0.397  10.614  21.476  0.00  0.00    +0.000 A 
ATOM      5  C   UNL     1       0.721  10.479  20.127  0.00  0.00    +0.000 A 
ATOM      6  C   UNL     1       1.254   9.277  19.636  0.00  0.00    +0.000 A 
ATOM      7 BR   UNL     1       1.698   9.136  17.785  0.00  0.00    +0.000 Br
ENDROOT
BRANCH   1   9
ATOM      8  C   UNL     1       1.649   5.726  20.464  0.00  0.00    +0.000 C 
ATOM      9  C   UNL     1       2.092   6.936  20.087  0.00  0.00    +0.000 C 
BRANCH   8  13
ATOM     10  C   UNL     1       3.278   2.049  19.004  0.00  0.00    +0.000 A 
ATOM     11  C   UNL     1       1.933   2.127  19.351  0.00  0.00    +0.000 A 
ATOM     12  C   UNL     1       1.413   3.334  19.834  0.00  0.00    +0.000 A 
ATOM     13  C   UNL     1       2.234   4.462  19.983  0.00  0.00    +0.000 A 
ATOM     14  C   UNL     1       3.583   4.361  19.608  0.00  0.00    +0.000 A 
ATOM     15  C   UNL     1       4.105   3.156  19.128  0.00  0.00    +0.000 A 
BRANCH  10  16
ATOM     16  O   UNL     1       3.827   0.898  18.525  0.00  0.00    +0.000 OA
ATOM     17  H   UNL     1       4.783   1.030  18.414  0.00  0.00    +0.000 HD
ENDBRANCH  10  16
ENDBRANCH   8  13
ENDBRANCH   1   9
BRANCH   3  18
ATOM     18  O   UNL     1       0.281   9.717  23.648  0.00  0.00    +0.000 OA
ATOM     19  H   UNL     1      -0.616  10.087  23.706  0.00  0.00    +0.000 HD
ENDBRANCH   3  18
BRANCH   5  20
ATOM     20  O   UNL     1       0.524  11.539  19.283  0.00  0.00    +0.000 OA
ATOM     21  H   UNL     1       1.300  11.642  18.707  0.00  0.00    +0.000 HD
ENDBRANCH   5  20
TORSDOF 5
ENDMDL
MODEL 4
REMARK VINA RESULT:      -6.8      7.911      8.627
REMARK  Name = 
REMARK  5 active torsions:
REMARK  status: ('A' for Active; 'I' for Inactive)
REMARK    1  A    between atoms: O_1  and  C_2
REMARK    2  A    between atoms: C_5  and  C_6
REMARK    3  A    between atoms: C_7  and  C_8
REMARK    4  A    between atoms: C_10  and  O_11
REMARK    5  A    between atoms: C_13  and  O_14
REMARK                            x       y       z     vdW  Elec       q    Type
REMARK                         _______ _______ _______ _____ _____    ______ ____
ROOT
ATOM      1  C   UNL     1       1.419   8.283  20.539  0.00  0.00    +0.000 A 
ATOM      2  C   UNL     1       1.129   8.389  21.909  0.00  0.00    +0.000 A 
ATOM      3  C   UNL     1       0.581   9.564  22.416  0.00  0.00    +0.000 A 
ATOM      4  C   UNL     1       0.313  10.648  21.587  0.00  0.00    +0.000 A 
ATOM      5  C   UNL     1       0.593  10.550  20.225  0.00  0.00    +0.000 A 
ATOM      6  C   UNL     1       1.142   9.374  19.691  0.00  0.00    +0.000 A 
ATOM      7 BR   UNL     1       1.524   9.284  17.823  0.00  0.00    +0.000 Br
ENDROOT
BRANCH   1   9
ATOM      8  C   UNL     1       1.706   5.823  20.477  0.00  0.00    +0.000 C 
ATOM      9  C   UNL     1       2.060   7.049  20.061  0.00  0.00    +0.000 C 
BRANCH   8  13
ATOM     10  C   UNL     1       3.518   2.233  19.016  0.00  0.00    +0.000 A 
ATOM     11  C   UNL     1       4.281   3.385  19.170  0.00  0.00    +0.000 A 
ATOM     12  C   UNL     1       3.675   4.556  19.644  0.00  0.00    +0.000 A 
ATOM     13  C   UNL     1       2.306   4.583  19.951  0.00  0.00    +0.000 A 
ATOM     14  C   UNL     1       1.565   3.402  19.802  0.00  0.00    +0.000 A 
ATOM     15  C   UNL     1       2.166   2.232  19.328  0.00  0.00    +0.000 A 
BRANCH  10  16
ATOM     16  O   UNL     1       4.065   1.069  18.564  0.00  0.00    +0.000 OA
ATOM     17  H   UNL     1       3.911   1.003  17.607  0.00  0.00    +0.000 HD
ENDBRANCH  10  16
ENDBRANCH   8  13
ENDBRANCH   1   9
BRANCH   3  18
ATOM     18  O   UNL     1       0.297   9.703  23.743  0.00  0.00    +0.000 OA
ATOM     19  H   UNL     1      -0.163  10.548  23.881  0.00  0.00    +0.000 HD
ENDBRANCH   3  18
BRANCH   5  20
ATOM     20  O   UNL     1       0.337  11.622  19.412  0.00  0.00    +0.000 OA
ATOM     21  H   UNL     1      -0.011  11.305  18.562  0.00  0.00    +0.000 HD
ENDBRANCH   5  20
TORSDOF 5
ENDMDL
MODEL 5
REMARK VINA RESULT:      -6.8      7.911      8.828
REMARK  Name = 
REMARK  5 active torsions:
REMARK  status: ('A' for Active; 'I' for Inactive)
REMARK    1  A    between atoms: O_1  and  C_2
REMARK    2  A    between atoms: C_5  and  C_6
REMARK    3  A    between atoms: C_7  and  C_8
REMARK    4  A    between atoms: C_10  and  O_11
REMARK    5  A    between atoms: C_13  and  O_14
REMARK                            x       y       z     vdW  Elec       q    Type
REMARK                         _______ _______ _______ _____ _____    ______ ____
ROOT
ATOM      1  C   UNL     1       1.101   8.688  20.739  0.00  0.00    +0.000 A 
ATOM      2  C   UNL     1       0.577   8.950  22.015  0.00  0.00    +0.000 A 
ATOM      3  C   UNL     1      -0.219  10.073  22.224  0.00  0.00    +0.000 A 
ATOM      4  C   UNL     1      -0.508  10.952  21.186  0.00  0.00    +0.000 A 
ATOM      5  C   UNL     1       0.004  10.697  19.915  0.00  0.00    +0.000 A 
ATOM      6  C   UNL     1       0.805   9.568  19.680  0.00  0.00    +0.000 A 
ATOM      7 BR   UNL     1       1.498   9.261  17.928  0.00  0.00    +0.000 Br
ENDROOT
BRANCH   1   9
ATOM      8  C   UNL     1       1.566   6.256  20.642  0.00  0.00    +0.000 C 
ATOM      9  C   UNL     1       1.991   7.528  20.582  0.00  0.00    +0.000 C 
BRANCH   8  13
ATOM     10  C   UNL     1       4.051   2.835  19.985  0.00  0.00    +0.000 A 
ATOM     11  C   UNL     1       2.947   2.743  20.825  0.00  0.00    +0.000 A 
ATOM     12  C   UNL     1       2.145   3.872  21.038  0.00  0.00    +0.000 A 
ATOM     13  C   UNL     1       2.449   5.096  20.423  0.00  0.00    +0.000 A 
ATOM     14  C   UNL     1       3.558   5.155  19.566  0.00  0.00    +0.000 A 
ATOM     15  C   UNL     1       4.362   4.031  19.354  0.00  0.00    +0.000 A 
BRANCH  10  16
ATOM     16  O   UNL     1       4.857   1.764  19.744  0.00  0.00    +0.000 OA
ATOM     17  H   UNL     1       5.697   1.891  20.216  0.00  0.00    +0.000 HD
ENDBRANCH  10  16
ENDBRANCH   8  13
ENDBRANCH   1   9
BRANCH   3  18
ATOM     18  O   UNL     1      -0.734  10.362  23.453  0.00  0.00    +0.000 OA
ATOM     19  H   UNL     1      -1.613   9.955  23.532  0.00  0.00    +0.000 HD
ENDBRANCH   3  18
BRANCH   5  20
ATOM     20  O   UNL     1      -0.274  11.568  18.895  0.00  0.00    +0.000 OA
ATOM     21  H   UNL     1       0.210  11.297  18.099  0.00  0.00    +0.000 HD
ENDBRANCH   5  20
TORSDOF 5
ENDMDL
MODEL 6
REMARK VINA RESULT:      -6.6      7.737     10.212
REMARK  Name = 
REMARK  5 active torsions:
REMARK  status: ('A' for Active; 'I' for Inactive)
REMARK    1  A    between atoms: O_1  and  C_2
REMARK    2  A    between atoms: C_5  and  C_6
REMARK    3  A    between atoms: C_7  and  C_8
REMARK    4  A    between atoms: C_10  and  O_11
REMARK    5  A    between atoms: C_13  and  O_14
REMARK                            x       y       z     vdW  Elec       q    Type
REMARK                         _______ _______ _______ _____ _____    ______ ____
ROOT
ATOM      1  C   UNL     1       2.674   5.298  20.083  0.00  0.00    +0.000 A 
ATOM      2  C   UNL     1       1.920   4.553  21.005  0.00  0.00    +0.000 A 
ATOM      3  C   UNL     1       2.264   3.233  21.281  0.00  0.00    +0.000 A 
ATOM      4  C   UNL     1       3.350   2.628  20.656  0.00  0.00    +0.000 A 
ATOM      5  C   UNL     1       4.107   3.361  19.744  0.00  0.00    +0.000 A 
ATOM      6  C   UNL     1       3.781   4.694  19.453  0.00  0.00    +0.000 A 
ATOM      7 BR   UNL     1       4.833   5.660  18.187  0.00  0.00    +0.000 Br
ENDROOT
BRANCH   1   9
ATOM      8  C   UNL     1       1.606   7.459  20.656  0.00  0.00    +0.000 C 
ATOM      9  C   UNL     1       2.232   6.665  19.772  0.00  0.00    +0.000 C 
BRANCH   8  13
ATOM     10  C   UNL     1       0.428  11.468  19.735  0.00  0.00    +0.000 A 
ATOM     11  C   UNL     1       0.903  10.633  18.729  0.00  0.00    +0.000 A 
ATOM     12  C   UNL     1       1.292   9.325  19.044  0.00  0.00    +0.000 A 
ATOM     13  C   UNL     1       1.219   8.851  20.363  0.00  0.00    +0.000 A 
ATOM     14  C   UNL     1       0.719   9.709  21.354  0.00  0.00    +0.000 A 
ATOM     15  C   UNL     1       0.332  11.016  21.043  0.00  0.00    +0.000 A 
BRANCH  10  16
ATOM     16  O   UNL     1       0.033  12.746  19.475  0.00  0.00    +0.000 OA
ATOM     17  H   UNL     1      -0.884  12.731  19.157  0.00  0.00    +0.000 HD
ENDBRANCH  10  16
ENDBRANCH   8  13
ENDBRANCH   1   9
BRANCH   3  18
ATOM     18  O   UNL     1       1.547   2.479  22.163  0.00  0.00    +0.000 OA
ATOM     19  H   UNL     1       1.970   2.527  23.037  0.00  0.00    +0.000 HD
ENDBRANCH   3  18
BRANCH   5  20
ATOM     20  O   UNL     1       5.169   2.761  19.123  0.00  0.00    +0.000 OA
ATOM     21  H   UNL     1       4.880   1.921  18.729  0.00  0.00    +0.000 HD
ENDBRANCH   5  20
TORSDOF 5
ENDMDL
MODEL 7
REMARK VINA RESULT:      -6.6      7.678     10.153
REMARK  Name = 
REMARK  5 active torsions:
REMARK  status: ('A' for Active; 'I' for Inactive)
REMARK    1  A    between atoms: O_1  and  C_2
REMARK    2  A    between atoms: C_5  and  C_6
REMARK    3  A    between atoms: C_7  and  C_8
REMARK    4  A    between atoms: C_10  and  O_11
REMARK    5  A    between atoms: C_13  and  O_14
REMARK                            x       y       z     vdW  Elec       q    Type
REMARK                         _______ _______ _______ _____ _____    ______ ____
ROOT
ATOM      1  C   UNL     1       2.708   5.319  20.054  0.00  0.00    +0.000 A 
ATOM      2  C   UNL     1       1.946   4.588  20.980  0.00  0.00    +0.000 A 
ATOM      3  C   UNL     1       2.272   3.264  21.259  0.00  0.00    +0.000 A 
ATOM      4  C   UNL     1       3.347   2.641  20.633  0.00  0.00    +0.000 A 
ATOM      5  C   UNL     1       4.111   3.361  19.716  0.00  0.00    +0.000 A 
ATOM      6  C   UNL     1       3.804   4.699  19.423  0.00  0.00    +0.000 A 
ATOM      7 BR   UNL     1       4.866   5.646  18.151  0.00  0.00    +0.000 Br
ENDROOT
BRANCH   1   9
ATOM      8  C   UNL     1       1.585   7.462  20.591  0.00  0.00    +0.000 C 
ATOM      9  C   UNL     1       2.285   6.692  19.742  0.00  0.00    +0.000 C 
BRANCH   8  13
ATOM     10  C   UNL     1       0.572  11.547  19.816  0.00  0.00    +0.000 A 
ATOM     11  C   UNL     1       0.519  11.049  21.114  0.00  0.00    +0.000 A 
ATOM     12  C   UNL     1       0.847   9.709  21.354  0.00  0.00    +0.000 A 
ATOM     13  C   UNL     1       1.216   8.860  20.300  0.00  0.00    +0.000 A 
ATOM     14  C   UNL     1       1.278   9.392  19.004  0.00  0.00    +0.000 A 
ATOM     15  C   UNL     1       0.949  10.729  18.761  0.00  0.00    +0.000 A 
BRANCH  10  16
ATOM     16  O   UNL     1       0.268  12.845  19.535  0.00  0.00    +0.000 OA
ATOM     17  H   UNL     1      -0.603  13.050  19.913  0.00  0.00    +0.000 HD
ENDBRANCH  10  16
ENDBRANCH   8  13
ENDBRANCH   1   9
BRANCH   3  18
ATOM     18  O   UNL     1       1.547   2.523  22.145  0.00  0.00    +0.000 OA
ATOM     19  H   UNL     1       2.079   1.761  22.431  0.00  0.00    +0.000 HD
ENDBRANCH   3  18
BRANCH   5  20
ATOM     20  O   UNL     1       5.163   2.744  19.093  0.00  0.00    +0.000 OA
ATOM     21  H   UNL     1       5.379   3.221  18.275  0.00  0.00    +0.000 HD
ENDBRANCH   5  20
TORSDOF 5
ENDMDL
MODEL 8
REMARK VINA RESULT:      -6.6      7.602      9.896
REMARK  Name = 
REMARK  5 active torsions:
REMARK  status: ('A' for Active; 'I' for Inactive)
REMARK    1  A    between atoms: O_1  and  C_2
REMARK    2  A    between atoms: C_5  and  C_6
REMARK    3  A    between atoms: C_7  and  C_8
REMARK    4  A    between atoms: C_10  and  O_11
REMARK    5  A    between atoms: C_13  and  O_14
REMARK                            x       y       z     vdW  Elec       q    Type
REMARK                         _______ _______ _______ _____ _____    ______ ____
ROOT
ATOM      1  C   UNL     1       2.738   5.469  18.861  0.00  0.00    +0.000 A 
ATOM      2  C   UNL     1       3.724   5.893  17.955  0.00  0.00    +0.000 A 
ATOM      3  C   UNL     1       4.309   4.979  17.084  0.00  0.00    +0.000 A 
ATOM      4  C   UNL     1       3.937   3.639  17.092  0.00  0.00    +0.000 A 
ATOM      5  C   UNL     1       2.955   3.210  17.984  0.00  0.00    +0.000 A 
ATOM      6  C   UNL     1       2.348   4.115  18.868  0.00  0.00    +0.000 A 
ATOM      7 BR   UNL     1       1.018   3.486  20.084  0.00  0.00    +0.000 Br
ENDROOT
BRANCH   1   9
ATOM      8  C   UNL     1       1.901   7.721  19.467  0.00  0.00    +0.000 C 
ATOM      9  C   UNL     1       2.198   6.457  19.806  0.00  0.00    +0.000 C 
BRANCH   8  13
ATOM     10  C   UNL     1       0.085  10.545  22.120  0.00  0.00    +0.000 A 
ATOM     11  C   UNL     1       0.215  10.843  20.768  0.00  0.00    +0.000 A 
ATOM     12  C   UNL     1       0.816   9.913  19.911  0.00  0.00    +0.000 A 
ATOM     13  C   UNL     1       1.301   8.691  20.401  0.00  0.00    +0.000 A 
ATOM     14  C   UNL     1       1.142   8.409  21.767  0.00  0.00    +0.000 A 
ATOM     15  C   UNL     1       0.543   9.336  22.625  0.00  0.00    +0.000 A 
BRANCH  10  16
ATOM     16  O   UNL     1      -0.498  11.416  22.991  0.00  0.00    +0.000 OA
ATOM     17  H   UNL     1      -0.129  11.265  23.877  0.00  0.00    +0.000 HD
ENDBRANCH  10  16
ENDBRANCH   8  13
ENDBRANCH   1   9
BRANCH   3  18
ATOM     18  O   UNL     1       5.277   5.356  16.200  0.00  0.00    +0.000 OA
ATOM     19  H   UNL     1       6.063   4.800  16.334  0.00  0.00    +0.000 HD
ENDBRANCH   3  18
BRANCH   5  20
ATOM     20  O   UNL     1       2.595   1.889  17.997  0.00  0.00    +0.000 OA
ATOM     21  H   UNL     1       2.394   1.619  18.908  0.00  0.00    +0.000 HD
ENDBRANCH   5  20
TORSDOF 5
ENDMDL
MODEL 9
REMARK VINA RESULT:      -6.6      7.636      9.847
REMARK  Name = 
REMARK  5 active torsions:
REMARK  status: ('A' for Active; 'I' for Inactive)
REMARK    1  A    between atoms: O_1  and  C_2
REMARK    2  A    between atoms: C_5  and  C_6
REMARK    3  A    between atoms: C_7  and  C_8
REMARK    4  A    between atoms: C_10  and  O_11
REMARK    5  A    between atoms: C_13  and  O_14
REMARK                            x       y       z     vdW  Elec       q    Type
REMARK                         _______ _______ _______ _____ _____    ______ ____
ROOT
ATOM      1  C   UNL     1       2.684   5.403  18.829  0.00  0.00    +0.000 A 
ATOM      2  C   UNL     1       3.672   5.853  17.938  0.00  0.00    +0.000 A 
ATOM      3  C   UNL     1       4.316   4.949  17.098  0.00  0.00    +0.000 A 
ATOM      4  C   UNL     1       4.002   3.595  17.123  0.00  0.00    +0.000 A 
ATOM      5  C   UNL     1       3.019   3.140  18.000  0.00  0.00    +0.000 A 
ATOM      6  C   UNL     1       2.353   4.033  18.854  0.00  0.00    +0.000 A 
ATOM      7 BR   UNL     1       1.023   3.369  20.051  0.00  0.00    +0.000 Br
ENDROOT
BRANCH   1   9
ATOM      8  C   UNL     1       1.975   7.691  19.463  0.00  0.00    +0.000 C 
ATOM      9  C   UNL     1       2.080   6.383  19.743  0.00  0.00    +0.000 C 
BRANCH   8  13
ATOM     10  C   UNL     1       0.129  10.504  22.106  0.00  0.00    +0.000 A 
ATOM     11  C   UNL     1       0.632   9.306  22.604  0.00  0.00    +0.000 A 
ATOM     12  C   UNL     1       1.228   8.391  21.727  0.00  0.00    +0.000 A 
ATOM     13  C   UNL     1       1.313   8.661  20.353  0.00  0.00    +0.000 A 
ATOM     14  C   UNL     1       0.814   9.885  19.882  0.00  0.00    +0.000 A 
ATOM     15  C   UNL     1       0.216  10.800  20.754  0.00  0.00    +0.000 A 
BRANCH  10  16
ATOM     16  O   UNL     1      -0.455  11.426  22.921  0.00  0.00    +0.000 OA
ATOM     17  H   UNL     1       0.012  11.431  23.773  0.00  0.00    +0.000 HD
ENDBRANCH  10  16
ENDBRANCH   8  13
ENDBRANCH   1   9
BRANCH   3  18
ATOM     18  O   UNL     1       5.287   5.352  16.229  0.00  0.00    +0.000 OA
ATOM     19  H   UNL     1       4.915   6.014  15.623  0.00  0.00    +0.000 HD
ENDBRANCH   3  18
BRANCH   5  20
ATOM     20  O   UNL     1       2.716   1.805  18.031  0.00  0.00    +0.000 OA
ATOM     21  H   UNL     1       3.532   1.287  17.927  0.00  0.00    +0.000 HD
ENDBRANCH   5  20
TORSDOF 5
ENDMDL
