MODEL 1
REMARK VINA RESULT:      -7.4      0.000      0.000
REMARK  Name = 
REMARK  7 active torsions:
REMARK  status: ('A' for Active; 'I' for Inactive)
REMARK    1  A    between atoms: C_1  and  C_2
REMARK    2  A    between atoms: C_5  and  S_6
REMARK    3  A    between atoms: S_6  and  N_9
REMARK    4  A    between atoms: N_9  and  C_10
REMARK    5  A    between atoms: C_14  and  N_15
REMARK    6  A    between atoms: C_18  and  C_19
REMARK    7  A    between atoms: C_19  and  O_21
REMARK                            x       y       z     vdW  Elec       q    Type
REMARK                         _______ _______ _______ _____ _____    ______ ____
ROOT
ATOM      1  C   UNL     1       3.231   4.940  18.498  0.00  0.00    +0.000 A 
ATOM      2  C   UNL     1       2.789   6.210  18.879  0.00  0.00    +0.000 A 
ATOM      3  C   UNL     1       2.161   6.399  20.113  0.00  0.00    +0.000 A 
ATOM      4  C   UNL     1       1.969   5.315  20.969  0.00  0.00    +0.000 A 
ATOM      5  C   UNL     1       2.438   4.053  20.583  0.00  0.00    +0.000 A 
ATOM      6  C   UNL     1       3.116   3.849  19.382  0.00  0.00    +0.000 A 
ENDROOT
BRANCH   5   7
ATOM      7  N   UNL     1       2.153   2.944  21.454  0.00  0.00    +0.000 N 
ATOM      8  O   UNL     1       3.129   2.412  21.998  0.00  0.00    +0.000 OA
ATOM      9  O   UNL     1       0.974   2.586  21.545  0.00  0.00    +0.000 OA
ENDBRANCH   5   7
BRANCH   1  10
ATOM     10  N   UNL     1       3.863   4.794  17.208  0.00  0.00    +0.000 N 
ATOM     11  H   UNL     1       3.812   3.824  16.855  0.00  0.00    +0.000 HD
BRANCH  10  12
ATOM     12  S   UNL     1       5.486   5.320  17.155  0.00  0.00    +0.000 S 
ATOM     13  O   UNL     1       6.234   4.493  18.080  0.00  0.00    +0.000 OA
ATOM     14  O   UNL     1       5.495   6.762  17.256  0.00  0.00    +0.000 OA
BRANCH  12  19
ATOM     15  C   UNL     1       7.179   3.669  11.560  0.00  0.00    +0.000 C 
ATOM     16  C   UNL     1       6.747   4.121  12.925  0.00  0.00    +0.000 A 
ATOM     17  C   UNL     1       7.564   4.954  13.701  0.00  0.00    +0.000 A 
ATOM     18  C   UNL     1       7.172   5.332  14.988  0.00  0.00    +0.000 A 
ATOM     19  C   UNL     1       5.952   4.878  15.498  0.00  0.00    +0.000 A 
ATOM     20  C   UNL     1       5.116   4.066  14.729  0.00  0.00    +0.000 A 
ATOM     21  C   UNL     1       5.518   3.689  13.445  0.00  0.00    +0.000 A 
ENDBRANCH  12  19
ENDBRANCH  10  12
ENDBRANCH   1  10
BRANCH   6  22
ATOM     22  C   UNL     1       3.668   2.540  18.969  0.00  0.00    +0.000 C 
ATOM     23  O   UNL     1       3.074   1.836  18.164  0.00  0.00    +0.000 OA
BRANCH  22  24
ATOM     24  O   UNL     1       4.882   2.226  19.457  0.00  0.00    +0.000 OA
ATOM     25  H   UNL     1       5.107   2.465  20.379  0.00  0.00    +0.000 HD
ENDBRANCH  22  24
ENDBRANCH   6  22
TORSDOF 6
ENDMDL
MODEL 2
REMARK VINA RESULT:      -7.4      0.158      1.022
REMARK  Name = 
REMARK  7 active torsions:
REMARK  status: ('A' for Active; 'I' for Inactive)
REMARK    1  A    between atoms: C_1  and  C_2
REMARK    2  A    between atoms: C_5  and  S_6
REMARK    3  A    between atoms: S_6  and  N_9
REMARK    4  A    between atoms: N_9  and  C_10
REMARK    5  A    between atoms: C_14  and  N_15
REMARK    6  A    between atoms: C_18  and  C_19
REMARK    7  A    between atoms: C_19  and  O_21
REMARK                            x       y       z     vdW  Elec       q    Type
REMARK                         _______ _______ _______ _____ _____    ______ ____
ROOT
ATOM      1  C   UNL     1       3.243   5.052  18.421  0.00  0.00    +0.000 A 
ATOM      2  C   UNL     1       2.815   6.329  18.800  0.00  0.00    +0.000 A 
ATOM      3  C   UNL     1       2.160   6.522  20.020  0.00  0.00    +0.000 A 
ATOM      4  C   UNL     1       1.925   5.436  20.862  0.00  0.00    +0.000 A 
ATOM      5  C   UNL     1       2.380   4.168  20.479  0.00  0.00    +0.000 A 
ATOM      6  C   UNL     1       3.084   3.958  19.295  0.00  0.00    +0.000 A 
ENDROOT
BRANCH   5   7
ATOM      7  N   UNL     1       2.051   3.059  21.336  0.00  0.00    +0.000 N 
ATOM      8  O   UNL     1       2.967   2.631  22.050  0.00  0.00    +0.000 OA
ATOM      9  O   UNL     1       0.908   2.598  21.249  0.00  0.00    +0.000 OA
ENDBRANCH   5   7
BRANCH   1  10
ATOM     10  N   UNL     1       3.905   4.903  17.147  0.00  0.00    +0.000 N 
ATOM     11  H   UNL     1       3.823   3.942  16.775  0.00  0.00    +0.000 HD
BRANCH  10  12
ATOM     12  S   UNL     1       5.548   5.361  17.148  0.00  0.00    +0.000 S 
ATOM     13  O   UNL     1       6.227   4.517  18.111  0.00  0.00    +0.000 OA
ATOM     14  O   UNL     1       5.613   6.803  17.232  0.00  0.00    +0.000 OA
BRANCH  12  19
ATOM     15  C   UNL     1       7.182   3.841  11.499  0.00  0.00    +0.000 C 
ATOM     16  C   UNL     1       6.795   4.173  12.911  0.00  0.00    +0.000 A 
ATOM     17  C   UNL     1       5.617   3.665  13.474  0.00  0.00    +0.000 A 
ATOM     18  C   UNL     1       5.243   4.017  14.774  0.00  0.00    +0.000 A 
ATOM     19  C   UNL     1       6.057   4.877  15.516  0.00  0.00    +0.000 A 
ATOM     20  C   UNL     1       7.246   5.374  14.978  0.00  0.00    +0.000 A 
ATOM     21  C   UNL     1       7.609   5.021  13.676  0.00  0.00    +0.000 A 
ENDBRANCH  12  19
ENDBRANCH  10  12
ENDBRANCH   1  10
BRANCH   6  22
ATOM     22  C   UNL     1       3.621   2.641  18.887  0.00  0.00    +0.000 C 
ATOM     23  O   UNL     1       3.089   1.998  17.993  0.00  0.00    +0.000 OA
BRANCH  22  24
ATOM     24  O   UNL     1       4.760   2.252  19.488  0.00  0.00    +0.000 OA
ATOM     25  H   UNL     1       5.608   2.318  19.004  0.00  0.00    +0.000 HD
ENDBRANCH  22  24
ENDBRANCH   6  22
TORSDOF 6
ENDMDL
MODEL 3
REMARK VINA RESULT:      -7.4      2.730      3.750
REMARK  Name = 
REMARK  7 active torsions:
REMARK  status: ('A' for Active; 'I' for Inactive)
REMARK    1  A    between atoms: C_1  and  C_2
REMARK    2  A    between atoms: C_5  and  S_6
REMARK    3  A    between atoms: S_6  and  N_9
REMARK    4  A    between atoms: N_9  and  C_10
REMARK    5  A    between atoms: C_14  and  N_15
REMARK    6  A    between atoms: C_18  and  C_19
REMARK    7  A    between atoms: C_19  and  O_21
REMARK                            x       y       z     vdW  Elec       q    Type
REMARK                         _______ _______ _______ _____ _____    ______ ____
ROOT
ATOM      1  C   UNL     1       4.515   4.392  19.025  0.00  0.00    +0.000 A 
ATOM      2  C   UNL     1       4.193   5.743  19.189  0.00  0.00    +0.000 A 
ATOM      3  C   UNL     1       2.953   6.115  19.715  0.00  0.00    +0.000 A 
ATOM      4  C   UNL     1       2.028   5.137  20.074  0.00  0.00    +0.000 A 
ATOM      5  C   UNL     1       2.373   3.788  19.926  0.00  0.00    +0.000 A 
ATOM      6  C   UNL     1       3.624   3.389  19.455  0.00  0.00    +0.000 A 
ENDROOT
BRANCH   5   7
ATOM      7  N   UNL     1       1.366   2.807  20.232  0.00  0.00    +0.000 N 
ATOM      8  O   UNL     1       0.597   2.507  19.310  0.00  0.00    +0.000 OA
ATOM      9  O   UNL     1       1.320   2.389  21.394  0.00  0.00    +0.000 OA
ENDBRANCH   5   7
BRANCH   1  10
ATOM     10  N   UNL     1       5.804   4.059  18.467  0.00  0.00    +0.000 N 
ATOM     11  H   UNL     1       6.574   4.225  19.136  0.00  0.00    +0.000 HD
BRANCH  10  12
ATOM     12  S   UNL     1       6.161   4.849  16.998  0.00  0.00    +0.000 S 
ATOM     13  O   UNL     1       4.903   5.295  16.435  0.00  0.00    +0.000 OA
ATOM     14  O   UNL     1       7.070   4.014  16.246  0.00  0.00    +0.000 OA
BRANCH  12  19
ATOM     15  C   UNL     1       9.084   9.771  19.033  0.00  0.00    +0.000 C 
ATOM     16  C   UNL     1       8.397   8.549  18.495  0.00  0.00    +0.000 A 
ATOM     17  C   UNL     1       7.601   8.616  17.344  0.00  0.00    +0.000 A 
ATOM     18  C   UNL     1       6.929   7.483  16.878  0.00  0.00    +0.000 A 
ATOM     19  C   UNL     1       7.060   6.273  17.566  0.00  0.00    +0.000 A 
ATOM     20  C   UNL     1       7.867   6.184  18.702  0.00  0.00    +0.000 A 
ATOM     21  C   UNL     1       8.531   7.323  19.164  0.00  0.00    +0.000 A 
ENDBRANCH  12  19
ENDBRANCH  10  12
ENDBRANCH   1  10
BRANCH   6  22
ATOM     22  C   UNL     1       4.038   1.974  19.336  0.00  0.00    +0.000 C 
ATOM     23  O   UNL     1       3.539   1.245  18.489  0.00  0.00    +0.000 OA
BRANCH  22  24
ATOM     24  O   UNL     1       5.040   1.577  20.141  0.00  0.00    +0.000 OA
ATOM     25  H   UNL     1       5.936   1.949  20.013  0.00  0.00    +0.000 HD
ENDBRANCH  22  24
ENDBRANCH   6  22
TORSDOF 6
ENDMDL
MODEL 4
REMARK VINA RESULT:      -7.4      2.721      3.594
REMARK  Name = 
REMARK  7 active torsions:
REMARK  status: ('A' for Active; 'I' for Inactive)
REMARK    1  A    between atoms: C_1  and  C_2
REMARK    2  A    between atoms: C_5  and  S_6
REMARK    3  A    between atoms: S_6  and  N_9
REMARK    4  A    between atoms: N_9  and  C_10
REMARK    5  A    between atoms: C_14  and  N_15
REMARK    6  A    between atoms: C_18  and  C_19
REMARK    7  A    between atoms: C_19  and  O_21
REMARK                            x       y       z     vdW  Elec       q    Type
REMARK                         _______ _______ _______ _____ _____    ______ ____
ROOT
ATOM      1  C   UNL     1       3.415   5.107  18.337  0.00  0.00    +0.000 A 
ATOM      2  C   UNL     1       3.280   6.307  19.043  0.00  0.00    +0.000 A 
ATOM      3  C   UNL     1       2.400   6.394  20.126  0.00  0.00    +0.000 A 
ATOM      4  C   UNL     1       1.648   5.282  20.502  0.00  0.00    +0.000 A 
ATOM      5  C   UNL     1       1.811   4.081  19.799  0.00  0.00    +0.000 A 
ATOM      6  C   UNL     1       2.722   3.953  18.751  0.00  0.00    +0.000 A 
ENDROOT
BRANCH   5   7
ATOM      7  N   UNL     1       0.963   2.978  20.164  0.00  0.00    +0.000 N 
ATOM      8  O   UNL     1       0.089   2.667  19.344  0.00  0.00    +0.000 OA
ATOM      9  O   UNL     1       1.142   2.472  21.277  0.00  0.00    +0.000 OA
ENDBRANCH   5   7
BRANCH   1  10
ATOM     10  N   UNL     1       4.328   5.071  17.219  0.00  0.00    +0.000 N 
ATOM     11  H   UNL     1       3.964   4.504  16.436  0.00  0.00    +0.000 HD
BRANCH  10  12
ATOM     12  S   UNL     1       5.900   4.536  17.611  0.00  0.00    +0.000 S 
ATOM     13  O   UNL     1       6.419   3.845  16.447  0.00  0.00    +0.000 OA
ATOM     14  O   UNL     1       5.849   3.897  18.906  0.00  0.00    +0.000 OA
BRANCH  12  19
ATOM     15  C   UNL     1       8.742   9.856  18.331  0.00  0.00    +0.000 C 
ATOM     16  C   UNL     1       8.067   8.533  18.112  0.00  0.00    +0.000 A 
ATOM     17  C   UNL     1       7.025   8.401  17.184  0.00  0.00    +0.000 A 
ATOM     18  C   UNL     1       6.373   7.176  17.020  0.00  0.00    +0.000 A 
ATOM     19  C   UNL     1       6.770   6.076  17.787  0.00  0.00    +0.000 A 
ATOM     20  C   UNL     1       7.820   6.186  18.699  0.00  0.00    +0.000 A 
ATOM     21  C   UNL     1       8.464   7.416  18.860  0.00  0.00    +0.000 A 
ENDBRANCH  12  19
ENDBRANCH  10  12
ENDBRANCH   1  10
BRANCH   6  22
ATOM     22  C   UNL     1       2.955   2.686  18.023  0.00  0.00    +0.000 C 
ATOM     23  O   UNL     1       2.415   2.475  16.946  0.00  0.00    +0.000 OA
BRANCH  22  24
ATOM     24  O   UNL     1       3.850   1.842  18.569  0.00  0.00    +0.000 OA
ATOM     25  H   UNL     1       4.755   2.159  18.761  0.00  0.00    +0.000 HD
ENDBRANCH  22  24
ENDBRANCH   6  22
TORSDOF 6
ENDMDL
MODEL 5
REMARK VINA RESULT:      -7.3      2.756      3.514
REMARK  Name = 
REMARK  7 active torsions:
REMARK  status: ('A' for Active; 'I' for Inactive)
REMARK    1  A    between atoms: C_1  and  C_2
REMARK    2  A    between atoms: C_5  and  S_6
REMARK    3  A    between atoms: S_6  and  N_9
REMARK    4  A    between atoms: N_9  and  C_10
REMARK    5  A    between atoms: C_14  and  N_15
REMARK    6  A    between atoms: C_18  and  C_19
REMARK    7  A    between atoms: C_19  and  O_21
REMARK                            x       y       z     vdW  Elec       q    Type
REMARK                         _______ _______ _______ _____ _____    ______ ____
ROOT
ATOM      1  C   UNL     1       3.490   5.075  18.295  0.00  0.00    +0.000 A 
ATOM      2  C   UNL     1       3.347   6.285  18.981  0.00  0.00    +0.000 A 
ATOM      3  C   UNL     1       2.465   6.385  20.061  0.00  0.00    +0.000 A 
ATOM      4  C   UNL     1       1.717   5.276  20.453  0.00  0.00    +0.000 A 
ATOM      5  C   UNL     1       1.887   4.066  19.770  0.00  0.00    +0.000 A 
ATOM      6  C   UNL     1       2.801   3.924  18.726  0.00  0.00    +0.000 A 
ENDROOT
BRANCH   5   7
ATOM      7  N   UNL     1       1.043   2.965  20.151  0.00  0.00    +0.000 N 
ATOM      8  O   UNL     1       1.384   2.340  21.164  0.00  0.00    +0.000 OA
ATOM      9  O   UNL     1       0.086   2.705  19.413  0.00  0.00    +0.000 OA
ENDBRANCH   5   7
BRANCH   1  10
ATOM     10  N   UNL     1       4.405   5.024  17.179  0.00  0.00    +0.000 N 
ATOM     11  H   UNL     1       4.065   4.408  16.423  0.00  0.00    +0.000 HD
BRANCH  10  12
ATOM     12  S   UNL     1       5.997   4.572  17.594  0.00  0.00    +0.000 S 
ATOM     13  O   UNL     1       6.578   3.935  16.429  0.00  0.00    +0.000 OA
ATOM     14  O   UNL     1       5.956   3.906  18.876  0.00  0.00    +0.000 OA
BRANCH  12  19
ATOM     15  C   UNL     1       8.781   9.933  18.236  0.00  0.00    +0.000 C 
ATOM     16  C   UNL     1       8.067   8.617  18.119  0.00  0.00    +0.000 A 
ATOM     17  C   UNL     1       8.475   7.506  18.871  0.00  0.00    +0.000 A 
ATOM     18  C   UNL     1       7.833   6.274  18.721  0.00  0.00    +0.000 A 
ATOM     19  C   UNL     1       6.773   6.155  17.817  0.00  0.00    +0.000 A 
ATOM     20  C   UNL     1       6.341   7.257  17.077  0.00  0.00    +0.000 A 
ATOM     21  C   UNL     1       6.991   8.484  17.230  0.00  0.00    +0.000 A 
ENDBRANCH  12  19
ENDBRANCH  10  12
ENDBRANCH   1  10
BRANCH   6  22
ATOM     22  C   UNL     1       3.040   2.647  18.019  0.00  0.00    +0.000 C 
ATOM     23  O   UNL     1       2.404   2.358  17.015  0.00  0.00    +0.000 OA
BRANCH  22  24
ATOM     24  O   UNL     1       4.044   1.885  18.491  0.00  0.00    +0.000 OA
ATOM     25  H   UNL     1       4.430   1.190  17.921  0.00  0.00    +0.000 HD
ENDBRANCH  22  24
ENDBRANCH   6  22
TORSDOF 6
ENDMDL
MODEL 6
REMARK VINA RESULT:      -7.3      2.759      3.782
REMARK  Name = 
REMARK  7 active torsions:
REMARK  status: ('A' for Active; 'I' for Inactive)
REMARK    1  A    between atoms: C_1  and  C_2
REMARK    2  A    between atoms: C_5  and  S_6
REMARK    3  A    between atoms: S_6  and  N_9
REMARK    4  A    between atoms: N_9  and  C_10
REMARK    5  A    between atoms: C_14  and  N_15
REMARK    6  A    between atoms: C_18  and  C_19
REMARK    7  A    between atoms: C_19  and  O_21
REMARK                            x       y       z     vdW  Elec       q    Type
REMARK                         _______ _______ _______ _____ _____    ______ ____
ROOT
ATOM      1  C   UNL     1       4.498   4.413  19.070  0.00  0.00    +0.000 A 
ATOM      2  C   UNL     1       4.173   5.767  19.201  0.00  0.00    +0.000 A 
ATOM      3  C   UNL     1       2.924   6.149  19.697  0.00  0.00    +0.000 A 
ATOM      4  C   UNL     1       1.992   5.178  20.059  0.00  0.00    +0.000 A 
ATOM      5  C   UNL     1       2.340   3.826  19.943  0.00  0.00    +0.000 A 
ATOM      6  C   UNL     1       3.599   3.419  19.503  0.00  0.00    +0.000 A 
ENDROOT
BRANCH   5   7
ATOM      7  N   UNL     1       1.327   2.851  20.251  0.00  0.00    +0.000 N 
ATOM      8  O   UNL     1       0.634   2.465  19.300  0.00  0.00    +0.000 OA
ATOM      9  O   UNL     1       1.201   2.523  21.435  0.00  0.00    +0.000 OA
ENDBRANCH   5   7
BRANCH   1  10
ATOM     10  N   UNL     1       5.796   4.069  18.541  0.00  0.00    +0.000 N 
ATOM     11  H   UNL     1       6.554   4.249  19.220  0.00  0.00    +0.000 HD
BRANCH  10  12
ATOM     12  S   UNL     1       6.179   4.831  17.063  0.00  0.00    +0.000 S 
ATOM     13  O   UNL     1       4.927   5.204  16.437  0.00  0.00    +0.000 OA
ATOM     14  O   UNL     1       7.152   4.013  16.374  0.00  0.00    +0.000 OA
BRANCH  12  19
ATOM     15  C   UNL     1       9.109   9.836  18.872  0.00  0.00    +0.000 C 
ATOM     16  C   UNL     1       8.352   8.605  18.462  0.00  0.00    +0.000 A 
ATOM     17  C   UNL     1       8.540   7.388  19.130  0.00  0.00    +0.000 A 
ATOM     18  C   UNL     1       7.865   6.237  18.711  0.00  0.00    +0.000 A 
ATOM     19  C   UNL     1       6.993   6.308  17.621  0.00  0.00    +0.000 A 
ATOM     20  C   UNL     1       6.778   7.519  16.959  0.00  0.00    +0.000 A 
ATOM     21  C   UNL     1       7.461   8.663  17.381  0.00  0.00    +0.000 A 
ENDBRANCH  12  19
ENDBRANCH  10  12
ENDBRANCH   1  10
BRANCH   6  22
ATOM     22  C   UNL     1       4.014   2.001  19.418  0.00  0.00    +0.000 C 
ATOM     23  O   UNL     1       4.869   1.553  20.170  0.00  0.00    +0.000 OA
BRANCH  22  24
ATOM     24  O   UNL     1       3.339   1.235  18.542  0.00  0.00    +0.000 OA
ATOM     25  H   UNL     1       3.830   0.617  17.964  0.00  0.00    +0.000 HD
ENDBRANCH  22  24
ENDBRANCH   6  22
TORSDOF 6
ENDMDL
MODEL 7
REMARK VINA RESULT:      -7.3      3.555      6.041
REMARK  Name = 
REMARK  7 active torsions:
REMARK  status: ('A' for Active; 'I' for Inactive)
REMARK    1  A    between atoms: C_1  and  C_2
REMARK    2  A    between atoms: C_5  and  S_6
REMARK    3  A    between atoms: S_6  and  N_9
REMARK    4  A    between atoms: N_9  and  C_10
REMARK    5  A    between atoms: C_14  and  N_15
REMARK    6  A    between atoms: C_18  and  C_19
REMARK    7  A    between atoms: C_19  and  O_21
REMARK                            x       y       z     vdW  Elec       q    Type
REMARK                         _______ _______ _______ _____ _____    ______ ____
ROOT
ATOM      1  C   UNL     1       3.188   5.041  20.088  0.00  0.00    +0.000 A 
ATOM      2  C   UNL     1       2.054   4.845  20.883  0.00  0.00    +0.000 A 
ATOM      3  C   UNL     1       1.662   3.554  21.248  0.00  0.00    +0.000 A 
ATOM      4  C   UNL     1       2.399   2.454  20.813  0.00  0.00    +0.000 A 
ATOM      5  C   UNL     1       3.544   2.668  20.036  0.00  0.00    +0.000 A 
ATOM      6  C   UNL     1       3.988   3.947  19.705  0.00  0.00    +0.000 A 
ENDROOT
BRANCH   5   7
ATOM      7  N   UNL     1       4.236   1.507  19.540  0.00  0.00    +0.000 N 
ATOM      8  O   UNL     1       5.192   1.110  20.218  0.00  0.00    +0.000 OA
ATOM      9  O   UNL     1       3.854   1.041  18.462  0.00  0.00    +0.000 OA
ENDBRANCH   5   7
BRANCH   1  10
ATOM     10  N   UNL     1       3.545   6.393  19.728  0.00  0.00    +0.000 N 
ATOM     11  H   UNL     1       3.337   7.066  20.484  0.00  0.00    +0.000 HD
BRANCH  10  12
ATOM     12  S   UNL     1       2.837   6.947  18.278  0.00  0.00    +0.000 S 
ATOM     13  O   UNL     1       1.967   5.893  17.797  0.00  0.00    +0.000 OA
ATOM     14  O   UNL     1       3.884   7.498  17.448  0.00  0.00    +0.000 OA
BRANCH  12  19
ATOM     15  C   UNL     1      -0.762  11.437  20.225  0.00  0.00    +0.000 C 
ATOM     16  C   UNL     1       0.166  10.359  19.744  0.00  0.00    +0.000 A 
ATOM     17  C   UNL     1       0.530  10.270  18.394  0.00  0.00    +0.000 A 
ATOM     18  C   UNL     1       1.357   9.236  17.948  0.00  0.00    +0.000 A 
ATOM     19  C   UNL     1       1.828   8.288  18.862  0.00  0.00    +0.000 A 
ATOM     20  C   UNL     1       1.493   8.375  20.214  0.00  0.00    +0.000 A 
ATOM     21  C   UNL     1       0.660   9.409  20.650  0.00  0.00    +0.000 A 
ENDBRANCH  12  19
ENDBRANCH  10  12
ENDBRANCH   1  10
BRANCH   6  22
ATOM     22  C   UNL     1       5.222   4.208  18.930  0.00  0.00    +0.000 C 
ATOM     23  O   UNL     1       6.191   4.737  19.455  0.00  0.00    +0.000 OA
BRANCH  22  24
ATOM     24  O   UNL     1       5.236   3.750  17.664  0.00  0.00    +0.000 OA
ATOM     25  H   UNL     1       4.690   4.195  16.985  0.00  0.00    +0.000 HD
ENDBRANCH  22  24
ENDBRANCH   6  22
TORSDOF 6
ENDMDL
MODEL 8
REMARK VINA RESULT:      -7.3      3.544      6.051
REMARK  Name = 
REMARK  7 active torsions:
REMARK  status: ('A' for Active; 'I' for Inactive)
REMARK    1  A    between atoms: C_1  and  C_2
REMARK    2  A    between atoms: C_5  and  S_6
REMARK    3  A    between atoms: S_6  and  N_9
REMARK    4  A    between atoms: N_9  and  C_10
REMARK    5  A    between atoms: C_14  and  N_15
REMARK    6  A    between atoms: C_18  and  C_19
REMARK    7  A    between atoms: C_19  and  O_21
REMARK                            x       y       z     vdW  Elec       q    Type
REMARK                         _______ _______ _______ _____ _____    ______ ____
ROOT
ATOM      1  C   UNL     1       3.239   5.033  20.095  0.00  0.00    +0.000 A 
ATOM      2  C   UNL     1       2.123   4.840  20.917  0.00  0.00    +0.000 A 
ATOM      3  C   UNL     1       1.748   3.552  21.308  0.00  0.00    +0.000 A 
ATOM      4  C   UNL     1       2.484   2.451  20.873  0.00  0.00    +0.000 A 
ATOM      5  C   UNL     1       3.611   2.662  20.069  0.00  0.00    +0.000 A 
ATOM      6  C   UNL     1       4.039   3.939  19.710  0.00  0.00    +0.000 A 
ENDROOT
BRANCH   5   7
ATOM      7  N   UNL     1       4.300   1.499  19.574  0.00  0.00    +0.000 N 
ATOM      8  O   UNL     1       3.864   1.012  18.523  0.00  0.00    +0.000 OA
ATOM      9  O   UNL     1       5.228   1.058  20.261  0.00  0.00    +0.000 OA
ENDBRANCH   5   7
BRANCH   1  10
ATOM     10  N   UNL     1       3.579   6.382  19.709  0.00  0.00    +0.000 N 
ATOM     11  H   UNL     1       3.376   7.065  20.457  0.00  0.00    +0.000 HD
BRANCH  10  12
ATOM     12  S   UNL     1       2.845   6.907  18.261  0.00  0.00    +0.000 S 
ATOM     13  O   UNL     1       1.967   5.844  17.817  0.00  0.00    +0.000 OA
ATOM     14  O   UNL     1       3.877   7.441  17.401  0.00  0.00    +0.000 OA
BRANCH  12  19
ATOM     15  C   UNL     1      -0.413  11.622  20.275  0.00  0.00    +0.000 C 
ATOM     16  C   UNL     1       0.351  10.429  19.777  0.00  0.00    +0.000 A 
ATOM     17  C   UNL     1       0.749   9.410  20.653  0.00  0.00    +0.000 A 
ATOM     18  C   UNL     1       1.499   8.327  20.187  0.00  0.00    +0.000 A 
ATOM     19  C   UNL     1       1.847   8.260  18.835  0.00  0.00    +0.000 A 
ATOM     20  C   UNL     1       1.440   9.256  17.945  0.00  0.00    +0.000 A 
ATOM     21  C   UNL     1       0.695  10.339  18.420  0.00  0.00    +0.000 A 
ENDBRANCH  12  19
ENDBRANCH  10  12
ENDBRANCH   1  10
BRANCH   6  22
ATOM     22  C   UNL     1       5.254   4.197  18.906  0.00  0.00    +0.000 C 
ATOM     23  O   UNL     1       6.239   4.718  19.410  0.00  0.00    +0.000 OA
BRANCH  22  24
ATOM     24  O   UNL     1       5.234   3.748  17.638  0.00  0.00    +0.000 OA
ATOM     25  H   UNL     1       5.953   3.165  17.322  0.00  0.00    +0.000 HD
ENDBRANCH  22  24
ENDBRANCH   6  22
TORSDOF 6
ENDMDL
MODEL 9
REMARK VINA RESULT:      -7.2      1.620      2.070
REMARK  Name = 
REMARK  7 active torsions:
REMARK  status: ('A' for Active; 'I' for Inactive)
REMARK    1  A    between atoms: C_1  and  C_2
REMARK    2  A    between atoms: C_5  and  S_6
REMARK    3  A    between atoms: S_6  and  N_9
REMARK    4  A    between atoms: N_9  and  C_10
REMARK    5  A    between atoms: C_14  and  N_15
REMARK    6  A    between atoms: C_18  and  C_19
REMARK    7  A    between atoms: C_19  and  O_21
REMARK                            x       y       z     vdW  Elec       q    Type
REMARK                         _______ _______ _______ _____ _____    ______ ____
ROOT
ATOM      1  C   UNL     1       4.905   4.628  18.581  0.00  0.00    +0.000 A 
ATOM      2  C   UNL     1       4.803   5.964  18.180  0.00  0.00    +0.000 A 
ATOM      3  C   UNL     1       3.551   6.572  18.057  0.00  0.00    +0.000 A 
ATOM      4  C   UNL     1       2.394   5.842  18.327  0.00  0.00    +0.000 A 
ATOM      5  C   UNL     1       2.513   4.512  18.749  0.00  0.00    +0.000 A 
ATOM      6  C   UNL     1       3.752   3.899  18.934  0.00  0.00    +0.000 A 
ENDROOT
BRANCH   5   7
ATOM      7  N   UNL     1       1.298   3.766  18.944  0.00  0.00    +0.000 N 
ATOM      8  O   UNL     1       0.776   3.855  20.062  0.00  0.00    +0.000 OA
ATOM      9  O   UNL     1       0.910   3.064  18.004  0.00  0.00    +0.000 OA
ENDBRANCH   5   7
BRANCH   1  10
ATOM     10  N   UNL     1       6.221   4.043  18.683  0.00  0.00    +0.000 N 
ATOM     11  H   UNL     1       6.553   3.996  19.660  0.00  0.00    +0.000 HD
BRANCH  10  12
ATOM     12  S   UNL     1       7.409   4.809  17.727  0.00  0.00    +0.000 S 
ATOM     13  O   UNL     1       8.654   4.100  17.943  0.00  0.00    +0.000 OA
ATOM     14  O   UNL     1       7.307   6.235  17.940  0.00  0.00    +0.000 OA
BRANCH  12  19
ATOM     15  C   UNL     1       5.572   3.461  12.096  0.00  0.00    +0.000 C 
ATOM     16  C   UNL     1       6.000   3.837  13.486  0.00  0.00    +0.000 A 
ATOM     17  C   UNL     1       7.041   4.750  13.697  0.00  0.00    +0.000 A 
ATOM     18  C   UNL     1       7.462   5.058  14.994  0.00  0.00    +0.000 A 
ATOM     19  C   UNL     1       6.833   4.452  16.085  0.00  0.00    +0.000 A 
ATOM     20  C   UNL     1       5.779   3.556  15.891  0.00  0.00    +0.000 A 
ATOM     21  C   UNL     1       5.368   3.250  14.592  0.00  0.00    +0.000 A 
ENDBRANCH  12  19
ENDBRANCH  10  12
ENDBRANCH   1  10
BRANCH   6  22
ATOM     22  C   UNL     1       3.912   2.514  19.427  0.00  0.00    +0.000 C 
ATOM     23  O   UNL     1       3.928   2.274  20.626  0.00  0.00    +0.000 OA
BRANCH  22  24
ATOM     24  O   UNL     1       3.945   1.549  18.489  0.00  0.00    +0.000 OA
ATOM     25  H   UNL     1       3.437   1.665  17.661  0.00  0.00    +0.000 HD
ENDBRANCH  22  24
ENDBRANCH   6  22
TORSDOF 6
ENDMDL
