MODEL 1
REMARK VINA RESULT:      -8.1      0.000      0.000
REMARK  Name = 
REMARK  19 active torsions:
REMARK  status: ('A' for Active; 'I' for Inactive)
REMARK    1  A    between atoms: C_1  and  C_2
REMARK    2  A    between atoms: C_2  and  C_3
REMARK    3  A    between atoms: C_3  and  C_4
REMARK    4  A    between atoms: C_4  and  C_5
REMARK    5  A    between atoms: C_4  and  N_16
REMARK    6  A    between atoms: N_7  and  C_8
REMARK    7  A    between atoms: C_8  and  C_9
REMARK    8  A    between atoms: C_8  and  C_13
REMARK    9  A    between atoms: C_9  and  C_10
REMARK   10  A    between atoms: C_10  and  C_11
REMARK   11  A    between atoms: C_10  and  C_12
REMARK   12  A    between atoms: C_19  and  C_20
REMARK   13  A    between atoms: C_19  and  N_23
REMARK   14  A    between atoms: C_20  and  C_21
REMARK   15  A    between atoms: C_21  and  C_22
REMARK   16  A    between atoms: N_23  and  C_24
REMARK   17  A    between atoms: C_24  and  C_25
REMARK   18  A    between atoms: C_25  and  C_26
REMARK   19  A    between atoms: C_26  and  C_27
REMARK                            x       y       z     vdW  Elec       q    Type
REMARK                         _______ _______ _______ _____ _____    ______ ____
ROOT
ATOM      1  N   UNL     1       4.358   5.901  17.944  0.00  0.00    +0.000 N 
ATOM      2  C   UNL     1       5.007   5.327  19.095  0.00  0.00    +0.000 C 
ATOM      3  C   UNL     1       6.478   5.631  18.892  0.00  0.00    +0.000 C 
ATOM      4  C   UNL     1       6.672   5.807  17.371  0.00  0.00    +0.000 C 
ATOM      5  C   UNL     1       5.257   6.299  16.959  0.00  0.00    +0.000 C 
ATOM      6  O   UNL     1       4.943   6.935  15.962  0.00  0.00    +0.000 OA
ENDROOT
BRANCH   4   7
ATOM      7  N   UNL     1       7.697   6.850  17.070  0.00  0.00    +0.000 NA
ATOM      8  H   UNL     1       7.370   7.442  16.306  0.00  0.00    +0.000 HD
BRANCH   7   9
ATOM      9  C   UNL     1       8.039   7.675  18.231  0.00  0.00    +0.000 C 
BRANCH   9  10
ATOM     10  C   UNL     1       8.025   9.175  17.928  0.00  0.00    +0.000 C 
BRANCH  10  11
ATOM     11  C   UNL     1       9.303   9.802  18.511  0.00  0.00    +0.000 C 
BRANCH  11  12
ATOM     12  C   UNL     1       9.338  11.339  18.487  0.00  0.00    +0.000 C 
ATOM     13  C   UNL     1       9.192  11.984  19.876  0.00  0.00    +0.000 C 
ATOM     14  C   UNL     1      10.462  11.931  20.725  0.00  0.00    +0.000 C 
ATOM     15  C   UNL     1      11.665  12.484  19.969  0.00  0.00    +0.000 C 
ATOM     16  C   UNL     1      11.869  11.738  18.658  0.00  0.00    +0.000 C 
ATOM     17  C   UNL     1      10.621  11.829  17.782  0.00  0.00    +0.000 C 
ENDBRANCH  11  12
ENDBRANCH  10  11
ENDBRANCH   9  10
ENDBRANCH   7   9
ENDBRANCH   4   7
BRANCH   1  18
ATOM     18  C   UNL     1       2.908   6.136  17.865  0.00  0.00    +0.000 C 
BRANCH  18  19
ATOM     19  C   UNL     1       2.629   7.576  18.345  0.00  0.00    +0.000 C 
ATOM     20  O   UNL     1       3.082   8.571  17.785  0.00  0.00    +0.000 OA
ATOM     21  N   UNL     1       1.789   7.645  19.440  0.00  0.00    +0.000 N 
ATOM     22  H   UNL     1       1.138   6.864  19.545  0.00  0.00    +0.000 HD
BRANCH  21  23
ATOM     23  C   UNL     1       1.464   8.932  20.065  0.00  0.00    +0.000 C 
BRANCH  23  24
ATOM     24  C   UNL     1       0.652   8.733  21.364  0.00  0.00    +0.000 C 
ATOM     25  N   UNL     1       1.151   9.307  22.500  0.00  0.00    +0.000 N 
ATOM     26  O   UNL     1      -0.318   7.983  21.447  0.00  0.00    +0.000 OA
ATOM     27  H   UNL     1       1.733  10.131  22.456  0.00  0.00    +0.000 HD
ATOM     28  H   UNL     1       0.582   9.195  23.334  0.00  0.00    +0.000 HD
ENDBRANCH  23  24
BRANCH  23  29
ATOM     29  C   UNL     1       0.731   9.833  19.058  0.00  0.00    +0.000 C 
BRANCH  29  30
ATOM     30  C   UNL     1      -0.553  10.510  19.584  0.00  0.00    +0.000 C 
ATOM     31  C   UNL     1      -0.346  11.968  19.995  0.00  0.00    +0.000 C 
ATOM     32  C   UNL     1      -1.659  10.434  18.528  0.00  0.00    +0.000 C 
ENDBRANCH  29  30
ENDBRANCH  23  29
ENDBRANCH  21  23
ENDBRANCH  18  19
BRANCH  18  33
ATOM     33  C   UNL     1       2.080   5.106  18.658  0.00  0.00    +0.000 C 
BRANCH  33  35
ATOM     34  C   UNL     1       2.504   2.884  17.533  0.00  0.00    +0.000 C 
ATOM     35  C   UNL     1       1.498   4.001  17.771  0.00  0.00    +0.000 C 
ENDBRANCH  33  35
ENDBRANCH  18  33
ENDBRANCH   1  18
BRANCH   4  36
ATOM     36  C   UNL     1       7.034   4.505  16.607  0.00  0.00    +0.000 C 
BRANCH  36  37
ATOM     37  C   UNL     1       5.939   3.818  15.788  0.00  0.00    +0.000 C 
ATOM     38  C   UNL     1       6.227   3.948  14.297  0.00  0.00    +0.000 C 
ENDBRANCH  36  37
ENDBRANCH   4  36
TORSDOF 15
ENDMDL
MODEL 2
REMARK VINA RESULT:      -7.8      0.776      1.122
REMARK  Name = 
REMARK  19 active torsions:
REMARK  status: ('A' for Active; 'I' for Inactive)
REMARK    1  A    between atoms: C_1  and  C_2
REMARK    2  A    between atoms: C_2  and  C_3
REMARK    3  A    between atoms: C_3  and  C_4
REMARK    4  A    between atoms: C_4  and  C_5
REMARK    5  A    between atoms: C_4  and  N_16
REMARK    6  A    between atoms: N_7  and  C_8
REMARK    7  A    between atoms: C_8  and  C_9
REMARK    8  A    between atoms: C_8  and  C_13
REMARK    9  A    between atoms: C_9  and  C_10
REMARK   10  A    between atoms: C_10  and  C_11
REMARK   11  A    between atoms: C_10  and  C_12
REMARK   12  A    between atoms: C_19  and  C_20
REMARK   13  A    between atoms: C_19  and  N_23
REMARK   14  A    between atoms: C_20  and  C_21
REMARK   15  A    between atoms: C_21  and  C_22
REMARK   16  A    between atoms: N_23  and  C_24
REMARK   17  A    between atoms: C_24  and  C_25
REMARK   18  A    between atoms: C_25  and  C_26
REMARK   19  A    between atoms: C_26  and  C_27
REMARK                            x       y       z     vdW  Elec       q    Type
REMARK                         _______ _______ _______ _____ _____    ______ ____
ROOT
ATOM      1  N   UNL     1       4.431   5.983  17.931  0.00  0.00    +0.000 N 
ATOM      2  C   UNL     1       5.095   5.483  19.108  0.00  0.00    +0.000 C 
ATOM      3  C   UNL     1       6.558   5.815  18.889  0.00  0.00    +0.000 C 
ATOM      4  C   UNL     1       6.747   5.920  17.360  0.00  0.00    +0.000 C 
ATOM      5  C   UNL     1       5.320   6.354  16.926  0.00  0.00    +0.000 C 
ATOM      6  O   UNL     1       4.989   6.932  15.900  0.00  0.00    +0.000 OA
ENDROOT
BRANCH   4   7
ATOM      7  N   UNL     1       7.745   6.974  17.006  0.00  0.00    +0.000 NA
ATOM      8  H   UNL     1       7.818   7.050  15.991  0.00  0.00    +0.000 HD
BRANCH   7   9
ATOM      9  C   UNL     1       7.431   8.283  17.584  0.00  0.00    +0.000 C 
BRANCH   9  10
ATOM     10  C   UNL     1       8.592   8.883  18.379  0.00  0.00    +0.000 C 
BRANCH  10  11
ATOM     11  C   UNL     1       8.950  10.247  17.764  0.00  0.00    +0.000 C 
BRANCH  11  12
ATOM     12  C   UNL     1       9.118  11.390  18.779  0.00  0.00    +0.000 C 
ATOM     13  C   UNL     1      10.348  11.233  19.691  0.00  0.00    +0.000 C 
ATOM     14  C   UNL     1      11.673  11.587  19.016  0.00  0.00    +0.000 C 
ATOM     15  C   UNL     1      11.623  12.966  18.369  0.00  0.00    +0.000 C 
ATOM     16  C   UNL     1      10.477  13.053  17.370  0.00  0.00    +0.000 C 
ATOM     17  C   UNL     1       9.142  12.750  18.048  0.00  0.00    +0.000 C 
ENDBRANCH  11  12
ENDBRANCH  10  11
ENDBRANCH   9  10
ENDBRANCH   7   9
ENDBRANCH   4   7
BRANCH   1  18
ATOM     18  C   UNL     1       2.976   6.175  17.842  0.00  0.00    +0.000 C 
BRANCH  18  19
ATOM     19  C   UNL     1       2.652   7.608  18.315  0.00  0.00    +0.000 C 
ATOM     20  O   UNL     1       3.080   8.613  17.752  0.00  0.00    +0.000 OA
ATOM     21  N   UNL     1       1.805   7.657  19.406  0.00  0.00    +0.000 N 
ATOM     22  H   UNL     1       1.176   6.858  19.510  0.00  0.00    +0.000 HD
BRANCH  21  23
ATOM     23  C   UNL     1       1.440   8.937  20.023  0.00  0.00    +0.000 C 
BRANCH  23  24
ATOM     24  C   UNL     1       0.927   8.734  21.466  0.00  0.00    +0.000 C 
ATOM     25  N   UNL     1       1.843   8.866  22.472  0.00  0.00    +0.000 N 
ATOM     26  O   UNL     1      -0.202   8.330  21.732  0.00  0.00    +0.000 OA
ATOM     27  H   UNL     1       2.657   9.453  22.363  0.00  0.00    +0.000 HD
ATOM     28  H   UNL     1       1.477   8.766  23.415  0.00  0.00    +0.000 HD
ENDBRANCH  23  24
BRANCH  23  29
ATOM     29  C   UNL     1       0.413   9.669  19.143  0.00  0.00    +0.000 C 
BRANCH  29  30
ATOM     30  C   UNL     1       0.669  11.178  18.938  0.00  0.00    +0.000 C 
ATOM     31  C   UNL     1      -0.590  11.964  18.574  0.00  0.00    +0.000 C 
ATOM     32  C   UNL     1       1.297  11.781  20.198  0.00  0.00    +0.000 C 
ENDBRANCH  29  30
ENDBRANCH  23  29
ENDBRANCH  21  23
ENDBRANCH  18  19
BRANCH  18  33
ATOM     33  C   UNL     1       2.174   5.125  18.635  0.00  0.00    +0.000 C 
BRANCH  33  35
ATOM     34  C   UNL     1       1.103   2.837  18.623  0.00  0.00    +0.000 C 
ATOM     35  C   UNL     1       1.781   3.911  17.786  0.00  0.00    +0.000 C 
ENDBRANCH  33  35
ENDBRANCH  18  33
ENDBRANCH   1  18
BRANCH   4  36
ATOM     36  C   UNL     1       7.143   4.593  16.661  0.00  0.00    +0.000 C 
BRANCH  36  37
ATOM     37  C   UNL     1       6.090   3.880  15.810  0.00  0.00    +0.000 C 
ATOM     38  C   UNL     1       6.392   4.062  14.326  0.00  0.00    +0.000 C 
ENDBRANCH  36  37
ENDBRANCH   4  36
TORSDOF 15
ENDMDL
MODEL 3
REMARK VINA RESULT:      -7.7      0.780      1.086
REMARK  Name = 
REMARK  19 active torsions:
REMARK  status: ('A' for Active; 'I' for Inactive)
REMARK    1  A    between atoms: C_1  and  C_2
REMARK    2  A    between atoms: C_2  and  C_3
REMARK    3  A    between atoms: C_3  and  C_4
REMARK    4  A    between atoms: C_4  and  C_5
REMARK    5  A    between atoms: C_4  and  N_16
REMARK    6  A    between atoms: N_7  and  C_8
REMARK    7  A    between atoms: C_8  and  C_9
REMARK    8  A    between atoms: C_8  and  C_13
REMARK    9  A    between atoms: C_9  and  C_10
REMARK   10  A    between atoms: C_10  and  C_11
REMARK   11  A    between atoms: C_10  and  C_12
REMARK   12  A    between atoms: C_19  and  C_20
REMARK   13  A    between atoms: C_19  and  N_23
REMARK   14  A    between atoms: C_20  and  C_21
REMARK   15  A    between atoms: C_21  and  C_22
REMARK   16  A    between atoms: N_23  and  C_24
REMARK   17  A    between atoms: C_24  and  C_25
REMARK   18  A    between atoms: C_25  and  C_26
REMARK   19  A    between atoms: C_26  and  C_27
REMARK                            x       y       z     vdW  Elec       q    Type
REMARK                         _______ _______ _______ _____ _____    ______ ____
ROOT
ATOM      1  N   UNL     1       4.489   5.941  17.814  0.00  0.00    +0.000 N 
ATOM      2  C   UNL     1       5.192   5.437  18.966  0.00  0.00    +0.000 C 
ATOM      3  C   UNL     1       6.634   5.847  18.740  0.00  0.00    +0.000 C 
ATOM      4  C   UNL     1       6.797   6.010  17.214  0.00  0.00    +0.000 C 
ATOM      5  C   UNL     1       5.345   6.388  16.811  0.00  0.00    +0.000 C 
ATOM      6  O   UNL     1       4.973   6.981  15.808  0.00  0.00    +0.000 OA
ENDROOT
BRANCH   4   7
ATOM      7  N   UNL     1       7.738   7.122  16.883  0.00  0.00    +0.000 NA
ATOM      8  H   UNL     1       7.756   7.266  15.873  0.00  0.00    +0.000 HD
BRANCH   7   9
ATOM      9  C   UNL     1       7.409   8.378  17.562  0.00  0.00    +0.000 C 
BRANCH   9  10
ATOM     10  C   UNL     1       8.602   8.995  18.294  0.00  0.00    +0.000 C 
BRANCH  10  11
ATOM     11  C   UNL     1       8.581  10.516  18.062  0.00  0.00    +0.000 C 
BRANCH  11  12
ATOM     12  C   UNL     1       9.960  11.196  18.105  0.00  0.00    +0.000 C 
ATOM     13  C   UNL     1       9.934  12.677  17.686  0.00  0.00    +0.000 C 
ATOM     14  C   UNL     1       9.395  13.619  18.762  0.00  0.00    +0.000 C 
ATOM     15  C   UNL     1      10.113  13.420  20.093  0.00  0.00    +0.000 C 
ATOM     16  C   UNL     1      10.009  11.973  20.552  0.00  0.00    +0.000 C 
ATOM     17  C   UNL     1      10.592  11.027  19.503  0.00  0.00    +0.000 C 
ENDBRANCH  11  12
ENDBRANCH  10  11
ENDBRANCH   9  10
ENDBRANCH   7   9
ENDBRANCH   4   7
BRANCH   1  18
ATOM     18  C   UNL     1       3.025   6.066  17.748  0.00  0.00    +0.000 C 
BRANCH  18  19
ATOM     19  C   UNL     1       2.646   7.499  18.177  0.00  0.00    +0.000 C 
ATOM     20  O   UNL     1       2.859   8.487  17.479  0.00  0.00    +0.000 OA
ATOM     21  N   UNL     1       2.009   7.564  19.402  0.00  0.00    +0.000 N 
ATOM     22  H   UNL     1       1.495   6.724  19.675  0.00  0.00    +0.000 HD
BRANCH  21  23
ATOM     23  C   UNL     1       1.631   8.853  19.991  0.00  0.00    +0.000 C 
BRANCH  23  24
ATOM     24  C   UNL     1       0.947   8.661  21.363  0.00  0.00    +0.000 C 
ATOM     25  N   UNL     1       1.618   9.131  22.459  0.00  0.00    +0.000 N 
ATOM     26  O   UNL     1      -0.073   7.997  21.523  0.00  0.00    +0.000 OA
ATOM     27  H   UNL     1       2.265   9.902  22.383  0.00  0.00    +0.000 HD
ATOM     28  H   UNL     1       1.133   9.029  23.346  0.00  0.00    +0.000 HD
ENDBRANCH  23  24
BRANCH  23  29
ATOM     29  C   UNL     1       0.745   9.638  19.009  0.00  0.00    +0.000 C 
BRANCH  29  30
ATOM     30  C   UNL     1      -0.257  10.618  19.656  0.00  0.00    +0.000 C 
ATOM     31  C   UNL     1       0.300  12.031  19.830  0.00  0.00    +0.000 C 
ATOM     32  C   UNL     1      -1.543  10.680  18.827  0.00  0.00    +0.000 C 
ENDBRANCH  29  30
ENDBRANCH  23  29
ENDBRANCH  21  23
ENDBRANCH  18  19
BRANCH  18  33
ATOM     33  C   UNL     1       2.286   5.010  18.593  0.00  0.00    +0.000 C 
BRANCH  33  35
ATOM     34  C   UNL     1       1.113   2.773  18.631  0.00  0.00    +0.000 C 
ATOM     35  C   UNL     1       1.813   3.811  17.766  0.00  0.00    +0.000 C 
ENDBRANCH  33  35
ENDBRANCH  18  33
ENDBRANCH   1  18
BRANCH   4  36
ATOM     36  C   UNL     1       7.248   4.726  16.467  0.00  0.00    +0.000 C 
BRANCH  36  37
ATOM     37  C   UNL     1       7.275   4.751  14.938  0.00  0.00    +0.000 C 
ATOM     38  C   UNL     1       6.149   3.893  14.370  0.00  0.00    +0.000 C 
ENDBRANCH  36  37
ENDBRANCH   4  36
TORSDOF 15
ENDMDL
MODEL 4
REMARK VINA RESULT:      -7.6      0.987      1.455
REMARK  Name = 
REMARK  19 active torsions:
REMARK  status: ('A' for Active; 'I' for Inactive)
REMARK    1  A    between atoms: C_1  and  C_2
REMARK    2  A    between atoms: C_2  and  C_3
REMARK    3  A    between atoms: C_3  and  C_4
REMARK    4  A    between atoms: C_4  and  C_5
REMARK    5  A    between atoms: C_4  and  N_16
REMARK    6  A    between atoms: N_7  and  C_8
REMARK    7  A    between atoms: C_8  and  C_9
REMARK    8  A    between atoms: C_8  and  C_13
REMARK    9  A    between atoms: C_9  and  C_10
REMARK   10  A    between atoms: C_10  and  C_11
REMARK   11  A    between atoms: C_10  and  C_12
REMARK   12  A    between atoms: C_19  and  C_20
REMARK   13  A    between atoms: C_19  and  N_23
REMARK   14  A    between atoms: C_20  and  C_21
REMARK   15  A    between atoms: C_21  and  C_22
REMARK   16  A    between atoms: N_23  and  C_24
REMARK   17  A    between atoms: C_24  and  C_25
REMARK   18  A    between atoms: C_25  and  C_26
REMARK   19  A    between atoms: C_26  and  C_27
REMARK                            x       y       z     vdW  Elec       q    Type
REMARK                         _______ _______ _______ _____ _____    ______ ____
ROOT
ATOM      1  N   UNL     1       4.396   6.125  17.842  0.00  0.00    +0.000 N 
ATOM      2  C   UNL     1       5.031   5.631  19.037  0.00  0.00    +0.000 C 
ATOM      3  C   UNL     1       6.490   6.011  18.878  0.00  0.00    +0.000 C 
ATOM      4  C   UNL     1       6.733   6.142  17.359  0.00  0.00    +0.000 C 
ATOM      5  C   UNL     1       5.311   6.537  16.876  0.00  0.00    +0.000 C 
ATOM      6  O   UNL     1       5.000   7.118  15.845  0.00  0.00    +0.000 OA
ENDROOT
BRANCH   4   7
ATOM      7  N   UNL     1       7.710   7.230  17.056  0.00  0.00    +0.000 NA
ATOM      8  H   UNL     1       7.282   7.909  16.425  0.00  0.00    +0.000 HD
BRANCH   7   9
ATOM      9  C   UNL     1       8.210   7.907  18.255  0.00  0.00    +0.000 C 
BRANCH   9  10
ATOM     10  C   UNL     1       8.380   9.416  18.066  0.00  0.00    +0.000 C 
BRANCH  10  11
ATOM     11  C   UNL     1       9.139   9.976  19.282  0.00  0.00    +0.000 C 
BRANCH  11  12
ATOM     12  C   UNL     1      10.266  10.965  18.940  0.00  0.00    +0.000 C 
ATOM     13  C   UNL     1       9.920  11.927  17.790  0.00  0.00    +0.000 C 
ATOM     14  C   UNL     1       8.989  13.070  18.193  0.00  0.00    +0.000 C 
ATOM     15  C   UNL     1       9.512  13.816  19.415  0.00  0.00    +0.000 C 
ATOM     16  C   UNL     1       9.720  12.862  20.583  0.00  0.00    +0.000 C 
ATOM     17  C   UNL     1      10.689  11.744  20.204  0.00  0.00    +0.000 C 
ENDBRANCH  11  12
ENDBRANCH  10  11
ENDBRANCH   9  10
ENDBRANCH   7   9
ENDBRANCH   4   7
BRANCH   1  18
ATOM     18  C   UNL     1       2.940   6.274  17.700  0.00  0.00    +0.000 C 
BRANCH  18  19
ATOM     19  C   UNL     1       2.562   7.712  18.116  0.00  0.00    +0.000 C 
ATOM     20  O   UNL     1       2.851   8.702  17.448  0.00  0.00    +0.000 OA
ATOM     21  N   UNL     1       1.836   7.779  19.290  0.00  0.00    +0.000 N 
ATOM     22  H   UNL     1       1.283   6.949  19.513  0.00  0.00    +0.000 HD
BRANCH  21  23
ATOM     23  C   UNL     1       1.444   9.071  19.863  0.00  0.00    +0.000 C 
BRANCH  23  24
ATOM     24  C   UNL     1       1.045   8.925  21.349  0.00  0.00    +0.000 C 
ATOM     25  N   UNL     1      -0.197   8.415  21.609  0.00  0.00    +0.000 N 
ATOM     26  O   UNL     1       1.718   9.367  22.276  0.00  0.00    +0.000 OA
ATOM     27  H   UNL     1      -0.652   7.792  20.958  0.00  0.00    +0.000 HD
ATOM     28  H   UNL     1      -0.424   8.292  22.591  0.00  0.00    +0.000 HD
ENDBRANCH  23  24
BRANCH  23  29
ATOM     29  C   UNL     1       0.319   9.698  19.023  0.00  0.00    +0.000 C 
BRANCH  29  30
ATOM     30  C   UNL     1       0.316  11.241  18.962  0.00  0.00    +0.000 C 
ATOM     31  C   UNL     1      -0.231  11.899  20.229  0.00  0.00    +0.000 C 
ATOM     32  C   UNL     1       1.731  11.760  18.691  0.00  0.00    +0.000 C 
ENDBRANCH  29  30
ENDBRANCH  23  29
ENDBRANCH  21  23
ENDBRANCH  18  19
BRANCH  18  33
ATOM     33  C   UNL     1       2.141   5.227  18.500  0.00  0.00    +0.000 C 
BRANCH  33  35
ATOM     34  C   UNL     1       1.406   2.811  18.532  0.00  0.00    +0.000 C 
ATOM     35  C   UNL     1       1.752   4.007  17.658  0.00  0.00    +0.000 C 
ENDBRANCH  33  35
ENDBRANCH  18  33
ENDBRANCH   1  18
BRANCH   4  36
ATOM     36  C   UNL     1       7.196   4.836  16.659  0.00  0.00    +0.000 C 
BRANCH  36  37
ATOM     37  C   UNL     1       6.493   4.419  15.367  0.00  0.00    +0.000 C 
ATOM     38  C   UNL     1       5.380   3.420  15.664  0.00  0.00    +0.000 C 
ENDBRANCH  36  37
ENDBRANCH   4  36
TORSDOF 15
ENDMDL
MODEL 5
REMARK VINA RESULT:      -7.5      1.249      1.469
REMARK  Name = 
REMARK  19 active torsions:
REMARK  status: ('A' for Active; 'I' for Inactive)
REMARK    1  A    between atoms: C_1  and  C_2
REMARK    2  A    between atoms: C_2  and  C_3
REMARK    3  A    between atoms: C_3  and  C_4
REMARK    4  A    between atoms: C_4  and  C_5
REMARK    5  A    between atoms: C_4  and  N_16
REMARK    6  A    between atoms: N_7  and  C_8
REMARK    7  A    between atoms: C_8  and  C_9
REMARK    8  A    between atoms: C_8  and  C_13
REMARK    9  A    between atoms: C_9  and  C_10
REMARK   10  A    between atoms: C_10  and  C_11
REMARK   11  A    between atoms: C_10  and  C_12
REMARK   12  A    between atoms: C_19  and  C_20
REMARK   13  A    between atoms: C_19  and  N_23
REMARK   14  A    between atoms: C_20  and  C_21
REMARK   15  A    between atoms: C_21  and  C_22
REMARK   16  A    between atoms: N_23  and  C_24
REMARK   17  A    between atoms: C_24  and  C_25
REMARK   18  A    between atoms: C_25  and  C_26
REMARK   19  A    between atoms: C_26  and  C_27
REMARK                            x       y       z     vdW  Elec       q    Type
REMARK                         _______ _______ _______ _____ _____    ______ ____
ROOT
ATOM      1  N   UNL     1       4.747   5.119  17.611  0.00  0.00    +0.000 N 
ATOM      2  C   UNL     1       5.708   4.253  18.246  0.00  0.00    +0.000 C 
ATOM      3  C   UNL     1       7.053   4.865  17.908  0.00  0.00    +0.000 C 
ATOM      4  C   UNL     1       6.841   5.669  16.607  0.00  0.00    +0.000 C 
ATOM      5  C   UNL     1       5.336   6.030  16.738  0.00  0.00    +0.000 C 
ATOM      6  O   UNL     1       4.733   6.948  16.199  0.00  0.00    +0.000 OA
ENDROOT
BRANCH   4   7
ATOM      7  N   UNL     1       7.677   6.907  16.591  0.00  0.00    +0.000 NA
ATOM      8  H   UNL     1       7.624   7.344  15.670  0.00  0.00    +0.000 HD
BRANCH   7   9
ATOM      9  C   UNL     1       7.297   7.873  17.625  0.00  0.00    +0.000 C 
BRANCH   9  10
ATOM     10  C   UNL     1       8.500   8.562  18.274  0.00  0.00    +0.000 C 
BRANCH  10  11
ATOM     11  C   UNL     1       8.581  10.003  17.741  0.00  0.00    +0.000 C 
BRANCH  11  12
ATOM     12  C   UNL     1       8.823  11.077  18.814  0.00  0.00    +0.000 C 
ATOM     13  C   UNL     1      10.121  10.873  19.614  0.00  0.00    +0.000 C 
ATOM     14  C   UNL     1      11.388  11.285  18.863  0.00  0.00    +0.000 C 
ATOM     15  C   UNL     1      11.279  12.704  18.316  0.00  0.00    +0.000 C 
ATOM     16  C   UNL     1      10.057  12.844  17.418  0.00  0.00    +0.000 C 
ATOM     17  C   UNL     1       8.781  12.483  18.176  0.00  0.00    +0.000 C 
ENDBRANCH  11  12
ENDBRANCH  10  11
ENDBRANCH   9  10
ENDBRANCH   7   9
ENDBRANCH   4   7
BRANCH   1  18
ATOM     18  C   UNL     1       3.312   5.108  17.929  0.00  0.00    +0.000 C 
BRANCH  18  19
ATOM     19  C   UNL     1       3.041   6.224  18.961  0.00  0.00    +0.000 C 
ATOM     20  O   UNL     1       3.409   6.159  20.132  0.00  0.00    +0.000 OA
ATOM     21  N   UNL     1       2.383   7.320  18.437  0.00  0.00    +0.000 N 
ATOM     22  H   UNL     1       2.521   7.478  17.436  0.00  0.00    +0.000 HD
BRANCH  21  23
ATOM     23  C   UNL     1       1.994   8.448  19.290  0.00  0.00    +0.000 C 
BRANCH  23  24
ATOM     24  C   UNL     1       1.335   7.957  20.599  0.00  0.00    +0.000 C 
ATOM     25  N   UNL     1       1.892   8.389  21.771  0.00  0.00    +0.000 N 
ATOM     26  O   UNL     1       0.449   7.107  20.632  0.00  0.00    +0.000 OA
ATOM     27  H   UNL     1       2.390   9.265  21.820  0.00  0.00    +0.000 HD
ATOM     28  H   UNL     1       1.420   8.085  22.618  0.00  0.00    +0.000 HD
ENDBRANCH  23  24
BRANCH  23  29
ATOM     29  C   UNL     1       1.080   9.406  18.508  0.00  0.00    +0.000 C 
BRANCH  29  30
ATOM     30  C   UNL     1       0.150  10.288  19.368  0.00  0.00    +0.000 C 
ATOM     31  C   UNL     1       0.788  11.611  19.793  0.00  0.00    +0.000 C 
ATOM     32  C   UNL     1      -1.151  10.574  18.613  0.00  0.00    +0.000 C 
ENDBRANCH  29  30
ENDBRANCH  23  29
ENDBRANCH  21  23
ENDBRANCH  18  19
BRANCH  18  33
ATOM     33  C   UNL     1       2.810   3.741  18.433  0.00  0.00    +0.000 C 
BRANCH  33  35
ATOM     34  C   UNL     1       0.993   3.241  20.115  0.00  0.00    +0.000 C 
ATOM     35  C   UNL     1       1.302   3.725  18.706  0.00  0.00    +0.000 C 
ENDBRANCH  33  35
ENDBRANCH  18  33
ENDBRANCH   1  18
BRANCH   4  36
ATOM     36  C   UNL     1       7.093   4.871  15.301  0.00  0.00    +0.000 C 
BRANCH  36  37
ATOM     37  C   UNL     1       5.885   4.477  14.448  0.00  0.00    +0.000 C 
ATOM     38  C   UNL     1       6.335   3.730  13.197  0.00  0.00    +0.000 C 
ENDBRANCH  36  37
ENDBRANCH   4  36
TORSDOF 15
ENDMDL
MODEL 6
REMARK VINA RESULT:      -7.5      4.444      8.544
REMARK  Name = 
REMARK  19 active torsions:
REMARK  status: ('A' for Active; 'I' for Inactive)
REMARK    1  A    between atoms: C_1  and  C_2
REMARK    2  A    between atoms: C_2  and  C_3
REMARK    3  A    between atoms: C_3  and  C_4
REMARK    4  A    between atoms: C_4  and  C_5
REMARK    5  A    between atoms: C_4  and  N_16
REMARK    6  A    between atoms: N_7  and  C_8
REMARK    7  A    between atoms: C_8  and  C_9
REMARK    8  A    between atoms: C_8  and  C_13
REMARK    9  A    between atoms: C_9  and  C_10
REMARK   10  A    between atoms: C_10  and  C_11
REMARK   11  A    between atoms: C_10  and  C_12
REMARK   12  A    between atoms: C_19  and  C_20
REMARK   13  A    between atoms: C_19  and  N_23
REMARK   14  A    between atoms: C_20  and  C_21
REMARK   15  A    between atoms: C_21  and  C_22
REMARK   16  A    between atoms: N_23  and  C_24
REMARK   17  A    between atoms: C_24  and  C_25
REMARK   18  A    between atoms: C_25  and  C_26
REMARK   19  A    between atoms: C_26  and  C_27
REMARK                            x       y       z     vdW  Elec       q    Type
REMARK                         _______ _______ _______ _____ _____    ______ ____
ROOT
ATOM      1  N   UNL     1       3.486   4.447  18.263  0.00  0.00    +0.000 N 
ATOM      2  C   UNL     1       2.208   4.699  17.648  0.00  0.00    +0.000 C 
ATOM      3  C   UNL     1       1.686   5.937  18.350  0.00  0.00    +0.000 C 
ATOM      4  C   UNL     1       2.378   5.969  19.729  0.00  0.00    +0.000 C 
ATOM      5  C   UNL     1       3.699   5.219  19.402  0.00  0.00    +0.000 C 
ATOM      6  O   UNL     1       4.763   5.273  20.002  0.00  0.00    +0.000 OA
ENDROOT
BRANCH   4   7
ATOM      7  N   UNL     1       2.666   7.370  20.161  0.00  0.00    +0.000 NA
ATOM      8  H   UNL     1       3.585   7.652  19.819  0.00  0.00    +0.000 HD
BRANCH   7   9
ATOM      9  C   UNL     1       1.651   8.330  19.718  0.00  0.00    +0.000 C 
BRANCH   9  10
ATOM     10  C   UNL     1       0.750   8.819  20.854  0.00  0.00    +0.000 C 
BRANCH  10  11
ATOM     11  C   UNL     1      -0.223   9.866  20.287  0.00  0.00    +0.000 C 
BRANCH  11  12
ATOM     12  C   UNL     1       0.098  10.341  18.860  0.00  0.00    +0.000 C 
ATOM     13  C   UNL     1      -0.754   9.661  17.774  0.00  0.00    +0.000 C 
ATOM     14  C   UNL     1      -2.181  10.199  17.673  0.00  0.00    +0.000 C 
ATOM     15  C   UNL     1      -2.199  11.718  17.536  0.00  0.00    +0.000 C 
ATOM     16  C   UNL     1      -1.464  12.374  18.695  0.00  0.00    +0.000 C 
ATOM     17  C   UNL     1      -0.021  11.878  18.773  0.00  0.00    +0.000 C 
ENDBRANCH  11  12
ENDBRANCH  10  11
ENDBRANCH   9  10
ENDBRANCH   7   9
ENDBRANCH   4   7
BRANCH   1  18
ATOM     18  C   UNL     1       4.497   3.546  17.690  0.00  0.00    +0.000 C 
BRANCH  18  19
ATOM     19  C   UNL     1       5.024   4.185  16.387  0.00  0.00    +0.000 C 
ATOM     20  O   UNL     1       4.669   5.293  15.991  0.00  0.00    +0.000 OA
ATOM     21  N   UNL     1       5.960   3.413  15.727  0.00  0.00    +0.000 N 
ATOM     22  H   UNL     1       6.499   2.775  16.317  0.00  0.00    +0.000 HD
BRANCH  21  23
ATOM     23  C   UNL     1       6.523   3.840  14.441  0.00  0.00    +0.000 C 
BRANCH  23  24
ATOM     24  C   UNL     1       7.412   5.093  14.610  0.00  0.00    +0.000 C 
ATOM     25  N   UNL     1       7.444   5.666  15.851  0.00  0.00    +0.000 N 
ATOM     26  O   UNL     1       7.960   5.664  13.671  0.00  0.00    +0.000 OA
ATOM     27  H   UNL     1       7.277   5.119  16.683  0.00  0.00    +0.000 HD
ATOM     28  H   UNL     1       8.063   6.465  15.949  0.00  0.00    +0.000 HD
ENDBRANCH  23  24
BRANCH  23  29
ATOM     29  C   UNL     1       5.393   4.067  13.424  0.00  0.00    +0.000 C 
BRANCH  29  30
ATOM     30  C   UNL     1       5.309   3.031  12.282  0.00  0.00    +0.000 C 
ATOM     31  C   UNL     1       4.237   3.358  11.242  0.00  0.00    +0.000 C 
ATOM     32  C   UNL     1       6.668   2.903  11.586  0.00  0.00    +0.000 C 
ENDBRANCH  29  30
ENDBRANCH  23  29
ENDBRANCH  21  23
ENDBRANCH  18  19
BRANCH  18  33
ATOM     33  C   UNL     1       3.972   2.118  17.446  0.00  0.00    +0.000 C 
BRANCH  33  35
ATOM     34  C   UNL     1       4.550   1.628  19.856  0.00  0.00    +0.000 C 
ATOM     35  C   UNL     1       3.541   1.415  18.737  0.00  0.00    +0.000 C 
ENDBRANCH  33  35
ENDBRANCH  18  33
ENDBRANCH   1  18
BRANCH   4  36
ATOM     36  C   UNL     1       1.609   5.239  20.861  0.00  0.00    +0.000 C 
BRANCH  36  37
ATOM     37  C   UNL     1       0.994   3.872  20.553  0.00  0.00    +0.000 C 
ATOM     38  C   UNL     1       1.498   2.825  21.541  0.00  0.00    +0.000 C 
ENDBRANCH  36  37
ENDBRANCH   4  36
TORSDOF 15
ENDMDL
MODEL 7
REMARK VINA RESULT:      -7.3      4.514      8.371
REMARK  Name = 
REMARK  19 active torsions:
REMARK  status: ('A' for Active; 'I' for Inactive)
REMARK    1  A    between atoms: C_1  and  C_2
REMARK    2  A    between atoms: C_2  and  C_3
REMARK    3  A    between atoms: C_3  and  C_4
REMARK    4  A    between atoms: C_4  and  C_5
REMARK    5  A    between atoms: C_4  and  N_16
REMARK    6  A    between atoms: N_7  and  C_8
REMARK    7  A    between atoms: C_8  and  C_9
REMARK    8  A    between atoms: C_8  and  C_13
REMARK    9  A    between atoms: C_9  and  C_10
REMARK   10  A    between atoms: C_10  and  C_11
REMARK   11  A    between atoms: C_10  and  C_12
REMARK   12  A    between atoms: C_19  and  C_20
REMARK   13  A    between atoms: C_19  and  N_23
REMARK   14  A    between atoms: C_20  and  C_21
REMARK   15  A    between atoms: C_21  and  C_22
REMARK   16  A    between atoms: N_23  and  C_24
REMARK   17  A    between atoms: C_24  and  C_25
REMARK   18  A    between atoms: C_25  and  C_26
REMARK   19  A    between atoms: C_26  and  C_27
REMARK                            x       y       z     vdW  Elec       q    Type
REMARK                         _______ _______ _______ _____ _____    ______ ____
ROOT
ATOM      1  N   UNL     1       3.373   4.431  18.273  0.00  0.00    +0.000 N 
ATOM      2  C   UNL     1       2.046   4.510  17.717  0.00  0.00    +0.000 C 
ATOM      3  C   UNL     1       1.455   5.767  18.324  0.00  0.00    +0.000 C 
ATOM      4  C   UNL     1       2.216   6.002  19.647  0.00  0.00    +0.000 C 
ATOM      5  C   UNL     1       3.578   5.333  19.313  0.00  0.00    +0.000 C 
ATOM      6  O   UNL     1       4.665   5.538  19.836  0.00  0.00    +0.000 OA
ENDROOT
BRANCH   4   7
ATOM      7  N   UNL     1       2.400   7.458  19.917  0.00  0.00    +0.000 NA
ATOM      8  H   UNL     1       2.417   7.972  19.035  0.00  0.00    +0.000 HD
BRANCH   7   9
ATOM      9  C   UNL     1       1.372   8.016  20.800  0.00  0.00    +0.000 C 
BRANCH   9  10
ATOM     10  C   UNL     1       1.234   9.535  20.677  0.00  0.00    +0.000 C 
BRANCH  10  11
ATOM     11  C   UNL     1      -0.167   9.854  20.129  0.00  0.00    +0.000 C 
BRANCH  11  12
ATOM     12  C   UNL     1      -0.700  11.251  20.488  0.00  0.00    +0.000 C 
ATOM     13  C   UNL     1       0.381  12.346  20.488  0.00  0.00    +0.000 C 
ATOM     14  C   UNL     1       0.789  12.819  19.093  0.00  0.00    +0.000 C 
ATOM     15  C   UNL     1      -0.423  13.223  18.261  0.00  0.00    +0.000 C 
ATOM     16  C   UNL     1      -1.418  12.075  18.164  0.00  0.00    +0.000 C 
ATOM     17  C   UNL     1      -1.870  11.629  19.554  0.00  0.00    +0.000 C 
ENDBRANCH  11  12
ENDBRANCH  10  11
ENDBRANCH   9  10
ENDBRANCH   7   9
ENDBRANCH   4   7
BRANCH   1  18
ATOM     18  C   UNL     1       4.429   3.562  17.729  0.00  0.00    +0.000 C 
BRANCH  18  19
ATOM     19  C   UNL     1       4.951   4.202  16.425  0.00  0.00    +0.000 C 
ATOM     20  O   UNL     1       4.640   5.333  16.060  0.00  0.00    +0.000 OA
ATOM     21  N   UNL     1       5.832   3.399  15.726  0.00  0.00    +0.000 N 
ATOM     22  H   UNL     1       6.355   2.725  16.288  0.00  0.00    +0.000 HD
BRANCH  21  23
ATOM     23  C   UNL     1       6.380   3.826  14.433  0.00  0.00    +0.000 C 
BRANCH  23  24
ATOM     24  C   UNL     1       7.320   5.041  14.599  0.00  0.00    +0.000 C 
ATOM     25  N   UNL     1       7.922   5.516  13.467  0.00  0.00    +0.000 N 
ATOM     26  O   UNL     1       7.653   5.494  15.691  0.00  0.00    +0.000 OA
ATOM     27  H   UNL     1       7.494   5.401  12.561  0.00  0.00    +0.000 HD
ATOM     28  H   UNL     1       8.506   6.338  13.593  0.00  0.00    +0.000 HD
ENDBRANCH  23  24
BRANCH  23  29
ATOM     29  C   UNL     1       5.236   4.112  13.446  0.00  0.00    +0.000 C 
BRANCH  29  30
ATOM     30  C   UNL     1       5.449   3.585  12.011  0.00  0.00    +0.000 C 
ATOM     31  C   UNL     1       6.343   2.346  11.944  0.00  0.00    +0.000 C 
ATOM     32  C   UNL     1       4.099   3.270  11.360  0.00  0.00    +0.000 C 
ENDBRANCH  29  30
ENDBRANCH  23  29
ENDBRANCH  21  23
ENDBRANCH  18  19
BRANCH  18  33
ATOM     33  C   UNL     1       3.964   2.111  17.499  0.00  0.00    +0.000 C 
BRANCH  33  35
ATOM     34  C   UNL     1       4.619   1.741  19.911  0.00  0.00    +0.000 C 
ATOM     35  C   UNL     1       3.640   1.377  18.805  0.00  0.00    +0.000 C 
ENDBRANCH  33  35
ENDBRANCH  18  33
ENDBRANCH   1  18
BRANCH   4  36
ATOM     36  C   UNL     1       1.577   5.332  20.892  0.00  0.00    +0.000 C 
BRANCH  36  37
ATOM     37  C   UNL     1       2.143   3.991  21.363  0.00  0.00    +0.000 C 
ATOM     38  C   UNL     1       1.186   2.856  21.013  0.00  0.00    +0.000 C 
ENDBRANCH  36  37
ENDBRANCH   4  36
TORSDOF 15
ENDMDL
MODEL 8
REMARK VINA RESULT:      -7.3      2.039      4.326
REMARK  Name = 
REMARK  19 active torsions:
REMARK  status: ('A' for Active; 'I' for Inactive)
REMARK    1  A    between atoms: C_1  and  C_2
REMARK    2  A    between atoms: C_2  and  C_3
REMARK    3  A    between atoms: C_3  and  C_4
REMARK    4  A    between atoms: C_4  and  C_5
REMARK    5  A    between atoms: C_4  and  N_16
REMARK    6  A    between atoms: N_7  and  C_8
REMARK    7  A    between atoms: C_8  and  C_9
REMARK    8  A    between atoms: C_8  and  C_13
REMARK    9  A    between atoms: C_9  and  C_10
REMARK   10  A    between atoms: C_10  and  C_11
REMARK   11  A    between atoms: C_10  and  C_12
REMARK   12  A    between atoms: C_19  and  C_20
REMARK   13  A    between atoms: C_19  and  N_23
REMARK   14  A    between atoms: C_20  and  C_21
REMARK   15  A    between atoms: C_21  and  C_22
REMARK   16  A    between atoms: N_23  and  C_24
REMARK   17  A    between atoms: C_24  and  C_25
REMARK   18  A    between atoms: C_25  and  C_26
REMARK   19  A    between atoms: C_26  and  C_27
REMARK                            x       y       z     vdW  Elec       q    Type
REMARK                         _______ _______ _______ _____ _____    ______ ____
ROOT
ATOM      1  N   UNL     1       4.361   6.217  18.698  0.00  0.00    +0.000 N 
ATOM      2  C   UNL     1       5.124   5.283  19.486  0.00  0.00    +0.000 C 
ATOM      3  C   UNL     1       6.518   5.336  18.892  0.00  0.00    +0.000 C 
ATOM      4  C   UNL     1       6.344   5.810  17.434  0.00  0.00    +0.000 C 
ATOM      5  C   UNL     1       5.040   6.646  17.561  0.00  0.00    +0.000 C 
ATOM      6  O   UNL     1       4.644   7.539  16.825  0.00  0.00    +0.000 OA
ENDROOT
BRANCH   4   7
ATOM      7  N   UNL     1       7.481   6.677  17.003  0.00  0.00    +0.000 NA
ATOM      8  H   UNL     1       7.194   7.249  16.208  0.00  0.00    +0.000 HD
BRANCH   7   9
ATOM      9  C   UNL     1       7.992   7.533  18.076  0.00  0.00    +0.000 C 
BRANCH   9  10
ATOM     10  C   UNL     1       7.957   9.022  17.725  0.00  0.00    +0.000 C 
BRANCH  10  11
ATOM     11  C   UNL     1       8.875   9.775  18.704  0.00  0.00    +0.000 C 
BRANCH  11  12
ATOM     12  C   UNL     1       9.694  10.915  18.076  0.00  0.00    +0.000 C 
ATOM     13  C   UNL     1       8.920  12.240  17.954  0.00  0.00    +0.000 C 
ATOM     14  C   UNL     1       8.789  13.008  19.269  0.00  0.00    +0.000 C 
ATOM     15  C   UNL     1      10.143  13.205  19.941  0.00  0.00    +0.000 C 
ATOM     16  C   UNL     1      10.831  11.867  20.173  0.00  0.00    +0.000 C 
ATOM     17  C   UNL     1      11.011  11.114  18.856  0.00  0.00    +0.000 C 
ENDBRANCH  11  12
ENDBRANCH  10  11
ENDBRANCH   9  10
ENDBRANCH   7   9
ENDBRANCH   4   7
BRANCH   1  18
ATOM     18  C   UNL     1       3.048   6.738  19.106  0.00  0.00    +0.000 C 
BRANCH  18  19
ATOM     19  C   UNL     1       2.310   5.625  19.880  0.00  0.00    +0.000 C 
ATOM     20  O   UNL     1       1.850   5.783  21.008  0.00  0.00    +0.000 OA
ATOM     21  N   UNL     1       2.179   4.447  19.170  0.00  0.00    +0.000 N 
ATOM     22  H   UNL     1       2.174   4.544  18.153  0.00  0.00    +0.000 HD
BRANCH  21  23
ATOM     23  C   UNL     1       1.556   3.264  19.775  0.00  0.00    +0.000 C 
BRANCH  23  24
ATOM     24  C   UNL     1       2.368   2.765  20.991  0.00  0.00    +0.000 C 
ATOM     25  N   UNL     1       1.740   2.787  22.206  0.00  0.00    +0.000 N 
ATOM     26  O   UNL     1       3.565   2.493  20.939  0.00  0.00    +0.000 OA
ATOM     27  H   UNL     1       0.736   2.712  22.275  0.00  0.00    +0.000 HD
ATOM     28  H   UNL     1       2.280   2.419  22.985  0.00  0.00    +0.000 HD
ENDBRANCH  23  24
BRANCH  23  29
ATOM     29  C   UNL     1       1.372   2.167  18.714  0.00  0.00    +0.000 C 
BRANCH  29  30
ATOM     30  C   UNL     1       2.428   2.147  17.589  0.00  0.00    +0.000 C 
ATOM     31  C   UNL     1       2.715   3.528  16.999  0.00  0.00    +0.000 C 
ATOM     32  C   UNL     1       3.734   1.534  18.103  0.00  0.00    +0.000 C 
ENDBRANCH  29  30
ENDBRANCH  23  29
ENDBRANCH  21  23
ENDBRANCH  18  19
BRANCH  18  33
ATOM     33  C   UNL     1       2.205   7.258  17.926  0.00  0.00    +0.000 C 
BRANCH  33  35
ATOM     34  C   UNL     1       2.091   9.781  17.855  0.00  0.00    +0.000 C 
ATOM     35  C   UNL     1       1.385   8.502  18.283  0.00  0.00    +0.000 C 
ENDBRANCH  33  35
ENDBRANCH  18  33
ENDBRANCH   1  18
BRANCH   4  36
ATOM     36  C   UNL     1       6.155   4.671  16.397  0.00  0.00    +0.000 C 
BRANCH  36  37
ATOM     37  C   UNL     1       5.689   5.043  14.988  0.00  0.00    +0.000 C 
ATOM     38  C   UNL     1       6.013   3.923  14.006  0.00  0.00    +0.000 C 
ENDBRANCH  36  37
ENDBRANCH   4  36
TORSDOF 15
ENDMDL
MODEL 9
REMARK VINA RESULT:      -7.3      1.039      1.403
REMARK  Name = 
REMARK  19 active torsions:
REMARK  status: ('A' for Active; 'I' for Inactive)
REMARK    1  A    between atoms: C_1  and  C_2
REMARK    2  A    between atoms: C_2  and  C_3
REMARK    3  A    between atoms: C_3  and  C_4
REMARK    4  A    between atoms: C_4  and  C_5
REMARK    5  A    between atoms: C_4  and  N_16
REMARK    6  A    between atoms: N_7  and  C_8
REMARK    7  A    between atoms: C_8  and  C_9
REMARK    8  A    between atoms: C_8  and  C_13
REMARK    9  A    between atoms: C_9  and  C_10
REMARK   10  A    between atoms: C_10  and  C_11
REMARK   11  A    between atoms: C_10  and  C_12
REMARK   12  A    between atoms: C_19  and  C_20
REMARK   13  A    between atoms: C_19  and  N_23
REMARK   14  A    between atoms: C_20  and  C_21
REMARK   15  A    between atoms: C_21  and  C_22
REMARK   16  A    between atoms: N_23  and  C_24
REMARK   17  A    between atoms: C_24  and  C_25
REMARK   18  A    between atoms: C_25  and  C_26
REMARK   19  A    between atoms: C_26  and  C_27
REMARK                            x       y       z     vdW  Elec       q    Type
REMARK                         _______ _______ _______ _____ _____    ______ ____
ROOT
ATOM      1  N   UNL     1       4.394   5.806  18.038  0.00  0.00    +0.000 N 
ATOM      2  C   UNL     1       5.188   5.186  19.068  0.00  0.00    +0.000 C 
ATOM      3  C   UNL     1       6.613   5.589  18.743  0.00  0.00    +0.000 C 
ATOM      4  C   UNL     1       6.637   5.887  17.228  0.00  0.00    +0.000 C 
ATOM      5  C   UNL     1       5.164   6.326  17.001  0.00  0.00    +0.000 C 
ATOM      6  O   UNL     1       4.715   7.014  16.095  0.00  0.00    +0.000 OA
ENDROOT
BRANCH   4   7
ATOM      7  N   UNL     1       7.572   7.007  16.909  0.00  0.00    +0.000 NA
ATOM      8  H   UNL     1       7.139   7.632  16.228  0.00  0.00    +0.000 HD
BRANCH   7   9
ATOM      9  C   UNL     1       7.987   7.767  18.091  0.00  0.00    +0.000 C 
BRANCH   9  10
ATOM     10  C   UNL     1       8.046   9.276  17.845  0.00  0.00    +0.000 C 
BRANCH  10  11
ATOM     11  C   UNL     1       9.070   9.888  18.816  0.00  0.00    +0.000 C 
BRANCH  11  12
ATOM     12  C   UNL     1       9.902  11.043  18.235  0.00  0.00    +0.000 C 
ATOM     13  C   UNL     1       9.090  12.324  17.976  0.00  0.00    +0.000 C 
ATOM     14  C   UNL     1       8.781  13.131  19.237  0.00  0.00    +0.000 C 
ATOM     15  C   UNL     1      10.043  13.416  20.044  0.00  0.00    +0.000 C 
ATOM     16  C   UNL     1      10.759  12.122  20.403  0.00  0.00    +0.000 C 
ATOM     17  C   UNL     1      11.116  11.332  19.145  0.00  0.00    +0.000 C 
ENDBRANCH  11  12
ENDBRANCH  10  11
ENDBRANCH   9  10
ENDBRANCH   7   9
ENDBRANCH   4   7
BRANCH   1  18
ATOM     18  C   UNL     1       2.934   5.961  18.123  0.00  0.00    +0.000 C 
BRANCH  18  19
ATOM     19  C   UNL     1       2.628   7.027  19.198  0.00  0.00    +0.000 C 
ATOM     20  O   UNL     1       3.086   6.982  20.337  0.00  0.00    +0.000 OA
ATOM     21  N   UNL     1       1.824   8.056  18.748  0.00  0.00    +0.000 N 
ATOM     22  H   UNL     1       1.870   8.245  17.744  0.00  0.00    +0.000 HD
BRANCH  21  23
ATOM     23  C   UNL     1       1.386   9.125  19.653  0.00  0.00    +0.000 C 
BRANCH  23  24
ATOM     24  C   UNL     1       0.865   8.546  20.989  0.00  0.00    +0.000 C 
ATOM     25  N   UNL     1       1.639   8.756  22.097  0.00  0.00    +0.000 N 
ATOM     26  O   UNL     1      -0.111   7.805  21.070  0.00  0.00    +0.000 OA
ATOM     27  H   UNL     1       2.251   9.556  22.162  0.00  0.00    +0.000 HD
ATOM     28  H   UNL     1       1.259   8.401  22.969  0.00  0.00    +0.000 HD
ENDBRANCH  23  24
BRANCH  23  29
ATOM     29  C   UNL     1       0.335  10.004  18.956  0.00  0.00    +0.000 C 
BRANCH  29  30
ATOM     30  C   UNL     1       0.656  11.513  18.910  0.00  0.00    +0.000 C 
ATOM     31  C   UNL     1      -0.536  12.376  18.495  0.00  0.00    +0.000 C 
ATOM     32  C   UNL     1       1.171  11.984  20.274  0.00  0.00    +0.000 C 
ENDBRANCH  29  30
ENDBRANCH  23  29
ENDBRANCH  21  23
ENDBRANCH  18  19
BRANCH  18  33
ATOM     33  C   UNL     1       2.197   4.640  18.414  0.00  0.00    +0.000 C 
BRANCH  33  35
ATOM     34  C   UNL     1       1.060   3.286  20.219  0.00  0.00    +0.000 C 
ATOM     35  C   UNL     1       1.390   4.684  19.716  0.00  0.00    +0.000 C 
ENDBRANCH  33  35
ENDBRANCH  18  33
ENDBRANCH   1  18
BRANCH   4  36
ATOM     36  C   UNL     1       6.981   4.668  16.331  0.00  0.00    +0.000 C 
BRANCH  36  37
ATOM     37  C   UNL     1       5.832   3.927  15.644  0.00  0.00    +0.000 C 
ATOM     38  C   UNL     1       6.035   3.914  14.133  0.00  0.00    +0.000 C 
ENDBRANCH  36  37
ENDBRANCH   4  36
TORSDOF 15
ENDMDL
