MODEL 1
REMARK VINA RESULT:      -6.7      0.000      0.000
REMARK  Name = 
REMARK  6 active torsions:
REMARK  status: ('A' for Active; 'I' for Inactive)
REMARK    1  A    between atoms: C_1  and  C_2
REMARK    2  A    between atoms: C_5  and  S_6
REMARK    3  A    between atoms: S_6  and  N_9
REMARK    4  A    between atoms: N_9  and  C_10
REMARK    5  A    between atoms: C_10  and  C_11
REMARK    6  A    between atoms: C_11  and  C_12
REMARK                            x       y       z     vdW  Elec       q    Type
REMARK                         _______ _______ _______ _____ _____    ______ ____
ROOT
ATOM      1  S   UNL     1       5.343   4.810  19.083  0.00  0.00    +0.000 S 
ATOM      2  O   UNL     1       6.499   5.136  19.887  0.00  0.00    +0.000 OA
ATOM      3  O   UNL     1       4.087   5.515  19.213  0.00  0.00    +0.000 OA
ENDROOT
BRANCH   1   8
ATOM      4  C   UNL     1       7.031   5.040  13.258  0.00  0.00    +0.000 C 
ATOM      5  C   UNL     1       6.617   5.000  14.700  0.00  0.00    +0.000 A 
ATOM      6  C   UNL     1       7.508   4.550  15.683  0.00  0.00    +0.000 A 
ATOM      7  C   UNL     1       7.107   4.478  17.016  0.00  0.00    +0.000 A 
ATOM      8  C   UNL     1       5.812   4.872  17.369  0.00  0.00    +0.000 A 
ATOM      9  C   UNL     1       4.918   5.338  16.405  0.00  0.00    +0.000 A 
ATOM     10  C   UNL     1       5.323   5.397  15.070  0.00  0.00    +0.000 A 
ENDBRANCH   1   8
BRANCH   1  11
ATOM     11  N   UNL     1       5.003   3.167  19.306  0.00  0.00    +0.000 NA
ATOM     12  H   UNL     1       4.688   2.977  20.256  0.00  0.00    +0.000 HD
BRANCH  11  13
ATOM     13  C   UNL     1       4.285   2.489  18.207  0.00  0.00    +0.000 C 
BRANCH  13  14
ATOM     14  C   UNL     1       3.162   1.606  18.746  0.00  0.00    +0.000 C 
BRANCH  14  15
ATOM     15  C   UNL     1       2.241   2.392  19.614  0.00  0.00    +0.000 A 
ATOM     16  C   UNL     1       1.020   2.952  19.312  0.00  0.00    +0.000 A 
ATOM     17  N   UNL     1       0.622   3.583  20.459  0.00  0.00    +0.000 N 
ATOM     18  C   UNL     1       1.593   3.391  21.396  0.00  0.00    +0.000 A 
ATOM     19  N   UNL     1       2.582   2.670  20.919  0.00  0.00    +0.000 NA
ATOM     20  H   UNL     1      -0.236   4.104  20.590  0.00  0.00    +0.000 HD
ENDBRANCH  14  15
ENDBRANCH  13  14
ENDBRANCH  11  13
ENDBRANCH   1  11
TORSDOF 5
ENDMDL
MODEL 2
REMARK VINA RESULT:      -6.7      2.848      6.431
REMARK  Name = 
REMARK  6 active torsions:
REMARK  status: ('A' for Active; 'I' for Inactive)
REMARK    1  A    between atoms: C_1  and  C_2
REMARK    2  A    between atoms: C_5  and  S_6
REMARK    3  A    between atoms: S_6  and  N_9
REMARK    4  A    between atoms: N_9  and  C_10
REMARK    5  A    between atoms: C_10  and  C_11
REMARK    6  A    between atoms: C_11  and  C_12
REMARK                            x       y       z     vdW  Elec       q    Type
REMARK                         _______ _______ _______ _____ _____    ______ ____
ROOT
ATOM      1  S   UNL     1       6.134   5.342  18.792  0.00  0.00    +0.000 S 
ATOM      2  O   UNL     1       6.008   6.501  17.936  0.00  0.00    +0.000 OA
ATOM      3  O   UNL     1       6.872   5.375  20.035  0.00  0.00    +0.000 OA
ENDROOT
BRANCH   1   8
ATOM      4  C   UNL     1       0.573   3.211  19.959  0.00  0.00    +0.000 C 
ATOM      5  C   UNL     1       1.942   3.746  19.657  0.00  0.00    +0.000 A 
ATOM      6  C   UNL     1       2.877   2.960  18.972  0.00  0.00    +0.000 A 
ATOM      7  C   UNL     1       4.160   3.446  18.726  0.00  0.00    +0.000 A 
ATOM      8  C   UNL     1       4.504   4.732  19.156  0.00  0.00    +0.000 A 
ATOM      9  C   UNL     1       3.579   5.535  19.824  0.00  0.00    +0.000 A 
ATOM     10  C   UNL     1       2.299   5.036  20.077  0.00  0.00    +0.000 A 
ENDBRANCH   1   8
BRANCH   1  11
ATOM     11  N   UNL     1       6.793   4.086  17.869  0.00  0.00    +0.000 NA
ATOM     12  H   UNL     1       6.257   3.226  17.973  0.00  0.00    +0.000 HD
BRANCH  11  13
ATOM     13  C   UNL     1       7.249   4.438  16.509  0.00  0.00    +0.000 C 
BRANCH  13  14
ATOM     14  C   UNL     1       6.177   4.120  15.469  0.00  0.00    +0.000 C 
BRANCH  14  15
ATOM     15  C   UNL     1       6.685   4.370  14.091  0.00  0.00    +0.000 A 
ATOM     16  C   UNL     1       6.391   3.713  12.918  0.00  0.00    +0.000 A 
ATOM     17  N   UNL     1       7.152   4.329  11.962  0.00  0.00    +0.000 N 
ATOM     18  C   UNL     1       7.868   5.314  12.574  0.00  0.00    +0.000 A 
ATOM     19  N   UNL     1       7.604   5.369  13.859  0.00  0.00    +0.000 NA
ATOM     20  H   UNL     1       7.183   4.093  10.978  0.00  0.00    +0.000 HD
ENDBRANCH  14  15
ENDBRANCH  13  14
ENDBRANCH  11  13
ENDBRANCH   1  11
TORSDOF 5
ENDMDL
MODEL 3
REMARK VINA RESULT:      -6.7      0.107      1.148
REMARK  Name = 
REMARK  6 active torsions:
REMARK  status: ('A' for Active; 'I' for Inactive)
REMARK    1  A    between atoms: C_1  and  C_2
REMARK    2  A    between atoms: C_5  and  S_6
REMARK    3  A    between atoms: S_6  and  N_9
REMARK    4  A    between atoms: N_9  and  C_10
REMARK    5  A    between atoms: C_10  and  C_11
REMARK    6  A    between atoms: C_11  and  C_12
REMARK                            x       y       z     vdW  Elec       q    Type
REMARK                         _______ _______ _______ _____ _____    ______ ____
ROOT
ATOM      1  S   UNL     1       5.350   4.873  19.041  0.00  0.00    +0.000 S 
ATOM      2  O   UNL     1       6.481   5.207  19.877  0.00  0.00    +0.000 OA
ATOM      3  O   UNL     1       4.089   5.577  19.128  0.00  0.00    +0.000 OA
ENDROOT
BRANCH   1   8
ATOM      4  C   UNL     1       7.045   5.029  13.215  0.00  0.00    +0.000 C 
ATOM      5  C   UNL     1       6.622   4.974  14.654  0.00  0.00    +0.000 A 
ATOM      6  C   UNL     1       5.347   5.410  15.038  0.00  0.00    +0.000 A 
ATOM      7  C   UNL     1       4.971   5.393  16.380  0.00  0.00    +0.000 A 
ATOM      8  C   UNL     1       5.872   4.923  17.342  0.00  0.00    +0.000 A 
ATOM      9  C   UNL     1       7.139   4.470  16.975  0.00  0.00    +0.000 A 
ATOM     10  C   UNL     1       7.512   4.501  15.630  0.00  0.00    +0.000 A 
ENDBRANCH   1   8
BRANCH   1  11
ATOM     11  N   UNL     1       5.007   3.231  19.265  0.00  0.00    +0.000 NA
ATOM     12  H   UNL     1       4.687   3.044  20.214  0.00  0.00    +0.000 HD
BRANCH  11  13
ATOM     13  C   UNL     1       4.295   2.551  18.165  0.00  0.00    +0.000 C 
BRANCH  13  14
ATOM     14  C   UNL     1       3.235   1.594  18.704  0.00  0.00    +0.000 C 
BRANCH  14  15
ATOM     15  C   UNL     1       2.244   2.320  19.547  0.00  0.00    +0.000 A 
ATOM     16  C   UNL     1       0.991   2.786  19.219  0.00  0.00    +0.000 A 
ATOM     17  N   UNL     1       0.530   3.399  20.352  0.00  0.00    +0.000 N 
ATOM     18  C   UNL     1       1.497   3.289  21.306  0.00  0.00    +0.000 A 
ATOM     19  N   UNL     1       2.543   2.637  20.854  0.00  0.00    +0.000 NA
ATOM     20  H   UNL     1      -0.367   3.857  20.463  0.00  0.00    +0.000 HD
ENDBRANCH  14  15
ENDBRANCH  13  14
ENDBRANCH  11  13
ENDBRANCH   1  11
TORSDOF 5
ENDMDL
MODEL 4
REMARK VINA RESULT:      -6.6      2.967      5.877
REMARK  Name = 
REMARK  6 active torsions:
REMARK  status: ('A' for Active; 'I' for Inactive)
REMARK    1  A    between atoms: C_1  and  C_2
REMARK    2  A    between atoms: C_5  and  S_6
REMARK    3  A    between atoms: S_6  and  N_9
REMARK    4  A    between atoms: N_9  and  C_10
REMARK    5  A    between atoms: C_10  and  C_11
REMARK    6  A    between atoms: C_11  and  C_12
REMARK                            x       y       z     vdW  Elec       q    Type
REMARK                         _______ _______ _______ _____ _____    ______ ____
ROOT
ATOM      1  S   UNL     1       3.310   3.139  18.115  0.00  0.00    +0.000 S 
ATOM      2  O   UNL     1       3.353   2.068  19.086  0.00  0.00    +0.000 OA
ATOM      3  O   UNL     1       2.585   3.024  16.868  0.00  0.00    +0.000 OA
ENDROOT
BRANCH   1   8
ATOM      4  C   UNL     1       1.441   8.219  20.858  0.00  0.00    +0.000 C 
ATOM      5  C   UNL     1       1.917   6.962  20.190  0.00  0.00    +0.000 A 
ATOM      6  C   UNL     1       2.628   7.023  18.985  0.00  0.00    +0.000 A 
ATOM      7  C   UNL     1       3.036   5.853  18.348  0.00  0.00    +0.000 A 
ATOM      8  C   UNL     1       2.741   4.614  18.927  0.00  0.00    +0.000 A 
ATOM      9  C   UNL     1       2.048   4.536  20.136  0.00  0.00    +0.000 A 
ATOM     10  C   UNL     1       1.633   5.713  20.762  0.00  0.00    +0.000 A 
ENDBRANCH   1   8
BRANCH   1  11
ATOM     11  N   UNL     1       4.905   3.538  17.713  0.00  0.00    +0.000 NA
ATOM     12  H   UNL     1       5.569   2.896  18.142  0.00  0.00    +0.000 HD
BRANCH  11  13
ATOM     13  C   UNL     1       5.152   3.931  16.312  0.00  0.00    +0.000 C 
BRANCH  13  14
ATOM     14  C   UNL     1       6.622   4.278  16.088  0.00  0.00    +0.000 C 
BRANCH  14  15
ATOM     15  C   UNL     1       7.116   5.200  17.149  0.00  0.00    +0.000 A 
ATOM     16  C   UNL     1       7.251   6.569  17.124  0.00  0.00    +0.000 A 
ATOM     17  N   UNL     1       7.774   6.900  18.344  0.00  0.00    +0.000 N 
ATOM     18  C   UNL     1       7.937   5.746  19.051  0.00  0.00    +0.000 A 
ATOM     19  N   UNL     1       7.542   4.702  18.360  0.00  0.00    +0.000 NA
ATOM     20  H   UNL     1       8.005   7.832  18.664  0.00  0.00    +0.000 HD
ENDBRANCH  14  15
ENDBRANCH  13  14
ENDBRANCH  11  13
ENDBRANCH   1  11
TORSDOF 5
ENDMDL
MODEL 5
REMARK VINA RESULT:      -6.6      2.486      3.580
REMARK  Name = 
REMARK  6 active torsions:
REMARK  status: ('A' for Active; 'I' for Inactive)
REMARK    1  A    between atoms: C_1  and  C_2
REMARK    2  A    between atoms: C_5  and  S_6
REMARK    3  A    between atoms: S_6  and  N_9
REMARK    4  A    between atoms: N_9  and  C_10
REMARK    5  A    between atoms: C_10  and  C_11
REMARK    6  A    between atoms: C_11  and  C_12
REMARK                            x       y       z     vdW  Elec       q    Type
REMARK                         _______ _______ _______ _____ _____    ______ ____
ROOT
ATOM      1  S   UNL     1       5.412   4.407  18.122  0.00  0.00    +0.000 S 
ATOM      2  O   UNL     1       6.522   4.904  17.341  0.00  0.00    +0.000 OA
ATOM      3  O   UNL     1       5.593   3.791  19.418  0.00  0.00    +0.000 OA
ENDROOT
BRANCH   1   8
ATOM      4  C   UNL     1       1.426   8.940  18.748  0.00  0.00    +0.000 C 
ATOM      5  C   UNL     1       2.422   7.827  18.603  0.00  0.00    +0.000 A 
ATOM      6  C   UNL     1       3.290   7.788  17.505  0.00  0.00    +0.000 A 
ATOM      7  C   UNL     1       4.188   6.733  17.355  0.00  0.00    +0.000 A 
ATOM      8  C   UNL     1       4.227   5.718  18.317  0.00  0.00    +0.000 A 
ATOM      9  C   UNL     1       3.381   5.751  19.426  0.00  0.00    +0.000 A 
ATOM     10  C   UNL     1       2.476   6.805  19.563  0.00  0.00    +0.000 A 
ENDBRANCH   1   8
BRANCH   1  11
ATOM     11  N   UNL     1       4.566   3.293  17.169  0.00  0.00    +0.000 NA
ATOM     12  H   UNL     1       5.053   3.105  16.295  0.00  0.00    +0.000 HD
BRANCH  11  13
ATOM     13  C   UNL     1       3.973   2.140  17.875  0.00  0.00    +0.000 C 
BRANCH  13  14
ATOM     14  C   UNL     1       2.448   2.229  17.892  0.00  0.00    +0.000 C 
BRANCH  14  15
ATOM     15  C   UNL     1       1.951   2.539  19.261  0.00  0.00    +0.000 A 
ATOM     16  C   UNL     1       0.725   3.024  19.658  0.00  0.00    +0.000 A 
ATOM     17  N   UNL     1       0.813   3.150  21.018  0.00  0.00    +0.000 N 
ATOM     18  C   UNL     1       2.061   2.749  21.391  0.00  0.00    +0.000 A 
ATOM     19  N   UNL     1       2.770   2.367  20.355  0.00  0.00    +0.000 NA
ATOM     20  H   UNL     1       0.085   3.486  21.636  0.00  0.00    +0.000 HD
ENDBRANCH  14  15
ENDBRANCH  13  14
ENDBRANCH  11  13
ENDBRANCH   1  11
TORSDOF 5
ENDMDL
MODEL 6
REMARK VINA RESULT:      -6.6      1.605      2.013
REMARK  Name = 
REMARK  6 active torsions:
REMARK  status: ('A' for Active; 'I' for Inactive)
REMARK    1  A    between atoms: C_1  and  C_2
REMARK    2  A    between atoms: C_5  and  S_6
REMARK    3  A    between atoms: S_6  and  N_9
REMARK    4  A    between atoms: N_9  and  C_10
REMARK    5  A    between atoms: C_10  and  C_11
REMARK    6  A    between atoms: C_11  and  C_12
REMARK                            x       y       z     vdW  Elec       q    Type
REMARK                         _______ _______ _______ _____ _____    ______ ____
ROOT
ATOM      1  S   UNL     1       5.132   4.472  18.942  0.00  0.00    +0.000 S 
ATOM      2  O   UNL     1       5.115   3.105  19.415  0.00  0.00    +0.000 OA
ATOM      3  O   UNL     1       5.835   5.524  19.642  0.00  0.00    +0.000 OA
ENDROOT
BRANCH   1   8
ATOM      4  C   UNL     1       7.139   4.562  13.215  0.00  0.00    +0.000 C 
ATOM      5  C   UNL     1       6.637   4.556  14.629  0.00  0.00    +0.000 A 
ATOM      6  C   UNL     1       7.499   4.854  15.692  0.00  0.00    +0.000 A 
ATOM      7  C   UNL     1       7.038   4.811  17.007  0.00  0.00    +0.000 A 
ATOM      8  C   UNL     1       5.703   4.479  17.258  0.00  0.00    +0.000 A 
ATOM      9  C   UNL     1       4.826   4.195  16.211  0.00  0.00    +0.000 A 
ATOM     10  C   UNL     1       5.298   4.230  14.897  0.00  0.00    +0.000 A 
ENDBRANCH   1   8
BRANCH   1  11
ATOM     11  N   UNL     1       3.527   4.984  18.782  0.00  0.00    +0.000 NA
ATOM     12  H   UNL     1       2.875   4.211  18.903  0.00  0.00    +0.000 HD
BRANCH  11  13
ATOM     13  C   UNL     1       3.179   6.269  19.422  0.00  0.00    +0.000 C 
BRANCH  13  14
ATOM     14  C   UNL     1       1.924   6.134  20.281  0.00  0.00    +0.000 C 
BRANCH  14  15
ATOM     15  C   UNL     1       1.686   4.711  20.651  0.00  0.00    +0.000 A 
ATOM     16  C   UNL     1       0.731   3.835  20.188  0.00  0.00    +0.000 A 
ATOM     17  N   UNL     1       0.945   2.674  20.879  0.00  0.00    +0.000 N 
ATOM     18  C   UNL     1       1.996   2.881  21.721  0.00  0.00    +0.000 A 
ATOM     19  N   UNL     1       2.471   4.099  21.603  0.00  0.00    +0.000 NA
ATOM     20  H   UNL     1       0.415   1.816  20.788  0.00  0.00    +0.000 HD
ENDBRANCH  14  15
ENDBRANCH  13  14
ENDBRANCH  11  13
ENDBRANCH   1  11
TORSDOF 5
ENDMDL
MODEL 7
REMARK VINA RESULT:      -6.5      1.953      2.764
REMARK  Name = 
REMARK  6 active torsions:
REMARK  status: ('A' for Active; 'I' for Inactive)
REMARK    1  A    between atoms: C_1  and  C_2
REMARK    2  A    between atoms: C_5  and  S_6
REMARK    3  A    between atoms: S_6  and  N_9
REMARK    4  A    between atoms: N_9  and  C_10
REMARK    5  A    between atoms: C_10  and  C_11
REMARK    6  A    between atoms: C_11  and  C_12
REMARK                            x       y       z     vdW  Elec       q    Type
REMARK                         _______ _______ _______ _____ _____    ______ ____
ROOT
ATOM      1  S   UNL     1       2.631   6.065  18.660  0.00  0.00    +0.000 S 
ATOM      2  O   UNL     1       2.606   7.496  18.865  0.00  0.00    +0.000 OA
ATOM      3  O   UNL     1       1.461   5.324  18.241  0.00  0.00    +0.000 OA
ENDROOT
BRANCH   1   8
ATOM      4  C   UNL     1       7.101   4.841  14.742  0.00  0.00    +0.000 C 
ATOM      5  C   UNL     1       5.985   5.147  15.698  0.00  0.00    +0.000 A 
ATOM      6  C   UNL     1       5.883   6.412  16.291  0.00  0.00    +0.000 A 
ATOM      7  C   UNL     1       4.868   6.681  17.206  0.00  0.00    +0.000 A 
ATOM      8  C   UNL     1       3.941   5.681  17.521  0.00  0.00    +0.000 A 
ATOM      9  C   UNL     1       4.018   4.421  16.927  0.00  0.00    +0.000 A 
ATOM     10  C   UNL     1       5.045   4.156  16.019  0.00  0.00    +0.000 A 
ENDBRANCH   1   8
BRANCH   1  11
ATOM     11  N   UNL     1       3.175   5.346  20.092  0.00  0.00    +0.000 NA
ATOM     12  H   UNL     1       3.975   5.844  20.479  0.00  0.00    +0.000 HD
BRANCH  11  13
ATOM     13  C   UNL     1       2.134   4.898  21.040  0.00  0.00    +0.000 C 
BRANCH  13  14
ATOM     14  C   UNL     1       2.308   3.422  21.391  0.00  0.00    +0.000 C 
BRANCH  14  15
ATOM     15  C   UNL     1       2.550   2.612  20.165  0.00  0.00    +0.000 A 
ATOM     16  C   UNL     1       1.647   2.105  19.258  0.00  0.00    +0.000 A 
ATOM     17  N   UNL     1       2.402   1.418  18.347  0.00  0.00    +0.000 N 
ATOM     18  C   UNL     1       3.707   1.526  18.724  0.00  0.00    +0.000 A 
ATOM     19  N   UNL     1       3.831   2.247  19.814  0.00  0.00    +0.000 NA
ATOM     20  H   UNL     1       2.055   0.914  17.540  0.00  0.00    +0.000 HD
ENDBRANCH  14  15
ENDBRANCH  13  14
ENDBRANCH  11  13
ENDBRANCH   1  11
TORSDOF 5
ENDMDL
MODEL 8
REMARK VINA RESULT:      -6.5      2.257      3.402
REMARK  Name = 
REMARK  6 active torsions:
REMARK  status: ('A' for Active; 'I' for Inactive)
REMARK    1  A    between atoms: C_1  and  C_2
REMARK    2  A    between atoms: C_5  and  S_6
REMARK    3  A    between atoms: S_6  and  N_9
REMARK    4  A    between atoms: N_9  and  C_10
REMARK    5  A    between atoms: C_10  and  C_11
REMARK    6  A    between atoms: C_11  and  C_12
REMARK                            x       y       z     vdW  Elec       q    Type
REMARK                         _______ _______ _______ _____ _____    ______ ____
ROOT
ATOM      1  S   UNL     1       6.018   4.672  18.637  0.00  0.00    +0.000 S 
ATOM      2  O   UNL     1       6.724   4.534  17.383  0.00  0.00    +0.000 OA
ATOM      3  O   UNL     1       6.697   4.979  19.877  0.00  0.00    +0.000 OA
ENDROOT
BRANCH   1   8
ATOM      4  C   UNL     1       1.544   8.716  17.961  0.00  0.00    +0.000 C 
ATOM      5  C   UNL     1       2.642   7.706  18.118  0.00  0.00    +0.000 A 
ATOM      6  C   UNL     1       2.668   6.850  19.227  0.00  0.00    +0.000 A 
ATOM      7  C   UNL     1       3.709   5.938  19.388  0.00  0.00    +0.000 A 
ATOM      8  C   UNL     1       4.724   5.873  18.428  0.00  0.00    +0.000 A 
ATOM      9  C   UNL     1       4.705   6.707  17.309  0.00  0.00    +0.000 A 
ATOM     10  C   UNL     1       3.664   7.626  17.160  0.00  0.00    +0.000 A 
ENDBRANCH   1   8
BRANCH   1  11
ATOM     11  N   UNL     1       5.147   3.245  18.901  0.00  0.00    +0.000 NA
ATOM     12  H   UNL     1       4.856   3.160  19.874  0.00  0.00    +0.000 HD
BRANCH  11  13
ATOM     13  C   UNL     1       4.162   2.874  17.866  0.00  0.00    +0.000 C 
BRANCH  13  14
ATOM     14  C   UNL     1       3.153   1.862  18.403  0.00  0.00    +0.000 C 
BRANCH  14  15
ATOM     15  C   UNL     1       2.225   2.503  19.376  0.00  0.00    +0.000 A 
ATOM     16  C   UNL     1       2.088   2.286  20.728  0.00  0.00    +0.000 A 
ATOM     17  N   UNL     1       1.075   3.117  21.123  0.00  0.00    +0.000 N 
ATOM     18  C   UNL     1       0.641   3.794  20.023  0.00  0.00    +0.000 A 
ATOM     19  N   UNL     1       1.320   3.451  18.953  0.00  0.00    +0.000 NA
ATOM     20  H   UNL     1       0.709   3.210  22.063  0.00  0.00    +0.000 HD
ENDBRANCH  14  15
ENDBRANCH  13  14
ENDBRANCH  11  13
ENDBRANCH   1  11
TORSDOF 5
ENDMDL
MODEL 9
REMARK VINA RESULT:      -6.5      1.908      2.365
REMARK  Name = 
REMARK  6 active torsions:
REMARK  status: ('A' for Active; 'I' for Inactive)
REMARK    1  A    between atoms: C_1  and  C_2
REMARK    2  A    between atoms: C_5  and  S_6
REMARK    3  A    between atoms: S_6  and  N_9
REMARK    4  A    between atoms: N_9  and  C_10
REMARK    5  A    between atoms: C_10  and  C_11
REMARK    6  A    between atoms: C_11  and  C_12
REMARK                            x       y       z     vdW  Elec       q    Type
REMARK                         _______ _______ _______ _____ _____    ______ ____
ROOT
ATOM      1  S   UNL     1       7.234   4.827  17.664  0.00  0.00    +0.000 S 
ATOM      2  O   UNL     1       8.480   4.145  17.937  0.00  0.00    +0.000 OA
ATOM      3  O   UNL     1       7.082   6.255  17.836  0.00  0.00    +0.000 OA
ENDROOT
BRANCH   1   8
ATOM      4  C   UNL     1       5.531   3.561  11.978  0.00  0.00    +0.000 C 
ATOM      5  C   UNL     1       5.941   3.887  13.385  0.00  0.00    +0.000 A 
ATOM      6  C   UNL     1       7.063   4.688  13.631  0.00  0.00    +0.000 A 
ATOM      7  C   UNL     1       7.462   4.957  14.939  0.00  0.00    +0.000 A 
ATOM      8  C   UNL     1       6.726   4.433  16.007  0.00  0.00    +0.000 A 
ATOM      9  C   UNL     1       5.596   3.647  15.779  0.00  0.00    +0.000 A 
ATOM     10  C   UNL     1       5.209   3.372  14.466  0.00  0.00    +0.000 A 
ENDBRANCH   1   8
BRANCH   1  11
ATOM     11  N   UNL     1       6.027   4.094  18.597  0.00  0.00    +0.000 NA
ATOM     12  H   UNL     1       6.403   3.337  19.165  0.00  0.00    +0.000 HD
BRANCH  11  13
ATOM     13  C   UNL     1       5.049   4.998  19.235  0.00  0.00    +0.000 C 
BRANCH  13  14
ATOM     14  C   UNL     1       3.733   5.021  18.461  0.00  0.00    +0.000 C 
BRANCH  14  15
ATOM     15  C   UNL     1       2.981   3.750  18.659  0.00  0.00    +0.000 A 
ATOM     16  C   UNL     1       2.641   2.783  17.740  0.00  0.00    +0.000 A 
ATOM     17  N   UNL     1       1.932   1.851  18.447  0.00  0.00    +0.000 N 
ATOM     18  C   UNL     1       1.866   2.275  19.741  0.00  0.00    +0.000 A 
ATOM     19  N   UNL     1       2.495   3.416  19.903  0.00  0.00    +0.000 NA
ATOM     20  H   UNL     1       1.525   1.001  18.078  0.00  0.00    +0.000 HD
ENDBRANCH  14  15
ENDBRANCH  13  14
ENDBRANCH  11  13
ENDBRANCH   1  11
TORSDOF 5
ENDMDL
