MODEL 1
REMARK VINA RESULT:      -8.4      0.000      0.000
REMARK  Name = 
REMARK  8 active torsions:
REMARK  status: ('A' for Active; 'I' for Inactive)
REMARK    1  A    between atoms: C_1  and  C_2
REMARK    2  A    between atoms: C_2  and  O_3
REMARK    3  A    between atoms: C_2  and  C_14
REMARK    4  A    between atoms: O_3  and  C_4
REMARK    5  A    between atoms: C_4  and  C_6
REMARK    6  A    between atoms: C_7  and  C_8
REMARK    7  A    between atoms: N_16  and  C_17
REMARK    8  A    between atoms: C_22  and  C_23
REMARK                            x       y       z     vdW  Elec       q    Type
REMARK                         _______ _______ _______ _____ _____    ______ ____
ROOT
ATOM      1  C   UNL     1       4.198   6.107  17.046  0.00  0.00    +0.000 C 
ATOM      2  C   UNL     1       5.534   5.786  17.706  0.00  0.00    +0.000 C 
ENDROOT
BRANCH   2   3
ATOM      3  C   UNL     1       5.290   4.855  18.919  0.00  0.00    +0.000 C 
ATOM      4  O   UNL     1       6.123   4.675  19.804  0.00  0.00    +0.000 OA
ATOM      5  N   UNL     1       4.027   4.304  18.957  0.00  0.00    +0.000 N 
ATOM      6  H   UNL     1       3.594   4.231  18.043  0.00  0.00    +0.000 HD
BRANCH   5   7
ATOM      7  C   UNL     1       3.567   3.385  20.007  0.00  0.00    +0.000 C 
ATOM      8  C   UNL     1       2.692   4.084  21.071  0.00  0.00    +0.000 C 
ATOM      9  C   UNL     1       1.407   4.645  20.464  0.00  0.00    +0.000 C 
ATOM     10  C   UNL     1       0.597   3.547  19.780  0.00  0.00    +0.000 C 
ATOM     11  C   UNL     1       1.431   2.746  18.780  0.00  0.00    +0.000 C 
ATOM     12  C   UNL     1       2.736   2.222  19.409  0.00  0.00    +0.000 C 
ATOM     13  C   UNL     1       3.523   1.371  18.412  0.00  0.00    +0.000 C 
ENDBRANCH   5   7
ENDBRANCH   2   3
BRANCH   2  14
ATOM     14  O   UNL     1       6.198   6.990  18.134  0.00  0.00    +0.000 OA
BRANCH  14  15
ATOM     15  C   UNL     1       7.354   7.275  17.477  0.00  0.00    +0.000 C 
ATOM     16  O   UNL     1       7.703   6.827  16.401  0.00  0.00    +0.000 OA
BRANCH  15  17
ATOM     17  C   UNL     1       8.152   8.204  18.306  0.00  0.00    +0.000 C 
ATOM     18  C   UNL     1       8.392   9.450  17.868  0.00  0.00    +0.000 C 
BRANCH  18  19
ATOM     19  C   UNL     1       9.264  10.415  18.559  0.00  0.00    +0.000 A 
ATOM     20  C   UNL     1      10.090  11.253  17.796  0.00  0.00    +0.000 A 
ATOM     21  C   UNL     1      10.970  12.145  18.417  0.00  0.00    +0.000 A 
ATOM     22  C   UNL     1      11.020  12.222  19.806  0.00  0.00    +0.000 A 
ATOM     23  C   UNL     1      10.183  11.417  20.575  0.00  0.00    +0.000 A 
ATOM     24  C   UNL     1       9.306  10.524  19.955  0.00  0.00    +0.000 A 
ENDBRANCH  18  19
ENDBRANCH  15  17
ENDBRANCH  14  15
ENDBRANCH   2  14
TORSDOF 6
ENDMDL
MODEL 2
REMARK VINA RESULT:      -8.2      0.594      1.075
REMARK  Name = 
REMARK  8 active torsions:
REMARK  status: ('A' for Active; 'I' for Inactive)
REMARK    1  A    between atoms: C_1  and  C_2
REMARK    2  A    between atoms: C_2  and  O_3
REMARK    3  A    between atoms: C_2  and  C_14
REMARK    4  A    between atoms: O_3  and  C_4
REMARK    5  A    between atoms: C_4  and  C_6
REMARK    6  A    between atoms: C_7  and  C_8
REMARK    7  A    between atoms: N_16  and  C_17
REMARK    8  A    between atoms: C_22  and  C_23
REMARK                            x       y       z     vdW  Elec       q    Type
REMARK                         _______ _______ _______ _____ _____    ______ ____
ROOT
ATOM      1  C   UNL     1       4.352   6.584  17.883  0.00  0.00    +0.000 C 
ATOM      2  C   UNL     1       5.598   5.714  18.009  0.00  0.00    +0.000 C 
ENDROOT
BRANCH   2   3
ATOM      3  C   UNL     1       5.280   4.501  18.918  0.00  0.00    +0.000 C 
ATOM      4  O   UNL     1       6.151   3.791  19.416  0.00  0.00    +0.000 OA
ATOM      5  N   UNL     1       3.937   4.334  19.179  0.00  0.00    +0.000 N 
ATOM      6  H   UNL     1       3.337   4.723  18.461  0.00  0.00    +0.000 HD
BRANCH   5   7
ATOM      7  C   UNL     1       3.395   3.250  20.010  0.00  0.00    +0.000 C 
ATOM      8  C   UNL     1       2.401   3.755  21.078  0.00  0.00    +0.000 C 
ATOM      9  C   UNL     1       1.171   4.401  20.441  0.00  0.00    +0.000 C 
ATOM     10  C   UNL     1       0.461   3.427  19.505  0.00  0.00    +0.000 C 
ATOM     11  C   UNL     1       1.411   2.809  18.479  0.00  0.00    +0.000 C 
ATOM     12  C   UNL     1       2.657   2.197  19.145  0.00  0.00    +0.000 C 
ATOM     13  C   UNL     1       3.562   1.529  18.108  0.00  0.00    +0.000 C 
ENDBRANCH   5   7
ENDBRANCH   2   3
BRANCH   2  14
ATOM     14  O   UNL     1       6.696   6.468  18.558  0.00  0.00    +0.000 OA
BRANCH  14  15
ATOM     15  C   UNL     1       7.467   7.112  17.641  0.00  0.00    +0.000 C 
ATOM     16  O   UNL     1       7.559   6.844  16.458  0.00  0.00    +0.000 OA
BRANCH  15  17
ATOM     17  C   UNL     1       8.218   8.186  18.326  0.00  0.00    +0.000 C 
ATOM     18  C   UNL     1       8.191   9.435  17.835  0.00  0.00    +0.000 C 
BRANCH  18  19
ATOM     19  C   UNL     1       8.988  10.551  18.372  0.00  0.00    +0.000 A 
ATOM     20  C   UNL     1       9.665  10.381  19.589  0.00  0.00    +0.000 A 
ATOM     21  C   UNL     1      10.388  11.434  20.157  0.00  0.00    +0.000 A 
ATOM     22  C   UNL     1      10.458  12.663  19.506  0.00  0.00    +0.000 A 
ATOM     23  C   UNL     1       9.815  12.836  18.283  0.00  0.00    +0.000 A 
ATOM     24  C   UNL     1       9.091  11.785  17.716  0.00  0.00    +0.000 A 
ENDBRANCH  18  19
ENDBRANCH  15  17
ENDBRANCH  14  15
ENDBRANCH   2  14
TORSDOF 6
ENDMDL
MODEL 3
REMARK VINA RESULT:      -7.8      1.158      1.770
REMARK  Name = 
REMARK  8 active torsions:
REMARK  status: ('A' for Active; 'I' for Inactive)
REMARK    1  A    between atoms: C_1  and  C_2
REMARK    2  A    between atoms: C_2  and  O_3
REMARK    3  A    between atoms: C_2  and  C_14
REMARK    4  A    between atoms: O_3  and  C_4
REMARK    5  A    between atoms: C_4  and  C_6
REMARK    6  A    between atoms: C_7  and  C_8
REMARK    7  A    between atoms: N_16  and  C_17
REMARK    8  A    between atoms: C_22  and  C_23
REMARK                            x       y       z     vdW  Elec       q    Type
REMARK                         _______ _______ _______ _____ _____    ______ ____
ROOT
ATOM      1  C   UNL     1       7.824   5.100  18.838  0.00  0.00    +0.000 C 
ATOM      2  C   UNL     1       6.413   5.672  18.931  0.00  0.00    +0.000 C 
ENDROOT
BRANCH   2   3
ATOM      3  C   UNL     1       5.410   4.645  18.350  0.00  0.00    +0.000 C 
ATOM      4  O   UNL     1       5.557   4.112  17.252  0.00  0.00    +0.000 OA
ATOM      5  N   UNL     1       4.377   4.327  19.205  0.00  0.00    +0.000 N 
ATOM      6  H   UNL     1       4.172   5.058  19.876  0.00  0.00    +0.000 HD
BRANCH   5   7
ATOM      7  C   UNL     1       3.301   3.383  18.871  0.00  0.00    +0.000 C 
ATOM      8  C   UNL     1       3.211   2.204  19.865  0.00  0.00    +0.000 C 
ATOM      9  C   UNL     1       2.876   2.682  21.277  0.00  0.00    +0.000 C 
ATOM     10  C   UNL     1       1.566   3.466  21.296  0.00  0.00    +0.000 C 
ATOM     11  C   UNL     1       1.547   4.592  20.263  0.00  0.00    +0.000 C 
ATOM     12  C   UNL     1       1.921   4.089  18.856  0.00  0.00    +0.000 C 
ATOM     13  C   UNL     1       1.834   5.217  17.827  0.00  0.00    +0.000 C 
ENDBRANCH   5   7
ENDBRANCH   2   3
BRANCH   2  14
ATOM     14  O   UNL     1       6.317   6.917  18.212  0.00  0.00    +0.000 OA
BRANCH  14  15
ATOM     15  C   UNL     1       7.433   7.270  17.520  0.00  0.00    +0.000 C 
ATOM     16  O   UNL     1       7.756   6.870  16.418  0.00  0.00    +0.000 OA
BRANCH  15  17
ATOM     17  C   UNL     1       8.226   8.205  18.347  0.00  0.00    +0.000 C 
ATOM     18  C   UNL     1       8.416   9.466  17.930  0.00  0.00    +0.000 C 
BRANCH  18  19
ATOM     19  C   UNL     1       9.277  10.443  18.618  0.00  0.00    +0.000 A 
ATOM     20  C   UNL     1      10.137  11.248  17.855  0.00  0.00    +0.000 A 
ATOM     21  C   UNL     1      11.007  12.149  18.475  0.00  0.00    +0.000 A 
ATOM     22  C   UNL     1      11.015  12.269  19.863  0.00  0.00    +0.000 A 
ATOM     23  C   UNL     1      10.146  11.497  20.629  0.00  0.00    +0.000 A 
ATOM     24  C   UNL     1       9.278  10.595  20.010  0.00  0.00    +0.000 A 
ENDBRANCH  18  19
ENDBRANCH  15  17
ENDBRANCH  14  15
ENDBRANCH   2  14
TORSDOF 6
ENDMDL
MODEL 4
REMARK VINA RESULT:      -7.6      1.281      2.188
REMARK  Name = 
REMARK  8 active torsions:
REMARK  status: ('A' for Active; 'I' for Inactive)
REMARK    1  A    between atoms: C_1  and  C_2
REMARK    2  A    between atoms: C_2  and  O_3
REMARK    3  A    between atoms: C_2  and  C_14
REMARK    4  A    between atoms: O_3  and  C_4
REMARK    5  A    between atoms: C_4  and  C_6
REMARK    6  A    between atoms: C_7  and  C_8
REMARK    7  A    between atoms: N_16  and  C_17
REMARK    8  A    between atoms: C_22  and  C_23
REMARK                            x       y       z     vdW  Elec       q    Type
REMARK                         _______ _______ _______ _____ _____    ______ ____
ROOT
ATOM      1  C   UNL     1       7.440   5.180  20.023  0.00  0.00    +0.000 C 
ATOM      2  C   UNL     1       6.695   5.862  18.881  0.00  0.00    +0.000 C 
ENDROOT
BRANCH   2   3
ATOM      3  C   UNL     1       5.695   4.859  18.256  0.00  0.00    +0.000 C 
ATOM      4  O   UNL     1       5.829   4.396  17.125  0.00  0.00    +0.000 OA
ATOM      5  N   UNL     1       4.682   4.474  19.108  0.00  0.00    +0.000 N 
ATOM      6  H   UNL     1       4.479   5.160  19.826  0.00  0.00    +0.000 HD
BRANCH   5   7
ATOM      7  C   UNL     1       3.613   3.537  18.736  0.00  0.00    +0.000 C 
ATOM      8  C   UNL     1       3.587   2.276  19.627  0.00  0.00    +0.000 C 
ATOM      9  C   UNL     1       3.301   2.623  21.087  0.00  0.00    +0.000 C 
ATOM     10  C   UNL     1       1.978   3.370  21.225  0.00  0.00    +0.000 C 
ATOM     11  C   UNL     1       1.893   4.580  20.294  0.00  0.00    +0.000 C 
ATOM     12  C   UNL     1       2.220   4.209  18.836  0.00  0.00    +0.000 C 
ATOM     13  C   UNL     1       2.068   5.419  17.913  0.00  0.00    +0.000 C 
ENDBRANCH   5   7
ENDBRANCH   2   3
BRANCH   2  14
ATOM     14  O   UNL     1       7.615   6.332  17.877  0.00  0.00    +0.000 OA
BRANCH  14  15
ATOM     15  C   UNL     1       7.464   7.636  17.523  0.00  0.00    +0.000 C 
ATOM     16  O   UNL     1       6.673   8.078  16.710  0.00  0.00    +0.000 OA
BRANCH  15  17
ATOM     17  C   UNL     1       8.454   8.445  18.265  0.00  0.00    +0.000 C 
ATOM     18  C   UNL     1       8.448   9.782  18.144  0.00  0.00    +0.000 C 
BRANCH  18  19
ATOM     19  C   UNL     1       9.454  10.672  18.748  0.00  0.00    +0.000 A 
ATOM     20  C   UNL     1       9.440  10.871  20.137  0.00  0.00    +0.000 A 
ATOM     21  C   UNL     1      10.345  11.749  20.741  0.00  0.00    +0.000 A 
ATOM     22  C   UNL     1      11.286  12.423  19.966  0.00  0.00    +0.000 A 
ATOM     23  C   UNL     1      11.330  12.211  18.590  0.00  0.00    +0.000 A 
ATOM     24  C   UNL     1      10.425  11.336  17.986  0.00  0.00    +0.000 A 
ENDBRANCH  18  19
ENDBRANCH  15  17
ENDBRANCH  14  15
ENDBRANCH   2  14
TORSDOF 6
ENDMDL
MODEL 5
REMARK VINA RESULT:      -7.6      1.120      2.090
REMARK  Name = 
REMARK  8 active torsions:
REMARK  status: ('A' for Active; 'I' for Inactive)
REMARK    1  A    between atoms: C_1  and  C_2
REMARK    2  A    between atoms: C_2  and  O_3
REMARK    3  A    between atoms: C_2  and  C_14
REMARK    4  A    between atoms: O_3  and  C_4
REMARK    5  A    between atoms: C_4  and  C_6
REMARK    6  A    between atoms: C_7  and  C_8
REMARK    7  A    between atoms: N_16  and  C_17
REMARK    8  A    between atoms: C_22  and  C_23
REMARK                            x       y       z     vdW  Elec       q    Type
REMARK                         _______ _______ _______ _____ _____    ______ ____
ROOT
ATOM      1  C   UNL     1       7.214   4.553  17.150  0.00  0.00    +0.000 C 
ATOM      2  C   UNL     1       6.381   5.075  18.315  0.00  0.00    +0.000 C 
ENDROOT
BRANCH   2   3
ATOM      3  C   UNL     1       4.898   5.167  17.878  0.00  0.00    +0.000 C 
ATOM      4  O   UNL     1       4.538   5.718  16.840  0.00  0.00    +0.000 OA
ATOM      5  N   UNL     1       4.025   4.511  18.720  0.00  0.00    +0.000 N 
ATOM      6  H   UNL     1       4.370   4.425  19.669  0.00  0.00    +0.000 HD
BRANCH   5   7
ATOM      7  C   UNL     1       2.570   4.466  18.514  0.00  0.00    +0.000 C 
ATOM      8  C   UNL     1       2.040   3.029  18.319  0.00  0.00    +0.000 C 
ATOM      9  C   UNL     1       2.278   2.167  19.558  0.00  0.00    +0.000 C 
ATOM     10  C   UNL     1       1.628   2.786  20.791  0.00  0.00    +0.000 C 
ATOM     11  C   UNL     1       2.034   4.247  20.992  0.00  0.00    +0.000 C 
ATOM     12  C   UNL     1       1.815   5.084  19.718  0.00  0.00    +0.000 C 
ATOM     13  C   UNL     1       2.167   6.553  19.958  0.00  0.00    +0.000 C 
ENDBRANCH   5   7
ENDBRANCH   2   3
BRANCH   2  14
ATOM     14  O   UNL     1       6.850   6.369  18.742  0.00  0.00    +0.000 OA
BRANCH  14  15
ATOM     15  C   UNL     1       7.570   7.054  17.813  0.00  0.00    +0.000 C 
ATOM     16  O   UNL     1       7.540   6.888  16.609  0.00  0.00    +0.000 OA
BRANCH  15  17
ATOM     17  C   UNL     1       8.439   8.026  18.512  0.00  0.00    +0.000 C 
ATOM     18  C   UNL     1       8.397   9.323  18.170  0.00  0.00    +0.000 C 
BRANCH  18  19
ATOM     19  C   UNL     1       9.294  10.353  18.721  0.00  0.00    +0.000 A 
ATOM     20  C   UNL     1      10.127  11.069  17.848  0.00  0.00    +0.000 A 
ATOM     21  C   UNL     1      11.030  12.016  18.339  0.00  0.00    +0.000 A 
ATOM     22  C   UNL     1      11.097  12.272  19.707  0.00  0.00    +0.000 A 
ATOM     23  C   UNL     1      10.254  11.590  20.581  0.00  0.00    +0.000 A 
ATOM     24  C   UNL     1       9.354  10.642  20.091  0.00  0.00    +0.000 A 
ENDBRANCH  18  19
ENDBRANCH  15  17
ENDBRANCH  14  15
ENDBRANCH   2  14
TORSDOF 6
ENDMDL
MODEL 6
REMARK VINA RESULT:      -7.5      3.795      6.755
REMARK  Name = 
REMARK  8 active torsions:
REMARK  status: ('A' for Active; 'I' for Inactive)
REMARK    1  A    between atoms: C_1  and  C_2
REMARK    2  A    between atoms: C_2  and  O_3
REMARK    3  A    between atoms: C_2  and  C_14
REMARK    4  A    between atoms: O_3  and  C_4
REMARK    5  A    between atoms: C_4  and  C_6
REMARK    6  A    between atoms: C_7  and  C_8
REMARK    7  A    between atoms: N_16  and  C_17
REMARK    8  A    between atoms: C_22  and  C_23
REMARK                            x       y       z     vdW  Elec       q    Type
REMARK                         _______ _______ _______ _____ _____    ______ ____
ROOT
ATOM      1  C   UNL     1       4.179   1.978  19.295  0.00  0.00    +0.000 C 
ATOM      2  C   UNL     1       3.182   3.127  19.191  0.00  0.00    +0.000 C 
ENDROOT
BRANCH   2   3
ATOM      3  C   UNL     1       3.290   3.767  17.785  0.00  0.00    +0.000 C 
ATOM      4  O   UNL     1       2.452   3.593  16.903  0.00  0.00    +0.000 OA
ATOM      5  N   UNL     1       4.372   4.609  17.635  0.00  0.00    +0.000 N 
ATOM      6  H   UNL     1       5.139   4.391  18.260  0.00  0.00    +0.000 HD
BRANCH   5   7
ATOM      7  C   UNL     1       4.685   5.323  16.389  0.00  0.00    +0.000 C 
ATOM      8  C   UNL     1       4.853   6.844  16.599  0.00  0.00    +0.000 C 
ATOM      9  C   UNL     1       6.026   7.159  17.526  0.00  0.00    +0.000 C 
ATOM     10  C   UNL     1       7.326   6.573  16.984  0.00  0.00    +0.000 C 
ATOM     11  C   UNL     1       7.204   5.084  16.660  0.00  0.00    +0.000 C 
ATOM     12  C   UNL     1       5.994   4.791  15.753  0.00  0.00    +0.000 C 
ATOM     13  C   UNL     1       5.926   3.307  15.389  0.00  0.00    +0.000 C 
ENDBRANCH   5   7
ENDBRANCH   2   3
BRANCH   2  14
ATOM     14  O   UNL     1       3.435   4.119  20.205  0.00  0.00    +0.000 OA
BRANCH  14  15
ATOM     15  C   UNL     1       2.409   4.328  21.073  0.00  0.00    +0.000 C 
ATOM     16  O   UNL     1       2.063   3.589  21.975  0.00  0.00    +0.000 OA
BRANCH  15  17
ATOM     17  C   UNL     1       1.745   5.602  20.721  0.00  0.00    +0.000 C 
ATOM     18  C   UNL     1       2.373   6.484  19.928  0.00  0.00    +0.000 C 
BRANCH  18  19
ATOM     19  C   UNL     1       1.852   7.823  19.606  0.00  0.00    +0.000 A 
ATOM     20  C   UNL     1       2.045   8.337  18.315  0.00  0.00    +0.000 A 
ATOM     21  C   UNL     1       1.612   9.624  17.987  0.00  0.00    +0.000 A 
ATOM     22  C   UNL     1       0.965  10.407  18.941  0.00  0.00    +0.000 A 
ATOM     23  C   UNL     1       0.741   9.898  20.217  0.00  0.00    +0.000 A 
ATOM     24  C   UNL     1       1.175   8.612  20.546  0.00  0.00    +0.000 A 
ENDBRANCH  18  19
ENDBRANCH  15  17
ENDBRANCH  14  15
ENDBRANCH   2  14
TORSDOF 6
ENDMDL
MODEL 7
REMARK VINA RESULT:      -7.5      1.333      1.948
REMARK  Name = 
REMARK  8 active torsions:
REMARK  status: ('A' for Active; 'I' for Inactive)
REMARK    1  A    between atoms: C_1  and  C_2
REMARK    2  A    between atoms: C_2  and  O_3
REMARK    3  A    between atoms: C_2  and  C_14
REMARK    4  A    between atoms: O_3  and  C_4
REMARK    5  A    between atoms: C_4  and  C_6
REMARK    6  A    between atoms: C_7  and  C_8
REMARK    7  A    between atoms: N_16  and  C_17
REMARK    8  A    between atoms: C_22  and  C_23
REMARK                            x       y       z     vdW  Elec       q    Type
REMARK                         _______ _______ _______ _____ _____    ______ ____
ROOT
ATOM      1  C   UNL     1       5.716   5.304  15.507  0.00  0.00    +0.000 C 
ATOM      2  C   UNL     1       6.216   5.713  16.888  0.00  0.00    +0.000 C 
ENDROOT
BRANCH   2   3
ATOM      3  C   UNL     1       5.016   5.775  17.865  0.00  0.00    +0.000 C 
ATOM      4  O   UNL     1       4.364   6.797  18.061  0.00  0.00    +0.000 OA
ATOM      5  N   UNL     1       4.699   4.562  18.440  0.00  0.00    +0.000 N 
ATOM      6  H   UNL     1       5.484   3.923  18.488  0.00  0.00    +0.000 HD
BRANCH   5   7
ATOM      7  C   UNL     1       3.605   4.375  19.403  0.00  0.00    +0.000 C 
ATOM      8  C   UNL     1       2.259   4.936  18.893  0.00  0.00    +0.000 C 
ATOM      9  C   UNL     1       1.788   4.211  17.633  0.00  0.00    +0.000 C 
ATOM     10  C   UNL     1       1.654   2.711  17.880  0.00  0.00    +0.000 C 
ATOM     11  C   UNL     1       2.923   2.104  18.479  0.00  0.00    +0.000 C 
ATOM     12  C   UNL     1       3.394   2.874  19.727  0.00  0.00    +0.000 C 
ATOM     13  C   UNL     1       4.627   2.214  20.347  0.00  0.00    +0.000 C 
ENDBRANCH   5   7
ENDBRANCH   2   3
BRANCH   2  14
ATOM     14  O   UNL     1       6.877   6.992  16.837  0.00  0.00    +0.000 OA
BRANCH  14  15
ATOM     15  C   UNL     1       7.678   7.269  17.900  0.00  0.00    +0.000 C 
ATOM     16  O   UNL     1       8.056   6.480  18.745  0.00  0.00    +0.000 OA
BRANCH  15  17
ATOM     17  C   UNL     1       7.993   8.714  17.890  0.00  0.00    +0.000 C 
ATOM     18  C   UNL     1       8.903   9.203  18.747  0.00  0.00    +0.000 C 
BRANCH  18  19
ATOM     19  C   UNL     1       9.210  10.636  18.897  0.00  0.00    +0.000 A 
ATOM     20  C   UNL     1       9.871  11.073  20.055  0.00  0.00    +0.000 A 
ATOM     21  C   UNL     1      10.133  12.430  20.258  0.00  0.00    +0.000 A 
ATOM     22  C   UNL     1       9.754  13.365  19.298  0.00  0.00    +0.000 A 
ATOM     23  C   UNL     1       9.124  12.942  18.131  0.00  0.00    +0.000 A 
ATOM     24  C   UNL     1       8.860  11.585  17.928  0.00  0.00    +0.000 A 
ENDBRANCH  18  19
ENDBRANCH  15  17
ENDBRANCH  14  15
ENDBRANCH   2  14
TORSDOF 6
ENDMDL
MODEL 8
REMARK VINA RESULT:      -7.5      1.842      2.958
REMARK  Name = 
REMARK  8 active torsions:
REMARK  status: ('A' for Active; 'I' for Inactive)
REMARK    1  A    between atoms: C_1  and  C_2
REMARK    2  A    between atoms: C_2  and  O_3
REMARK    3  A    between atoms: C_2  and  C_14
REMARK    4  A    between atoms: O_3  and  C_4
REMARK    5  A    between atoms: C_4  and  C_6
REMARK    6  A    between atoms: C_7  and  C_8
REMARK    7  A    between atoms: N_16  and  C_17
REMARK    8  A    between atoms: C_22  and  C_23
REMARK                            x       y       z     vdW  Elec       q    Type
REMARK                         _______ _______ _______ _____ _____    ______ ____
ROOT
ATOM      1  C   UNL     1       7.259   4.566  16.377  0.00  0.00    +0.000 C 
ATOM      2  C   UNL     1       6.435   5.368  17.379  0.00  0.00    +0.000 C 
ENDROOT
BRANCH   2   3
ATOM      3  C   UNL     1       4.931   5.197  17.052  0.00  0.00    +0.000 C 
ATOM      4  O   UNL     1       4.521   4.494  16.132  0.00  0.00    +0.000 OA
ATOM      5  N   UNL     1       4.091   5.845  17.933  0.00  0.00    +0.000 N 
ATOM      6  H   UNL     1       4.523   6.640  18.389  0.00  0.00    +0.000 HD
BRANCH   5   7
ATOM      7  C   UNL     1       2.625   5.832  17.822  0.00  0.00    +0.000 C 
ATOM      8  C   UNL     1       1.984   4.619  18.529  0.00  0.00    +0.000 C 
ATOM      9  C   UNL     1       2.254   4.635  20.033  0.00  0.00    +0.000 C 
ATOM     10  C   UNL     1       1.742   5.924  20.669  0.00  0.00    +0.000 C 
ATOM     11  C   UNL     1       2.261   7.172  19.955  0.00  0.00    +0.000 C 
ATOM     12  C   UNL     1       2.007   7.113  18.437  0.00  0.00    +0.000 C 
ATOM     13  C   UNL     1       2.476   8.397  17.751  0.00  0.00    +0.000 C 
ENDBRANCH   5   7
ENDBRANCH   2   3
BRANCH   2  14
ATOM     14  O   UNL     1       6.794   6.763  17.336  0.00  0.00    +0.000 OA
BRANCH  14  15
ATOM     15  C   UNL     1       7.783   7.129  18.196  0.00  0.00    +0.000 C 
ATOM     16  O   UNL     1       8.296   6.429  19.048  0.00  0.00    +0.000 OA
BRANCH  15  17
ATOM     17  C   UNL     1       8.117   8.549  17.953  0.00  0.00    +0.000 C 
ATOM     18  C   UNL     1       8.884   9.213  18.833  0.00  0.00    +0.000 C 
BRANCH  18  19
ATOM     19  C   UNL     1       9.185  10.652  18.746  0.00  0.00    +0.000 A 
ATOM     20  C   UNL     1      10.018  11.232  19.715  0.00  0.00    +0.000 A 
ATOM     21  C   UNL     1      10.284  12.604  19.697  0.00  0.00    +0.000 A 
ATOM     22  C   UNL     1       9.735  13.408  18.701  0.00  0.00    +0.000 A 
ATOM     23  C   UNL     1       8.931  12.840  17.717  0.00  0.00    +0.000 A 
ATOM     24  C   UNL     1       8.663  11.469  17.735  0.00  0.00    +0.000 A 
ENDBRANCH  18  19
ENDBRANCH  15  17
ENDBRANCH  14  15
ENDBRANCH   2  14
TORSDOF 6
ENDMDL
MODEL 9
REMARK VINA RESULT:      -7.4      3.668      5.825
REMARK  Name = 
REMARK  8 active torsions:
REMARK  status: ('A' for Active; 'I' for Inactive)
REMARK    1  A    between atoms: C_1  and  C_2
REMARK    2  A    between atoms: C_2  and  O_3
REMARK    3  A    between atoms: C_2  and  C_14
REMARK    4  A    between atoms: O_3  and  C_4
REMARK    5  A    between atoms: C_4  and  C_6
REMARK    6  A    between atoms: C_7  and  C_8
REMARK    7  A    between atoms: N_16  and  C_17
REMARK    8  A    between atoms: C_22  and  C_23
REMARK                            x       y       z     vdW  Elec       q    Type
REMARK                         _______ _______ _______ _____ _____    ______ ____
ROOT
ATOM      1  C   UNL     1       7.367   5.636  19.783  0.00  0.00    +0.000 C 
ATOM      2  C   UNL     1       5.997   5.809  19.136  0.00  0.00    +0.000 C 
ENDROOT
BRANCH   2   3
ATOM      3  C   UNL     1       5.366   4.415  18.901  0.00  0.00    +0.000 C 
ATOM      4  O   UNL     1       6.026   3.422  18.605  0.00  0.00    +0.000 OA
ATOM      5  N   UNL     1       4.006   4.371  19.126  0.00  0.00    +0.000 N 
ATOM      6  H   UNL     1       3.550   5.268  19.005  0.00  0.00    +0.000 HD
BRANCH   5   7
ATOM      7  C   UNL     1       3.190   3.160  18.960  0.00  0.00    +0.000 C 
ATOM      8  C   UNL     1       3.304   2.195  20.160  0.00  0.00    +0.000 C 
ATOM      9  C   UNL     1       2.786   2.833  21.448  0.00  0.00    +0.000 C 
ATOM     10  C   UNL     1       1.336   3.284  21.293  0.00  0.00    +0.000 C 
ATOM     11  C   UNL     1       1.129   4.168  20.063  0.00  0.00    +0.000 C 
ATOM     12  C   UNL     1       1.691   3.515  18.786  0.00  0.00    +0.000 C 
ATOM     13  C   UNL     1       1.418   4.385  17.558  0.00  0.00    +0.000 C 
ENDBRANCH   5   7
ENDBRANCH   2   3
BRANCH   2  14
ATOM     14  O   UNL     1       6.107   6.518  17.886  0.00  0.00    +0.000 OA
BRANCH  14  15
ATOM     15  C   UNL     1       4.944   6.647  17.193  0.00  0.00    +0.000 C 
ATOM     16  O   UNL     1       3.876   7.023  17.638  0.00  0.00    +0.000 OA
BRANCH  15  17
ATOM     17  C   UNL     1       5.174   6.216  15.798  0.00  0.00    +0.000 C 
ATOM     18  C   UNL     1       5.765   5.036  15.555  0.00  0.00    +0.000 C 
BRANCH  18  19
ATOM     19  C   UNL     1       6.142   4.561  14.213  0.00  0.00    +0.000 A 
ATOM     20  C   UNL     1       7.292   5.084  13.603  0.00  0.00    +0.000 A 
ATOM     21  C   UNL     1       7.653   4.697  12.309  0.00  0.00    +0.000 A 
ATOM     22  C   UNL     1       6.877   3.770  11.616  0.00  0.00    +0.000 A 
ATOM     23  C   UNL     1       5.750   3.221  12.221  0.00  0.00    +0.000 A 
ATOM     24  C   UNL     1       5.388   3.609  13.514  0.00  0.00    +0.000 A 
ENDBRANCH  18  19
ENDBRANCH  15  17
ENDBRANCH  14  15
ENDBRANCH   2  14
TORSDOF 6
ENDMDL
