MODEL 1
REMARK VINA RESULT:      -8.1      0.000      0.000
REMARK  Name = 
REMARK  6 active torsions:
REMARK  status: ('A' for Active; 'I' for Inactive)
REMARK    1  A    between atoms: C_4  and  C_5
REMARK    2  A    between atoms: C_5  and  C_6
REMARK    3  A    between atoms: C_6  and  C_7
REMARK    4  A    between atoms: C_7  and  C_8
REMARK    5  A    between atoms: C_12  and  C_13
REMARK    6  A    between atoms: C_23  and  O_24
REMARK                            x       y       z     vdW  Elec       q    Type
REMARK                         _______ _______ _______ _____ _____    ______ ____
ROOT
ATOM      1  O   UNL     1       6.702   5.075  19.739  0.00  0.00    +0.000 OA
ATOM      2  C   UNL     1       5.917   5.455  18.880  0.00  0.00    +0.000 A 
ATOM      3  C   UNL     1       4.681   6.142  19.302  0.00  0.00    +0.000 A 
ATOM      4  C   UNL     1       3.811   6.586  18.385  0.00  0.00    +0.000 A 
ATOM      5  O   UNL     1       4.011   6.465  17.021  0.00  0.00    +0.000 OA
ATOM      6  C   UNL     1       5.121   5.791  16.574  0.00  0.00    +0.000 A 
ATOM      7  C   UNL     1       5.230   5.647  15.189  0.00  0.00    +0.000 A 
ATOM      8  C   UNL     1       6.324   4.982  14.640  0.00  0.00    +0.000 A 
ATOM      9  C   UNL     1       7.308   4.457  15.475  0.00  0.00    +0.000 A 
ATOM     10  C   UNL     1       7.198   4.599  16.863  0.00  0.00    +0.000 A 
ATOM     11  C   UNL     1       6.101   5.270  17.423  0.00  0.00    +0.000 A 
ENDROOT
BRANCH  10  12
ATOM     12  O   UNL     1       8.176   4.067  17.654  0.00  0.00    +0.000 OA
ATOM     13  H   UNL     1       8.271   3.118  17.483  0.00  0.00    +0.000 HD
ENDBRANCH  10  12
BRANCH   4  14
ATOM     14  C   UNL     1       2.514   7.263  18.754  0.00  0.00    +0.000 C 
BRANCH  14  15
ATOM     15  C   UNL     1       2.122   6.935  20.197  0.00  0.00    +0.000 C 
BRANCH  15  16
ATOM     16  C   UNL     1       1.053   5.842  20.286  0.00  0.00    +0.000 C 
BRANCH  16  17
ATOM     17  C   UNL     1       1.708   4.483  20.363  0.00  0.00    +0.000 A 
ATOM     18  C   UNL     1       1.971   3.887  21.602  0.00  0.00    +0.000 A 
ATOM     19  C   UNL     1       2.646   2.668  21.672  0.00  0.00    +0.000 A 
ATOM     20  C   UNL     1       3.071   2.033  20.504  0.00  0.00    +0.000 A 
ATOM     21  C   UNL     1       2.819   2.609  19.252  0.00  0.00    +0.000 A 
ATOM     22  C   UNL     1       2.132   3.835  19.193  0.00  0.00    +0.000 A 
BRANCH  21  23
ATOM     23  C   UNL     1       3.282   1.948  17.978  0.00  0.00    +0.000 C 
ATOM     24  F   UNL     1       4.191   2.683  17.278  0.00  0.00    +0.000 F 
ATOM     25  F   UNL     1       3.873   0.741  18.203  0.00  0.00    +0.000 F 
ATOM     26  F   UNL     1       2.257   1.704  17.114  0.00  0.00    +0.000 F 
ENDBRANCH  21  23
ENDBRANCH  16  17
ENDBRANCH  15  16
ENDBRANCH  14  15
ENDBRANCH   4  14
TORSDOF 6
ENDMDL
MODEL 2
REMARK VINA RESULT:      -8.0      4.058      7.026
REMARK  Name = 
REMARK  6 active torsions:
REMARK  status: ('A' for Active; 'I' for Inactive)
REMARK    1  A    between atoms: C_4  and  C_5
REMARK    2  A    between atoms: C_5  and  C_6
REMARK    3  A    between atoms: C_6  and  C_7
REMARK    4  A    between atoms: C_7  and  C_8
REMARK    5  A    between atoms: C_12  and  C_13
REMARK    6  A    between atoms: C_23  and  O_24
REMARK                            x       y       z     vdW  Elec       q    Type
REMARK                         _______ _______ _______ _____ _____    ______ ____
ROOT
ATOM      1  O   UNL     1      -0.843  11.992  18.801  0.00  0.00    +0.000 OA
ATOM      2  C   UNL     1      -0.204  11.045  19.242  0.00  0.00    +0.000 A 
ATOM      3  C   UNL     1       0.646  10.270  18.317  0.00  0.00    +0.000 A 
ATOM      4  C   UNL     1       1.372   9.240  18.774  0.00  0.00    +0.000 A 
ATOM      5  O   UNL     1       1.401   8.856  20.103  0.00  0.00    +0.000 OA
ATOM      6  C   UNL     1       0.591   9.512  20.997  0.00  0.00    +0.000 A 
ATOM      7  C   UNL     1       0.619   9.033  22.310  0.00  0.00    +0.000 A 
ATOM      8  C   UNL     1      -0.165   9.637  23.290  0.00  0.00    +0.000 A 
ATOM      9  C   UNL     1      -0.980  10.718  22.959  0.00  0.00    +0.000 A 
ATOM     10  C   UNL     1      -1.009  11.196  21.644  0.00  0.00    +0.000 A 
ATOM     11  C   UNL     1      -0.221  10.596  20.653  0.00  0.00    +0.000 A 
ENDROOT
BRANCH  10  12
ATOM     12  O   UNL     1      -1.824  12.253  21.352  0.00  0.00    +0.000 OA
ATOM     13  H   UNL     1      -1.577  12.645  20.501  0.00  0.00    +0.000 HD
ENDBRANCH  10  12
BRANCH   4  14
ATOM     14  C   UNL     1       2.231   8.388  17.873  0.00  0.00    +0.000 C 
BRANCH  14  15
ATOM     15  C   UNL     1       2.596   7.069  18.558  0.00  0.00    +0.000 C 
BRANCH  15  16
ATOM     16  C   UNL     1       3.185   6.041  17.589  0.00  0.00    +0.000 C 
BRANCH  16  17
ATOM     17  C   UNL     1       2.970   4.643  18.121  0.00  0.00    +0.000 A 
ATOM     18  C   UNL     1       2.974   3.542  17.256  0.00  0.00    +0.000 A 
ATOM     19  C   UNL     1       2.697   2.263  17.738  0.00  0.00    +0.000 A 
ATOM     20  C   UNL     1       2.409   2.070  19.090  0.00  0.00    +0.000 A 
ATOM     21  C   UNL     1       2.400   3.156  19.975  0.00  0.00    +0.000 A 
ATOM     22  C   UNL     1       2.686   4.440  19.480  0.00  0.00    +0.000 A 
BRANCH  21  23
ATOM     23  C   UNL     1       2.076   2.972  21.437  0.00  0.00    +0.000 C 
ATOM     24  F   UNL     1       2.300   4.084  22.192  0.00  0.00    +0.000 F 
ATOM     25  F   UNL     1       0.772   2.638  21.644  0.00  0.00    +0.000 F 
ATOM     26  F   UNL     1       2.810   1.979  22.013  0.00  0.00    +0.000 F 
ENDBRANCH  21  23
ENDBRANCH  16  17
ENDBRANCH  15  16
ENDBRANCH  14  15
ENDBRANCH   4  14
TORSDOF 6
ENDMDL
MODEL 3
REMARK VINA RESULT:      -8.0      4.479      6.759
REMARK  Name = 
REMARK  6 active torsions:
REMARK  status: ('A' for Active; 'I' for Inactive)
REMARK    1  A    between atoms: C_4  and  C_5
REMARK    2  A    between atoms: C_5  and  C_6
REMARK    3  A    between atoms: C_6  and  C_7
REMARK    4  A    between atoms: C_7  and  C_8
REMARK    5  A    between atoms: C_12  and  C_13
REMARK    6  A    between atoms: C_23  and  O_24
REMARK                            x       y       z     vdW  Elec       q    Type
REMARK                         _______ _______ _______ _____ _____    ______ ____
ROOT
ATOM      1  O   UNL     1       5.852   4.104  18.895  0.00  0.00    +0.000 OA
ATOM      2  C   UNL     1       4.733   4.599  18.910  0.00  0.00    +0.000 A 
ATOM      3  C   UNL     1       4.497   5.843  18.151  0.00  0.00    +0.000 A 
ATOM      4  C   UNL     1       3.278   6.400  18.133  0.00  0.00    +0.000 A 
ATOM      5  O   UNL     1       2.180   5.855  18.776  0.00  0.00    +0.000 OA
ATOM      6  C   UNL     1       2.355   4.725  19.537  0.00  0.00    +0.000 A 
ATOM      7  C   UNL     1       1.221   4.264  20.212  0.00  0.00    +0.000 A 
ATOM      8  C   UNL     1       1.298   3.121  21.005  0.00  0.00    +0.000 A 
ATOM      9  C   UNL     1       2.508   2.440  21.126  0.00  0.00    +0.000 A 
ATOM     10  C   UNL     1       3.643   2.903  20.451  0.00  0.00    +0.000 A 
ATOM     11  C   UNL     1       3.573   4.050  19.649  0.00  0.00    +0.000 A 
ENDROOT
BRANCH  10  12
ATOM     12  O   UNL     1       4.814   2.216  20.597  0.00  0.00    +0.000 OA
ATOM     13  H   UNL     1       5.461   2.749  21.084  0.00  0.00    +0.000 HD
ENDBRANCH  10  12
BRANCH   4  14
ATOM     14  C   UNL     1       2.983   7.689  17.407  0.00  0.00    +0.000 C 
BRANCH  14  15
ATOM     15  C   UNL     1       2.479   8.757  18.380  0.00  0.00    +0.000 C 
BRANCH  15  16
ATOM     16  C   UNL     1       1.148   9.374  17.943  0.00  0.00    +0.000 C 
BRANCH  16  17
ATOM     17  C   UNL     1       0.552  10.176  19.077  0.00  0.00    +0.000 A 
ATOM     18  C   UNL     1       0.336  11.553  18.940  0.00  0.00    +0.000 A 
ATOM     19  C   UNL     1      -0.140  12.305  20.014  0.00  0.00    +0.000 A 
ATOM     20  C   UNL     1      -0.401  11.690  21.239  0.00  0.00    +0.000 A 
ATOM     21  C   UNL     1      -0.193  10.314  21.401  0.00  0.00    +0.000 A 
ATOM     22  C   UNL     1       0.281   9.565  20.310  0.00  0.00    +0.000 A 
BRANCH  21  23
ATOM     23  C   UNL     1      -0.455   9.633  22.721  0.00  0.00    +0.000 C 
ATOM     24  F   UNL     1       0.649   9.530  23.513  0.00  0.00    +0.000 F 
ATOM     25  F   UNL     1      -1.390  10.284  23.468  0.00  0.00    +0.000 F 
ATOM     26  F   UNL     1      -0.921   8.362  22.568  0.00  0.00    +0.000 F 
ENDBRANCH  21  23
ENDBRANCH  16  17
ENDBRANCH  15  16
ENDBRANCH  14  15
ENDBRANCH   4  14
TORSDOF 6
ENDMDL
MODEL 4
REMARK VINA RESULT:      -8.0      3.885      6.966
REMARK  Name = 
REMARK  6 active torsions:
REMARK  status: ('A' for Active; 'I' for Inactive)
REMARK    1  A    between atoms: C_4  and  C_5
REMARK    2  A    between atoms: C_5  and  C_6
REMARK    3  A    between atoms: C_6  and  C_7
REMARK    4  A    between atoms: C_7  and  C_8
REMARK    5  A    between atoms: C_12  and  C_13
REMARK    6  A    between atoms: C_23  and  O_24
REMARK                            x       y       z     vdW  Elec       q    Type
REMARK                         _______ _______ _______ _____ _____    ______ ____
ROOT
ATOM      1  O   UNL     1      -0.965  11.884  18.706  0.00  0.00    +0.000 OA
ATOM      2  C   UNL     1      -0.293  10.952  19.127  0.00  0.00    +0.000 A 
ATOM      3  C   UNL     1       0.524  10.178  18.173  0.00  0.00    +0.000 A 
ATOM      4  C   UNL     1       1.285   9.163  18.606  0.00  0.00    +0.000 A 
ATOM      5  O   UNL     1       1.380   8.794  19.936  0.00  0.00    +0.000 OA
ATOM      6  C   UNL     1       0.602   9.449  20.860  0.00  0.00    +0.000 A 
ATOM      7  C   UNL     1       0.697   8.985  22.175  0.00  0.00    +0.000 A 
ATOM      8  C   UNL     1      -0.050   9.589  23.183  0.00  0.00    +0.000 A 
ATOM      9  C   UNL     1      -0.894  10.655  22.879  0.00  0.00    +0.000 A 
ATOM     10  C   UNL     1      -0.990  11.118  21.562  0.00  0.00    +0.000 A 
ATOM     11  C   UNL     1      -0.240  10.518  20.542  0.00  0.00    +0.000 A 
ENDROOT
BRANCH  10  12
ATOM     12  O   UNL     1      -1.832  12.160  21.296  0.00  0.00    +0.000 OA
ATOM     13  H   UNL     1      -1.577  12.942  21.809  0.00  0.00    +0.000 HD
ENDBRANCH  10  12
BRANCH   4  14
ATOM     14  C   UNL     1       2.114   8.313  17.675  0.00  0.00    +0.000 C 
BRANCH  14  15
ATOM     15  C   UNL     1       3.054   7.401  18.467  0.00  0.00    +0.000 C 
BRANCH  15  16
ATOM     16  C   UNL     1       3.926   6.524  17.564  0.00  0.00    +0.000 C 
BRANCH  16  17
ATOM     17  C   UNL     1       3.614   5.065  17.799  0.00  0.00    +0.000 A 
ATOM     18  C   UNL     1       4.328   4.065  17.129  0.00  0.00    +0.000 A 
ATOM     19  C   UNL     1       3.985   2.722  17.287  0.00  0.00    +0.000 A 
ATOM     20  C   UNL     1       2.921   2.364  18.116  0.00  0.00    +0.000 A 
ATOM     21  C   UNL     1       2.191   3.346  18.798  0.00  0.00    +0.000 A 
ATOM     22  C   UNL     1       2.549   4.695  18.635  0.00  0.00    +0.000 A 
BRANCH  21  23
ATOM     23  C   UNL     1       1.028   2.981  19.686  0.00  0.00    +0.000 C 
ATOM     24  F   UNL     1       1.366   2.167  20.725  0.00  0.00    +0.000 F 
ATOM     25  F   UNL     1       0.438   4.074  20.247  0.00  0.00    +0.000 F 
ATOM     26  F   UNL     1       0.040   2.331  19.011  0.00  0.00    +0.000 F 
ENDBRANCH  21  23
ENDBRANCH  16  17
ENDBRANCH  15  16
ENDBRANCH  14  15
ENDBRANCH   4  14
TORSDOF 6
ENDMDL
MODEL 5
REMARK VINA RESULT:      -7.9      3.027      6.085
REMARK  Name = 
REMARK  6 active torsions:
REMARK  status: ('A' for Active; 'I' for Inactive)
REMARK    1  A    between atoms: C_4  and  C_5
REMARK    2  A    between atoms: C_5  and  C_6
REMARK    3  A    between atoms: C_6  and  C_7
REMARK    4  A    between atoms: C_7  and  C_8
REMARK    5  A    between atoms: C_12  and  C_13
REMARK    6  A    between atoms: C_23  and  O_24
REMARK                            x       y       z     vdW  Elec       q    Type
REMARK                         _______ _______ _______ _____ _____    ______ ____
ROOT
ATOM      1  O   UNL     1       2.739   8.360  17.323  0.00  0.00    +0.000 OA
ATOM      2  C   UNL     1       2.285   8.095  18.428  0.00  0.00    +0.000 A 
ATOM      3  C   UNL     1       2.472   6.733  18.964  0.00  0.00    +0.000 A 
ATOM      4  C   UNL     1       2.002   6.417  20.179  0.00  0.00    +0.000 A 
ATOM      5  O   UNL     1       1.355   7.319  21.005  0.00  0.00    +0.000 OA
ATOM      6  C   UNL     1       1.112   8.587  20.536  0.00  0.00    +0.000 A 
ATOM      7  C   UNL     1       0.398   9.427  21.395  0.00  0.00    +0.000 A 
ATOM      8  C   UNL     1       0.106  10.734  21.009  0.00  0.00    +0.000 A 
ATOM      9  C   UNL     1       0.525  11.200  19.765  0.00  0.00    +0.000 A 
ATOM     10  C   UNL     1       1.239  10.358  18.905  0.00  0.00    +0.000 A 
ATOM     11  C   UNL     1       1.538   9.043  19.286  0.00  0.00    +0.000 A 
ENDROOT
BRANCH  10  12
ATOM     12  O   UNL     1       1.628  10.844  17.689  0.00  0.00    +0.000 OA
ATOM     13  H   UNL     1       0.868  11.208  17.210  0.00  0.00    +0.000 HD
ENDBRANCH  10  12
BRANCH   4  14
ATOM     14  C   UNL     1       2.130   5.033  20.766  0.00  0.00    +0.000 C 
BRANCH  14  15
ATOM     15  C   UNL     1       1.862   3.965  19.703  0.00  0.00    +0.000 C 
BRANCH  15  16
ATOM     16  C   UNL     1       3.066   3.048  19.470  0.00  0.00    +0.000 C 
BRANCH  16  17
ATOM     17  C   UNL     1       4.008   3.673  18.467  0.00  0.00    +0.000 A 
ATOM     18  C   UNL     1       3.697   3.677  17.102  0.00  0.00    +0.000 A 
ATOM     19  C   UNL     1       4.604   4.183  16.171  0.00  0.00    +0.000 A 
ATOM     20  C   UNL     1       5.834   4.688  16.593  0.00  0.00    +0.000 A 
ATOM     21  C   UNL     1       6.168   4.696  17.954  0.00  0.00    +0.000 A 
ATOM     22  C   UNL     1       5.244   4.188  18.884  0.00  0.00    +0.000 A 
BRANCH  21  23
ATOM     23  C   UNL     1       7.498   5.224  18.431  0.00  0.00    +0.000 C 
ATOM     24  F   UNL     1       7.532   5.502  19.764  0.00  0.00    +0.000 F 
ATOM     25  F   UNL     1       8.517   4.347  18.207  0.00  0.00    +0.000 F 
ATOM     26  F   UNL     1       7.857   6.378  17.802  0.00  0.00    +0.000 F 
ENDBRANCH  21  23
ENDBRANCH  16  17
ENDBRANCH  15  16
ENDBRANCH  14  15
ENDBRANCH   4  14
TORSDOF 6
ENDMDL
MODEL 6
REMARK VINA RESULT:      -7.9      4.766      7.068
REMARK  Name = 
REMARK  6 active torsions:
REMARK  status: ('A' for Active; 'I' for Inactive)
REMARK    1  A    between atoms: C_4  and  C_5
REMARK    2  A    between atoms: C_5  and  C_6
REMARK    3  A    between atoms: C_6  and  C_7
REMARK    4  A    between atoms: C_7  and  C_8
REMARK    5  A    between atoms: C_12  and  C_13
REMARK    6  A    between atoms: C_23  and  O_24
REMARK                            x       y       z     vdW  Elec       q    Type
REMARK                         _______ _______ _______ _____ _____    ______ ____
ROOT
ATOM      1  O   UNL     1       5.577   4.103  18.035  0.00  0.00    +0.000 OA
ATOM      2  C   UNL     1       4.573   4.693  18.408  0.00  0.00    +0.000 A 
ATOM      3  C   UNL     1       4.271   6.017  17.828  0.00  0.00    +0.000 A 
ATOM      4  C   UNL     1       3.169   6.680  18.203  0.00  0.00    +0.000 A 
ATOM      5  O   UNL     1       2.248   6.181  19.108  0.00  0.00    +0.000 OA
ATOM      6  C   UNL     1       2.505   4.976  19.714  0.00  0.00    +0.000 A 
ATOM      7  C   UNL     1       1.568   4.561  20.665  0.00  0.00    +0.000 A 
ATOM      8  C   UNL     1       1.741   3.349  21.331  0.00  0.00    +0.000 A 
ATOM      9  C   UNL     1       2.849   2.554  21.049  0.00  0.00    +0.000 A 
ATOM     10  C   UNL     1       3.787   2.971  20.098  0.00  0.00    +0.000 A 
ATOM     11  C   UNL     1       3.620   4.187  19.422  0.00  0.00    +0.000 A 
ENDROOT
BRANCH  10  12
ATOM     12  O   UNL     1       4.867   2.171  19.851  0.00  0.00    +0.000 OA
ATOM     13  H   UNL     1       5.329   2.464  19.051  0.00  0.00    +0.000 HD
ENDBRANCH  10  12
BRANCH   4  14
ATOM     14  C   UNL     1       2.824   8.051  17.674  0.00  0.00    +0.000 C 
BRANCH  14  15
ATOM     15  C   UNL     1       1.585   8.608  18.377  0.00  0.00    +0.000 C 
BRANCH  15  16
ATOM     16  C   UNL     1       1.714  10.097  18.711  0.00  0.00    +0.000 C 
BRANCH  16  17
ATOM     17  C   UNL     1       0.389  10.792  18.502  0.00  0.00    +0.000 A 
ATOM     18  C   UNL     1       0.188  12.099  18.964  0.00  0.00    +0.000 A 
ATOM     19  C   UNL     1      -1.060  12.709  18.841  0.00  0.00    +0.000 A 
ATOM     20  C   UNL     1      -2.124  12.019  18.257  0.00  0.00    +0.000 A 
ATOM     21  C   UNL     1      -1.948  10.711  17.787  0.00  0.00    +0.000 A 
ATOM     22  C   UNL     1      -0.684  10.108  17.912  0.00  0.00    +0.000 A 
BRANCH  21  23
ATOM     23  C   UNL     1      -3.087   9.941  17.167  0.00  0.00    +0.000 C 
ATOM     24  F   UNL     1      -2.767   9.345  15.985  0.00  0.00    +0.000 F 
ATOM     25  F   UNL     1      -3.543   8.944  17.976  0.00  0.00    +0.000 F 
ATOM     26  F   UNL     1      -4.167  10.729  16.904  0.00  0.00    +0.000 F 
ENDBRANCH  21  23
ENDBRANCH  16  17
ENDBRANCH  15  16
ENDBRANCH  14  15
ENDBRANCH   4  14
TORSDOF 6
ENDMDL
MODEL 7
REMARK VINA RESULT:      -7.9      4.656      6.785
REMARK  Name = 
REMARK  6 active torsions:
REMARK  status: ('A' for Active; 'I' for Inactive)
REMARK    1  A    between atoms: C_4  and  C_5
REMARK    2  A    between atoms: C_5  and  C_6
REMARK    3  A    between atoms: C_6  and  C_7
REMARK    4  A    between atoms: C_7  and  C_8
REMARK    5  A    between atoms: C_12  and  C_13
REMARK    6  A    between atoms: C_23  and  O_24
REMARK                            x       y       z     vdW  Elec       q    Type
REMARK                         _______ _______ _______ _____ _____    ______ ____
ROOT
ATOM      1  O   UNL     1       5.953   4.606  19.398  0.00  0.00    +0.000 OA
ATOM      2  C   UNL     1       4.843   4.886  18.964  0.00  0.00    +0.000 A 
ATOM      3  C   UNL     1       4.597   6.257  18.477  0.00  0.00    +0.000 A 
ATOM      4  C   UNL     1       3.398   6.589  17.978  0.00  0.00    +0.000 A 
ATOM      5  O   UNL     1       2.346   5.697  17.861  0.00  0.00    +0.000 OA
ATOM      6  C   UNL     1       2.505   4.421  18.345  0.00  0.00    +0.000 A 
ATOM      7  C   UNL     1       1.385   3.591  18.255  0.00  0.00    +0.000 A 
ATOM      8  C   UNL     1       1.451   2.278  18.716  0.00  0.00    +0.000 A 
ATOM      9  C   UNL     1       2.635   1.795  19.269  0.00  0.00    +0.000 A 
ATOM     10  C   UNL     1       3.756   2.627  19.360  0.00  0.00    +0.000 A 
ATOM     11  C   UNL     1       3.699   3.948  18.897  0.00  0.00    +0.000 A 
ENDROOT
BRANCH  10  12
ATOM     12  O   UNL     1       4.899   2.124  19.914  0.00  0.00    +0.000 OA
ATOM     13  H   UNL     1       4.738   1.848  20.829  0.00  0.00    +0.000 HD
ENDBRANCH  10  12
BRANCH   4  14
ATOM     14  C   UNL     1       3.074   7.982  17.498  0.00  0.00    +0.000 C 
BRANCH  14  15
ATOM     15  C   UNL     1       1.694   8.421  17.995  0.00  0.00    +0.000 C 
BRANCH  15  16
ATOM     16  C   UNL     1       1.740   9.736  18.778  0.00  0.00    +0.000 C 
BRANCH  16  17
ATOM     17  C   UNL     1       0.456  10.506  18.571  0.00  0.00    +0.000 A 
ATOM     18  C   UNL     1       0.288  11.777  19.135  0.00  0.00    +0.000 A 
ATOM     19  C   UNL     1      -0.926  12.452  19.009  0.00  0.00    +0.000 A 
ATOM     20  C   UNL     1      -1.989  11.862  18.323  0.00  0.00    +0.000 A 
ATOM     21  C   UNL     1      -1.845  10.592  17.750  0.00  0.00    +0.000 A 
ATOM     22  C   UNL     1      -0.615   9.923  17.878  0.00  0.00    +0.000 A 
BRANCH  21  23
ATOM     23  C   UNL     1      -2.985   9.930  17.017  0.00  0.00    +0.000 C 
ATOM     24  F   UNL     1      -3.963  10.795  16.629  0.00  0.00    +0.000 F 
ATOM     25  F   UNL     1      -2.577   9.296  15.882  0.00  0.00    +0.000 F 
ATOM     26  F   UNL     1      -3.608   8.980  17.770  0.00  0.00    +0.000 F 
ENDBRANCH  21  23
ENDBRANCH  16  17
ENDBRANCH  15  16
ENDBRANCH  14  15
ENDBRANCH   4  14
TORSDOF 6
ENDMDL
MODEL 8
REMARK VINA RESULT:      -7.9      5.237      7.164
REMARK  Name = 
REMARK  6 active torsions:
REMARK  status: ('A' for Active; 'I' for Inactive)
REMARK    1  A    between atoms: C_4  and  C_5
REMARK    2  A    between atoms: C_5  and  C_6
REMARK    3  A    between atoms: C_6  and  C_7
REMARK    4  A    between atoms: C_7  and  C_8
REMARK    5  A    between atoms: C_12  and  C_13
REMARK    6  A    between atoms: C_23  and  O_24
REMARK                            x       y       z     vdW  Elec       q    Type
REMARK                         _______ _______ _______ _____ _____    ______ ____
ROOT
ATOM      1  O   UNL     1       5.468   4.369  17.777  0.00  0.00    +0.000 OA
ATOM      2  C   UNL     1       4.494   4.947  18.240  0.00  0.00    +0.000 A 
ATOM      3  C   UNL     1       4.163   6.295  17.736  0.00  0.00    +0.000 A 
ATOM      4  C   UNL     1       3.092   6.946  18.210  0.00  0.00    +0.000 A 
ATOM      5  O   UNL     1       2.229   6.413  19.152  0.00  0.00    +0.000 OA
ATOM      6  C   UNL     1       2.518   5.183  19.690  0.00  0.00    +0.000 A 
ATOM      7  C   UNL     1       1.643   4.732  20.682  0.00  0.00    +0.000 A 
ATOM      8  C   UNL     1       1.851   3.493  21.284  0.00  0.00    +0.000 A 
ATOM      9  C   UNL     1       2.933   2.706  20.897  0.00  0.00    +0.000 A 
ATOM     10  C   UNL     1       3.810   3.158  19.905  0.00  0.00    +0.000 A 
ATOM     11  C   UNL     1       3.607   4.403  19.292  0.00  0.00    +0.000 A 
ENDROOT
BRANCH  10  12
ATOM     12  O   UNL     1       4.865   2.365  19.554  0.00  0.00    +0.000 OA
ATOM     13  H   UNL     1       5.456   2.837  18.947  0.00  0.00    +0.000 HD
ENDBRANCH  10  12
BRANCH   4  14
ATOM     14  C   UNL     1       2.723   8.339  17.762  0.00  0.00    +0.000 C 
BRANCH  14  15
ATOM     15  C   UNL     1       1.310   8.702  18.225  0.00  0.00    +0.000 C 
BRANCH  15  16
ATOM     16  C   UNL     1       1.217  10.125  18.781  0.00  0.00    +0.000 C 
BRANCH  16  17
ATOM     17  C   UNL     1       0.752  10.091  20.218  0.00  0.00    +0.000 A 
ATOM     18  C   UNL     1       1.101   9.025  21.056  0.00  0.00    +0.000 A 
ATOM     19  C   UNL     1       0.605   8.956  22.357  0.00  0.00    +0.000 A 
ATOM     20  C   UNL     1      -0.250   9.950  22.836  0.00  0.00    +0.000 A 
ATOM     21  C   UNL     1      -0.613  11.028  22.017  0.00  0.00    +0.000 A 
ATOM     22  C   UNL     1      -0.103  11.090  20.709  0.00  0.00    +0.000 A 
BRANCH  21  23
ATOM     23  C   UNL     1      -1.547  12.105  22.509  0.00  0.00    +0.000 C 
ATOM     24  F   UNL     1      -2.697  11.624  23.060  0.00  0.00    +0.000 F 
ATOM     25  F   UNL     1      -0.977  12.892  23.464  0.00  0.00    +0.000 F 
ATOM     26  F   UNL     1      -1.937  12.951  21.515  0.00  0.00    +0.000 F 
ENDBRANCH  21  23
ENDBRANCH  16  17
ENDBRANCH  15  16
ENDBRANCH  14  15
ENDBRANCH   4  14
TORSDOF 6
ENDMDL
MODEL 9
REMARK VINA RESULT:      -7.9      4.378      6.417
REMARK  Name = 
REMARK  6 active torsions:
REMARK  status: ('A' for Active; 'I' for Inactive)
REMARK    1  A    between atoms: C_4  and  C_5
REMARK    2  A    between atoms: C_5  and  C_6
REMARK    3  A    between atoms: C_6  and  C_7
REMARK    4  A    between atoms: C_7  and  C_8
REMARK    5  A    between atoms: C_12  and  C_13
REMARK    6  A    between atoms: C_23  and  O_24
REMARK                            x       y       z     vdW  Elec       q    Type
REMARK                         _______ _______ _______ _____ _____    ______ ____
ROOT
ATOM      1  O   UNL     1       6.126   4.660  19.616  0.00  0.00    +0.000 OA
ATOM      2  C   UNL     1       5.060   4.911  19.069  0.00  0.00    +0.000 A 
ATOM      3  C   UNL     1       4.816   6.283  18.583  0.00  0.00    +0.000 A 
ATOM      4  C   UNL     1       3.666   6.583  17.964  0.00  0.00    +0.000 A 
ATOM      5  O   UNL     1       2.668   5.657  17.717  0.00  0.00    +0.000 OA
ATOM      6  C   UNL     1       2.822   4.378  18.191  0.00  0.00    +0.000 A 
ATOM      7  C   UNL     1       1.749   3.511  17.965  0.00  0.00    +0.000 A 
ATOM      8  C   UNL     1       1.815   2.190  18.405  0.00  0.00    +0.000 A 
ATOM      9  C   UNL     1       2.949   1.737  19.075  0.00  0.00    +0.000 A 
ATOM     10  C   UNL     1       4.022   2.606  19.303  0.00  0.00    +0.000 A 
ATOM     11  C   UNL     1       3.966   3.935  18.860  0.00  0.00    +0.000 A 
ENDROOT
BRANCH  10  12
ATOM     12  O   UNL     1       5.117   2.132  19.968  0.00  0.00    +0.000 OA
ATOM     13  H   UNL     1       5.324   1.230  19.680  0.00  0.00    +0.000 HD
ENDBRANCH  10  12
BRANCH   4  14
ATOM     14  C   UNL     1       3.344   7.974  17.477  0.00  0.00    +0.000 C 
BRANCH  14  15
ATOM     15  C   UNL     1       1.977   8.428  17.996  0.00  0.00    +0.000 C 
BRANCH  15  16
ATOM     16  C   UNL     1       1.790   9.946  17.919  0.00  0.00    +0.000 C 
BRANCH  16  17
ATOM     17  C   UNL     1       0.776  10.395  18.945  0.00  0.00    +0.000 A 
ATOM     18  C   UNL     1      -0.065  11.484  18.687  0.00  0.00    +0.000 A 
ATOM     19  C   UNL     1      -0.945  11.947  19.666  0.00  0.00    +0.000 A 
ATOM     20  C   UNL     1      -0.991  11.328  20.916  0.00  0.00    +0.000 A 
ATOM     21  C   UNL     1      -0.159  10.236  21.198  0.00  0.00    +0.000 A 
ATOM     22  C   UNL     1       0.720   9.776  20.202  0.00  0.00    +0.000 A 
BRANCH  21  23
ATOM     23  C   UNL     1      -0.182   9.563  22.548  0.00  0.00    +0.000 C 
ATOM     24  F   UNL     1      -0.896   8.403  22.570  0.00  0.00    +0.000 F 
ATOM     25  F   UNL     1       1.066   9.241  22.990  0.00  0.00    +0.000 F 
ATOM     26  F   UNL     1      -0.727  10.352  23.516  0.00  0.00    +0.000 F 
ENDBRANCH  21  23
ENDBRANCH  16  17
ENDBRANCH  15  16
ENDBRANCH  14  15
ENDBRANCH   4  14
TORSDOF 6
ENDMDL
