MODEL 1
REMARK VINA RESULT:      -6.8      0.000      0.000
REMARK  Name = 
REMARK  13 active torsions:
REMARK  status: ('A' for Active; 'I' for Inactive)
REMARK    1  A    between atoms: C_1  and  C_2
REMARK    2  A    between atoms: C_2  and  C_3
REMARK    3  A    between atoms: C_2  and  C_4
REMARK    4  A    between atoms: C_2  and  O_5
REMARK    5  A    between atoms: O_5  and  P_6
REMARK    6  A    between atoms: P_6  and  O_8
REMARK    7  A    between atoms: P_6  and  C_13
REMARK    8  A    between atoms: O_8  and  C_9
REMARK    9  A    between atoms: C_9  and  C_10
REMARK   10  A    between atoms: C_9  and  C_11
REMARK   11  A    between atoms: C_9  and  C_12
REMARK   12  A    between atoms: C_13  and  C_14
REMARK   13  A    between atoms: C_13  and  C_24
REMARK                            x       y       z     vdW  Elec       q    Type
REMARK                         _______ _______ _______ _____ _____    ______ ____
ROOT
ATOM      1  C   UNL     1       0.840  12.419  19.814  0.00  0.00    +0.000 C 
ENDROOT
BRANCH   1   2
ATOM      2  C   UNL     1       0.264  11.446  18.787  0.00  0.00    +0.000 A 
ATOM      3  C   UNL     1       0.983  10.388  18.249  0.00  0.00    +0.000 A 
ATOM      4  N   UNL     1       0.140   9.593  17.524  0.00  0.00    +0.000 N 
ATOM      5  C   UNL     1      -1.135  10.101  17.556  0.00  0.00    +0.000 A 
ATOM      6  C   UNL     1      -2.332   9.536  17.082  0.00  0.00    +0.000 A 
ATOM      7  C   UNL     1      -3.509  10.263  17.258  0.00  0.00    +0.000 A 
ATOM      8  C   UNL     1      -3.467  11.520  17.836  0.00  0.00    +0.000 A 
ATOM      9  F   UNL     1      -4.605  12.213  17.981  0.00  0.00    +0.000 F 
ATOM     10  C   UNL     1      -2.275  12.064  18.322  0.00  0.00    +0.000 A 
ATOM     11  C   UNL     1      -1.075  11.323  18.238  0.00  0.00    +0.000 A 
ATOM     12  H   UNL     1       0.392   8.706  17.110  0.00  0.00    +0.000 HD
ENDBRANCH   1   2
BRANCH   1  13
ATOM     13  C   UNL     1       0.743  13.911  19.368  0.00  0.00    +0.000 A 
ATOM     14  C   UNL     1      -0.354  14.746  19.547  0.00  0.00    +0.000 A 
ATOM     15  N   UNL     1      -0.097  15.971  19.001  0.00  0.00    +0.000 N 
ATOM     16  C   UNL     1       1.176  15.994  18.495  0.00  0.00    +0.000 A 
ATOM     17  C   UNL     1       1.841  17.048  17.852  0.00  0.00    +0.000 A 
ATOM     18  C   UNL     1       3.145  16.814  17.422  0.00  0.00    +0.000 A 
ATOM     19  C   UNL     1       3.734  15.575  17.636  0.00  0.00    +0.000 A 
ATOM     20  F   UNL     1       4.993  15.381  17.218  0.00  0.00    +0.000 F 
ATOM     21  C   UNL     1       3.058  14.525  18.270  0.00  0.00    +0.000 A 
ATOM     22  C   UNL     1       1.736  14.730  18.714  0.00  0.00    +0.000 A 
ATOM     23  H   UNL     1      -0.742  16.744  18.968  0.00  0.00    +0.000 HD
ENDBRANCH   1  13
BRANCH   1  24
ATOM     24  P   UNL     1       0.047  12.439  21.464  0.00  0.00    +0.000 P 
ATOM     25  O   UNL     1       0.955  13.621  21.856  0.00  0.00    +0.000 OA
BRANCH  24  26
ATOM     26  O   UNL     1      -0.702  12.458  23.023  0.00  0.00    +0.000 OA
BRANCH  26  28
ATOM     27  C   UNL     1      -3.032  12.089  23.793  0.00  0.00    +0.000 C 
ATOM     28  C   UNL     1      -2.105  12.883  22.837  0.00  0.00    +0.000 C 
ATOM     29  C   UNL     1      -2.615  12.736  21.377  0.00  0.00    +0.000 C 
ATOM     30  C   UNL     1      -2.254  14.369  23.180  0.00  0.00    +0.000 C 
ENDBRANCH  26  28
ENDBRANCH  24  26
BRANCH  24  31
ATOM     31  O   UNL     1       0.849  11.033  22.001  0.00  0.00    +0.000 OA
BRANCH  31  32
ATOM     32  C   UNL     1       0.293   9.690  22.145  0.00  0.00    +0.000 C 
ATOM     33  C   UNL     1      -0.906   9.359  21.235  0.00  0.00    +0.000 C 
ATOM     34  C   UNL     1       1.397   8.683  21.724  0.00  0.00    +0.000 C 
ATOM     35  C   UNL     1      -0.081   9.342  23.588  0.00  0.00    +0.000 C 
ENDBRANCH  31  32
ENDBRANCH  24  31
ENDBRANCH   1  24
TORSDOF 7
ENDMDL
MODEL 2
REMARK VINA RESULT:      -6.8      0.074      1.049
REMARK  Name = 
REMARK  13 active torsions:
REMARK  status: ('A' for Active; 'I' for Inactive)
REMARK    1  A    between atoms: C_1  and  C_2
REMARK    2  A    between atoms: C_2  and  C_3
REMARK    3  A    between atoms: C_2  and  C_4
REMARK    4  A    between atoms: C_2  and  O_5
REMARK    5  A    between atoms: O_5  and  P_6
REMARK    6  A    between atoms: P_6  and  O_8
REMARK    7  A    between atoms: P_6  and  C_13
REMARK    8  A    between atoms: O_8  and  C_9
REMARK    9  A    between atoms: C_9  and  C_10
REMARK   10  A    between atoms: C_9  and  C_11
REMARK   11  A    between atoms: C_9  and  C_12
REMARK   12  A    between atoms: C_13  and  C_14
REMARK   13  A    between atoms: C_13  and  C_24
REMARK                            x       y       z     vdW  Elec       q    Type
REMARK                         _______ _______ _______ _____ _____    ______ ____
ROOT
ATOM      1  C   UNL     1       0.856  12.403  19.833  0.00  0.00    +0.000 C 
ENDROOT
BRANCH   1   2
ATOM      2  C   UNL     1       0.283  11.432  18.801  0.00  0.00    +0.000 A 
ATOM      3  C   UNL     1       1.003  10.373  18.267  0.00  0.00    +0.000 A 
ATOM      4  N   UNL     1       0.163   9.580  17.537  0.00  0.00    +0.000 N 
ATOM      5  C   UNL     1      -1.112  10.091  17.561  0.00  0.00    +0.000 A 
ATOM      6  C   UNL     1      -2.307   9.530  17.080  0.00  0.00    +0.000 A 
ATOM      7  C   UNL     1      -3.483  10.260  17.248  0.00  0.00    +0.000 A 
ATOM      8  C   UNL     1      -3.441  11.517  17.828  0.00  0.00    +0.000 A 
ATOM      9  F   UNL     1      -4.578  12.213  17.966  0.00  0.00    +0.000 F 
ATOM     10  C   UNL     1      -2.250  12.057  18.321  0.00  0.00    +0.000 A 
ATOM     11  C   UNL     1      -1.052  11.313  18.244  0.00  0.00    +0.000 A 
ATOM     12  H   UNL     1       0.415   8.693  17.124  0.00  0.00    +0.000 HD
ENDBRANCH   1   2
BRANCH   1  13
ATOM     13  C   UNL     1       0.748  13.896  19.395  0.00  0.00    +0.000 A 
ATOM     14  C   UNL     1      -0.346  14.729  19.600  0.00  0.00    +0.000 A 
ATOM     15  N   UNL     1      -0.102  15.958  19.055  0.00  0.00    +0.000 N 
ATOM     16  C   UNL     1       1.161  15.985  18.523  0.00  0.00    +0.000 A 
ATOM     17  C   UNL     1       1.811  17.042  17.872  0.00  0.00    +0.000 A 
ATOM     18  C   UNL     1       3.106  16.812  17.415  0.00  0.00    +0.000 A 
ATOM     19  C   UNL     1       3.701  15.573  17.612  0.00  0.00    +0.000 A 
ATOM     20  F   UNL     1       4.952  15.382  17.167  0.00  0.00    +0.000 F 
ATOM     21  C   UNL     1       3.040  14.520  18.254  0.00  0.00    +0.000 A 
ATOM     22  C   UNL     1       1.727  14.720  18.725  0.00  0.00    +0.000 A 
ATOM     23  H   UNL     1      -0.749  16.729  19.038  0.00  0.00    +0.000 HD
ENDBRANCH   1  13
BRANCH   1  24
ATOM     24  P   UNL     1       0.068  12.408  21.484  0.00  0.00    +0.000 P 
ATOM     25  O   UNL     1       0.963  13.600  21.878  0.00  0.00    +0.000 OA
BRANCH  24  26
ATOM     26  O   UNL     1      -0.678  12.413  23.045  0.00  0.00    +0.000 OA
BRANCH  26  28
ATOM     27  C   UNL     1      -2.113  14.433  23.189  0.00  0.00    +0.000 C 
ATOM     28  C   UNL     1      -2.058  12.915  22.878  0.00  0.00    +0.000 C 
ATOM     29  C   UNL     1      -3.105  12.167  23.748  0.00  0.00    +0.000 C 
ATOM     30  C   UNL     1      -2.513  12.725  21.426  0.00  0.00    +0.000 C 
ENDBRANCH  26  28
ENDBRANCH  24  26
BRANCH  24  31
ATOM     31  O   UNL     1       0.887  11.010  22.015  0.00  0.00    +0.000 OA
BRANCH  31  32
ATOM     32  C   UNL     1       0.380   9.640  22.051  0.00  0.00    +0.000 C 
ATOM     33  C   UNL     1       1.371   8.546  21.607  0.00  0.00    +0.000 C 
ATOM     34  C   UNL     1       0.060   9.303  23.532  0.00  0.00    +0.000 C 
ATOM     35  C   UNL     1      -0.925   9.458  21.274  0.00  0.00    +0.000 C 
ENDBRANCH  31  32
ENDBRANCH  24  31
ENDBRANCH   1  24
TORSDOF 7
ENDMDL
MODEL 3
REMARK VINA RESULT:      -6.6      0.824      1.447
REMARK  Name = 
REMARK  13 active torsions:
REMARK  status: ('A' for Active; 'I' for Inactive)
REMARK    1  A    between atoms: C_1  and  C_2
REMARK    2  A    between atoms: C_2  and  C_3
REMARK    3  A    between atoms: C_2  and  C_4
REMARK    4  A    between atoms: C_2  and  O_5
REMARK    5  A    between atoms: O_5  and  P_6
REMARK    6  A    between atoms: P_6  and  O_8
REMARK    7  A    between atoms: P_6  and  C_13
REMARK    8  A    between atoms: O_8  and  C_9
REMARK    9  A    between atoms: C_9  and  C_10
REMARK   10  A    between atoms: C_9  and  C_11
REMARK   11  A    between atoms: C_9  and  C_12
REMARK   12  A    between atoms: C_13  and  C_14
REMARK   13  A    between atoms: C_13  and  C_24
REMARK                            x       y       z     vdW  Elec       q    Type
REMARK                         _______ _______ _______ _____ _____    ______ ____
ROOT
ATOM      1  C   UNL     1       0.562  13.036  20.082  0.00  0.00    +0.000 C 
ENDROOT
BRANCH   1   2
ATOM      2  C   UNL     1       0.314  11.975  19.010  0.00  0.00    +0.000 A 
ATOM      3  C   UNL     1       1.294  11.102  18.558  0.00  0.00    +0.000 A 
ATOM      4  N   UNL     1       0.718  10.155  17.759  0.00  0.00    +0.000 N 
ATOM      5  C   UNL     1      -0.633  10.379  17.655  0.00  0.00    +0.000 A 
ATOM      6  C   UNL     1      -1.627   9.578  17.067  0.00  0.00    +0.000 A 
ATOM      7  C   UNL     1      -2.943  10.034  17.114  0.00  0.00    +0.000 A 
ATOM      8  C   UNL     1      -3.229  11.265  17.682  0.00  0.00    +0.000 A 
ATOM      9  F   UNL     1      -4.498  11.697  17.703  0.00  0.00    +0.000 F 
ATOM     10  C   UNL     1      -2.237  12.044  18.282  0.00  0.00    +0.000 A 
ATOM     11  C   UNL     1      -0.904  11.577  18.328  0.00  0.00    +0.000 A 
ATOM     12  H   UNL     1       1.195   9.348  17.381  0.00  0.00    +0.000 HD
ENDBRANCH   1   2
BRANCH   1  13
ATOM     13  C   UNL     1       0.044  14.450  19.676  0.00  0.00    +0.000 A 
ATOM     14  C   UNL     1      -1.215  14.969  19.955  0.00  0.00    +0.000 A 
ATOM     15  N   UNL     1      -1.331  16.219  19.418  0.00  0.00    +0.000 N 
ATOM     16  C   UNL     1      -0.152  16.575  18.817  0.00  0.00    +0.000 A 
ATOM     17  C   UNL     1       0.162  17.767  18.149  0.00  0.00    +0.000 A 
ATOM     18  C   UNL     1       1.444  17.883  17.616  0.00  0.00    +0.000 A 
ATOM     19  C   UNL     1       2.351  16.842  17.759  0.00  0.00    +0.000 A 
ATOM     20  F   UNL     1       3.580  16.984  17.243  0.00  0.00    +0.000 F 
ATOM     21  C   UNL     1       2.025  15.651  18.420  0.00  0.00    +0.000 A 
ATOM     22  C   UNL     1       0.734  15.502  18.967  0.00  0.00    +0.000 A 
ATOM     23  H   UNL     1      -2.156  16.796  19.451  0.00  0.00    +0.000 HD
ENDBRANCH   1  13
BRANCH   1  24
ATOM     24  P   UNL     1      -0.236  12.765  21.707  0.00  0.00    +0.000 P 
ATOM     25  O   UNL     1       0.561  13.960  22.266  0.00  0.00    +0.000 OA
BRANCH  24  26
ATOM     26  O   UNL     1      -0.989  12.509  23.243  0.00  0.00    +0.000 OA
BRANCH  26  28
ATOM     27  C   UNL     1      -2.496  14.468  23.468  0.00  0.00    +0.000 C 
ATOM     28  C   UNL     1      -2.393  12.959  23.130  0.00  0.00    +0.000 C 
ATOM     29  C   UNL     1      -3.380  12.156  24.022  0.00  0.00    +0.000 C 
ATOM     30  C   UNL     1      -2.890  12.773  21.692  0.00  0.00    +0.000 C 
ENDBRANCH  26  28
ENDBRANCH  24  26
BRANCH  24  31
ATOM     31  O   UNL     1       0.686  11.376  22.065  0.00  0.00    +0.000 OA
BRANCH  31  32
ATOM     32  C   UNL     1       0.224   9.991  22.128  0.00  0.00    +0.000 C 
ATOM     33  C   UNL     1      -0.242   9.502  23.513  0.00  0.00    +0.000 C 
ATOM     34  C   UNL     1      -1.035   9.881  21.227  0.00  0.00    +0.000 C 
ATOM     35  C   UNL     1       1.241   8.990  21.575  0.00  0.00    +0.000 C 
ENDBRANCH  31  32
ENDBRANCH  24  31
ENDBRANCH   1  24
TORSDOF 7
ENDMDL
MODEL 4
REMARK VINA RESULT:      -6.5      2.585      5.622
REMARK  Name = 
REMARK  13 active torsions:
REMARK  status: ('A' for Active; 'I' for Inactive)
REMARK    1  A    between atoms: C_1  and  C_2
REMARK    2  A    between atoms: C_2  and  C_3
REMARK    3  A    between atoms: C_2  and  C_4
REMARK    4  A    between atoms: C_2  and  O_5
REMARK    5  A    between atoms: O_5  and  P_6
REMARK    6  A    between atoms: P_6  and  O_8
REMARK    7  A    between atoms: P_6  and  C_13
REMARK    8  A    between atoms: O_8  and  C_9
REMARK    9  A    between atoms: C_9  and  C_10
REMARK   10  A    between atoms: C_9  and  C_11
REMARK   11  A    between atoms: C_9  and  C_12
REMARK   12  A    between atoms: C_13  and  C_14
REMARK   13  A    between atoms: C_13  and  C_24
REMARK                            x       y       z     vdW  Elec       q    Type
REMARK                         _______ _______ _______ _____ _____    ______ ____
ROOT
ATOM      1  C   UNL     1      -0.269  12.232  19.395  0.00  0.00    +0.000 C 
ENDROOT
BRANCH   1   2
ATOM      2  C   UNL     1       0.294  11.005  20.111  0.00  0.00    +0.000 A 
ATOM      3  C   UNL     1      -0.007  10.684  21.427  0.00  0.00    +0.000 A 
ATOM      4  N   UNL     1       0.481   9.439  21.709  0.00  0.00    +0.000 N 
ATOM      5  C   UNL     1       1.116   8.917  20.609  0.00  0.00    +0.000 A 
ATOM      6  C   UNL     1       1.626   7.624  20.403  0.00  0.00    +0.000 A 
ATOM      7  C   UNL     1       2.215   7.345  19.170  0.00  0.00    +0.000 A 
ATOM      8  C   UNL     1       2.328   8.342  18.215  0.00  0.00    +0.000 A 
ATOM      9  F   UNL     1       2.914   8.061  17.043  0.00  0.00    +0.000 F 
ATOM     10  C   UNL     1       1.800   9.619  18.423  0.00  0.00    +0.000 A 
ATOM     11  C   UNL     1       1.122   9.916  19.626  0.00  0.00    +0.000 A 
ATOM     12  H   UNL     1       0.314   8.931  22.567  0.00  0.00    +0.000 HD
ENDBRANCH   1   2
BRANCH   1  13
ATOM     13  C   UNL     1      -1.796  12.119  19.095  0.00  0.00    +0.000 A 
ATOM     14  C   UNL     1      -2.825  12.505  19.947  0.00  0.00    +0.000 A 
ATOM     15  N   UNL     1      -4.032  12.228  19.370  0.00  0.00    +0.000 N 
ATOM     16  C   UNL     1      -3.837  11.700  18.121  0.00  0.00    +0.000 A 
ATOM     17  C   UNL     1      -4.799  11.279  17.192  0.00  0.00    +0.000 A 
ATOM     18  C   UNL     1      -4.338  10.770  15.980  0.00  0.00    +0.000 A 
ATOM     19  C   UNL     1      -2.974  10.696  15.733  0.00  0.00    +0.000 A 
ATOM     20  F   UNL     1      -2.559  10.208  14.555  0.00  0.00    +0.000 F 
ATOM     21  C   UNL     1      -2.020  11.110  16.671  0.00  0.00    +0.000 A 
ATOM     22  C   UNL     1      -2.456  11.627  17.909  0.00  0.00    +0.000 A 
ATOM     23  H   UNL     1      -4.932  12.380  19.796  0.00  0.00    +0.000 HD
ENDBRANCH   1  13
BRANCH   1  24
ATOM     24  P   UNL     1      -0.149  13.829  20.280  0.00  0.00    +0.000 P 
ATOM     25  O   UNL     1      -0.437  14.556  18.952  0.00  0.00    +0.000 OA
BRANCH  24  26
ATOM     26  O   UNL     1      -0.035  15.339  21.116  0.00  0.00    +0.000 OA
BRANCH  26  28
ATOM     27  C   UNL     1      -2.401  15.579  21.824  0.00  0.00    +0.000 C 
ATOM     28  C   UNL     1      -0.949  15.276  22.276  0.00  0.00    +0.000 C 
ATOM     29  C   UNL     1      -0.555  16.229  23.437  0.00  0.00    +0.000 C 
ATOM     30  C   UNL     1      -0.939  13.865  22.876  0.00  0.00    +0.000 C 
ENDBRANCH  26  28
ENDBRANCH  24  26
BRANCH  24  31
ATOM     31  O   UNL     1       1.549  13.763  20.420  0.00  0.00    +0.000 OA
BRANCH  31  32
ATOM     32  C   UNL     1       2.541  14.374  19.538  0.00  0.00    +0.000 C 
ATOM     33  C   UNL     1       3.930  14.620  20.159  0.00  0.00    +0.000 C 
ATOM     34  C   UNL     1       2.801  13.380  18.373  0.00  0.00    +0.000 C 
ATOM     35  C   UNL     1       2.058  15.676  18.896  0.00  0.00    +0.000 C 
ENDBRANCH  31  32
ENDBRANCH  24  31
ENDBRANCH   1  24
TORSDOF 7
ENDMDL
MODEL 5
REMARK VINA RESULT:      -6.5      2.629      5.223
REMARK  Name = 
REMARK  13 active torsions:
REMARK  status: ('A' for Active; 'I' for Inactive)
REMARK    1  A    between atoms: C_1  and  C_2
REMARK    2  A    between atoms: C_2  and  C_3
REMARK    3  A    between atoms: C_2  and  C_4
REMARK    4  A    between atoms: C_2  and  O_5
REMARK    5  A    between atoms: O_5  and  P_6
REMARK    6  A    between atoms: P_6  and  O_8
REMARK    7  A    between atoms: P_6  and  C_13
REMARK    8  A    between atoms: O_8  and  C_9
REMARK    9  A    between atoms: C_9  and  C_10
REMARK   10  A    between atoms: C_9  and  C_11
REMARK   11  A    between atoms: C_9  and  C_12
REMARK   12  A    between atoms: C_13  and  C_14
REMARK   13  A    between atoms: C_13  and  C_24
REMARK                            x       y       z     vdW  Elec       q    Type
REMARK                         _______ _______ _______ _____ _____    ______ ____
ROOT
ATOM      1  C   UNL     1      -0.790  11.567  20.402  0.00  0.00    +0.000 C 
ENDROOT
BRANCH   1   2
ATOM      2  C   UNL     1      -2.152  11.725  19.727  0.00  0.00    +0.000 A 
ATOM      3  C   UNL     1      -3.134  12.593  20.183  0.00  0.00    +0.000 A 
ATOM      4  N   UNL     1      -4.142  12.654  19.262  0.00  0.00    +0.000 N 
ATOM      5  C   UNL     1      -3.863  11.834  18.196  0.00  0.00    +0.000 A 
ATOM      6  C   UNL     1      -4.538  11.703  16.971  0.00  0.00    +0.000 A 
ATOM      7  C   UNL     1      -4.028  10.798  16.040  0.00  0.00    +0.000 A 
ATOM      8  C   UNL     1      -2.921  10.029  16.358  0.00  0.00    +0.000 A 
ATOM      9  F   UNL     1      -2.455   9.151  15.458  0.00  0.00    +0.000 F 
ATOM     10  C   UNL     1      -2.245  10.181  17.571  0.00  0.00    +0.000 A 
ATOM     11  C   UNL     1      -2.682  11.147  18.506  0.00  0.00    +0.000 A 
ATOM     12  H   UNL     1      -4.931  13.285  19.306  0.00  0.00    +0.000 HD
ENDBRANCH   1   2
BRANCH   1  13
ATOM     13  C   UNL     1       0.298  10.973  19.456  0.00  0.00    +0.000 A 
ATOM     14  C   UNL     1       0.859  11.611  18.356  0.00  0.00    +0.000 A 
ATOM     15  N   UNL     1       1.751  10.778  17.742  0.00  0.00    +0.000 N 
ATOM     16  C   UNL     1       1.838   9.601  18.437  0.00  0.00    +0.000 A 
ATOM     17  C   UNL     1       2.629   8.478  18.157  0.00  0.00    +0.000 A 
ATOM     18  C   UNL     1       2.531   7.394  19.025  0.00  0.00    +0.000 A 
ATOM     19  C   UNL     1       1.674   7.454  20.115  0.00  0.00    +0.000 A 
ATOM     20  F   UNL     1       1.606   6.397  20.939  0.00  0.00    +0.000 F 
ATOM     21  C   UNL     1       0.880   8.576  20.382  0.00  0.00    +0.000 A 
ATOM     22  C   UNL     1       0.954   9.688  19.519  0.00  0.00    +0.000 A 
ATOM     23  H   UNL     1       2.267  10.990  16.903  0.00  0.00    +0.000 HD
ENDBRANCH   1  13
BRANCH   1  24
ATOM     24  P   UNL     1       0.004  13.096  21.020  0.00  0.00    +0.000 P 
ATOM     25  O   UNL     1       1.326  12.319  21.165  0.00  0.00    +0.000 OA
BRANCH  24  26
ATOM     26  O   UNL     1       0.754  14.542  21.604  0.00  0.00    +0.000 OA
BRANCH  26  28
ATOM     27  C   UNL     1       0.617  16.924  20.920  0.00  0.00    +0.000 C 
ATOM     28  C   UNL     1       0.886  15.468  20.459  0.00  0.00    +0.000 C 
ATOM     29  C   UNL     1      -0.042  15.120  19.263  0.00  0.00    +0.000 C 
ATOM     30  C   UNL     1       2.314  15.417  19.904  0.00  0.00    +0.000 C 
ENDBRANCH  26  28
ENDBRANCH  24  26
BRANCH  24  31
ATOM     31  O   UNL     1      -0.756  13.021  22.545  0.00  0.00    +0.000 OA
BRANCH  31  32
ATOM     32  C   UNL     1      -1.710  13.971  23.113  0.00  0.00    +0.000 C 
ATOM     33  C   UNL     1      -2.362  14.947  22.114  0.00  0.00    +0.000 C 
ATOM     34  C   UNL     1      -2.894  13.149  23.690  0.00  0.00    +0.000 C 
ATOM     35  C   UNL     1      -1.136  14.779  24.279  0.00  0.00    +0.000 C 
ENDBRANCH  31  32
ENDBRANCH  24  31
ENDBRANCH   1  24
TORSDOF 7
ENDMDL
MODEL 6
REMARK VINA RESULT:      -6.4      3.134      6.394
REMARK  Name = 
REMARK  13 active torsions:
REMARK  status: ('A' for Active; 'I' for Inactive)
REMARK    1  A    between atoms: C_1  and  C_2
REMARK    2  A    between atoms: C_2  and  C_3
REMARK    3  A    between atoms: C_2  and  C_4
REMARK    4  A    between atoms: C_2  and  O_5
REMARK    5  A    between atoms: O_5  and  P_6
REMARK    6  A    between atoms: P_6  and  O_8
REMARK    7  A    between atoms: P_6  and  C_13
REMARK    8  A    between atoms: O_8  and  C_9
REMARK    9  A    between atoms: C_9  and  C_10
REMARK   10  A    between atoms: C_9  and  C_11
REMARK   11  A    between atoms: C_9  and  C_12
REMARK   12  A    between atoms: C_13  and  C_14
REMARK   13  A    between atoms: C_13  and  C_24
REMARK                            x       y       z     vdW  Elec       q    Type
REMARK                         _______ _______ _______ _____ _____    ______ ____
ROOT
ATOM      1  C   UNL     1      -2.598  13.177  21.227  0.00  0.00    +0.000 C 
ENDROOT
BRANCH   1   2
ATOM      2  C   UNL     1      -1.697  12.082  21.798  0.00  0.00    +0.000 A 
ATOM      3  C   UNL     1      -1.785  11.625  23.106  0.00  0.00    +0.000 A 
ATOM      4  N   UNL     1      -0.995  10.520  23.249  0.00  0.00    +0.000 N 
ATOM      5  C   UNL     1      -0.367  10.227  22.064  0.00  0.00    +0.000 A 
ATOM      6  C   UNL     1       0.408   9.107  21.717  0.00  0.00    +0.000 A 
ATOM      7  C   UNL     1       0.922   9.046  20.422  0.00  0.00    +0.000 A 
ATOM      8  C   UNL     1       0.706  10.093  19.542  0.00  0.00    +0.000 A 
ATOM      9  F   UNL     1       1.224  10.027  18.307  0.00  0.00    +0.000 F 
ATOM     10  C   UNL     1      -0.082  11.193  19.890  0.00  0.00    +0.000 A 
ATOM     11  C   UNL     1      -0.689  11.251  21.164  0.00  0.00    +0.000 A 
ATOM     12  H   UNL     1      -0.955   9.939  24.076  0.00  0.00    +0.000 HD
ENDBRANCH   1   2
BRANCH   1  13
ATOM     13  C   UNL     1      -4.096  12.751  21.134  0.00  0.00    +0.000 A 
ATOM     14  C   UNL     1      -5.031  12.830  22.160  0.00  0.00    +0.000 A 
ATOM     15  N   UNL     1      -6.231  12.337  21.731  0.00  0.00    +0.000 N 
ATOM     16  C   UNL     1      -6.135  11.967  20.415  0.00  0.00    +0.000 A 
ATOM     17  C   UNL     1      -7.125  11.417  19.589  0.00  0.00    +0.000 A 
ATOM     18  C   UNL     1      -6.770  11.122  18.275  0.00  0.00    +0.000 A 
ATOM     19  C   UNL     1      -5.479  11.373  17.832  0.00  0.00    +0.000 A 
ATOM     20  F   UNL     1      -5.167  11.085  16.560  0.00  0.00    +0.000 F 
ATOM     21  C   UNL     1      -4.494  11.913  18.668  0.00  0.00    +0.000 A 
ATOM     22  C   UNL     1      -4.821  12.220  20.004  0.00  0.00    +0.000 A 
ATOM     23  H   UNL     1      -7.063  12.251  22.293  0.00  0.00    +0.000 HD
ENDBRANCH   1  13
BRANCH   1  24
ATOM     24  P   UNL     1      -2.682  14.746  22.166  0.00  0.00    +0.000 P 
ATOM     25  O   UNL     1      -3.123  15.463  20.875  0.00  0.00    +0.000 OA
BRANCH  24  26
ATOM     26  O   UNL     1      -2.762  16.229  23.053  0.00  0.00    +0.000 OA
BRANCH  26  28
ATOM     27  C   UNL     1      -3.218  14.642  24.907  0.00  0.00    +0.000 C 
ATOM     28  C   UNL     1      -3.604  15.990  24.244  0.00  0.00    +0.000 C 
ATOM     29  C   UNL     1      -5.128  16.006  23.946  0.00  0.00    +0.000 C 
ATOM     30  C   UNL     1      -3.373  17.096  25.281  0.00  0.00    +0.000 C 
ENDBRANCH  26  28
ENDBRANCH  24  26
BRANCH  24  31
ATOM     31  O   UNL     1      -0.989  14.928  22.250  0.00  0.00    +0.000 OA
BRANCH  31  32
ATOM     32  C   UNL     1      -0.114  15.588  21.283  0.00  0.00    +0.000 C 
ATOM     33  C   UNL     1      -0.274  17.117  21.168  0.00  0.00    +0.000 C 
ATOM     34  C   UNL     1       1.348  15.380  21.763  0.00  0.00    +0.000 C 
ATOM     35  C   UNL     1      -0.199  14.983  19.881  0.00  0.00    +0.000 C 
ENDBRANCH  31  32
ENDBRANCH  24  31
ENDBRANCH   1  24
TORSDOF 7
ENDMDL
MODEL 7
REMARK VINA RESULT:      -6.4      2.562      5.513
REMARK  Name = 
REMARK  13 active torsions:
REMARK  status: ('A' for Active; 'I' for Inactive)
REMARK    1  A    between atoms: C_1  and  C_2
REMARK    2  A    between atoms: C_2  and  C_3
REMARK    3  A    between atoms: C_2  and  C_4
REMARK    4  A    between atoms: C_2  and  O_5
REMARK    5  A    between atoms: O_5  and  P_6
REMARK    6  A    between atoms: P_6  and  O_8
REMARK    7  A    between atoms: P_6  and  C_13
REMARK    8  A    between atoms: O_8  and  C_9
REMARK    9  A    between atoms: C_9  and  C_10
REMARK   10  A    between atoms: C_9  and  C_11
REMARK   11  A    between atoms: C_9  and  C_12
REMARK   12  A    between atoms: C_13  and  C_14
REMARK   13  A    between atoms: C_13  and  C_24
REMARK                            x       y       z     vdW  Elec       q    Type
REMARK                         _______ _______ _______ _____ _____    ______ ____
ROOT
ATOM      1  C   UNL     1      -0.544  12.527  19.913  0.00  0.00    +0.000 C 
ENDROOT
BRANCH   1   2
ATOM      2  C   UNL     1       0.094  11.300  20.563  0.00  0.00    +0.000 A 
ATOM      3  C   UNL     1      -0.084  10.963  21.898  0.00  0.00    +0.000 A 
ATOM      4  N   UNL     1       0.441   9.722  22.122  0.00  0.00    +0.000 N 
ATOM      5  C   UNL     1       0.978   9.217  20.963  0.00  0.00    +0.000 A 
ATOM      6  C   UNL     1       1.481   7.931  20.699  0.00  0.00    +0.000 A 
ATOM      7  C   UNL     1       1.959   7.670  19.415  0.00  0.00    +0.000 A 
ATOM      8  C   UNL     1       1.975   8.677  18.465  0.00  0.00    +0.000 A 
ATOM      9  F   UNL     1       2.456   8.414  17.241  0.00  0.00    +0.000 F 
ATOM     10  C   UNL     1       1.455   9.946  18.731  0.00  0.00    +0.000 A 
ATOM     11  C   UNL     1       0.886  10.224  19.994  0.00  0.00    +0.000 A 
ATOM     12  H   UNL     1       0.356   9.204  22.986  0.00  0.00    +0.000 HD
ENDBRANCH   1   2
BRANCH   1  13
ATOM     13  C   UNL     1      -2.046  12.315  19.546  0.00  0.00    +0.000 A 
ATOM     14  C   UNL     1      -3.133  12.602  20.364  0.00  0.00    +0.000 A 
ATOM     15  N   UNL     1      -4.293  12.257  19.729  0.00  0.00    +0.000 N 
ATOM     16  C   UNL     1      -4.010  11.782  18.475  0.00  0.00    +0.000 A 
ATOM     17  C   UNL     1      -4.901  11.321  17.496  0.00  0.00    +0.000 A 
ATOM     18  C   UNL     1      -4.356  10.882  16.292  0.00  0.00    +0.000 A 
ATOM     19  C   UNL     1      -2.982  10.913  16.101  0.00  0.00    +0.000 A 
ATOM     20  F   UNL     1      -2.485  10.491  14.929  0.00  0.00    +0.000 F 
ATOM     21  C   UNL     1      -2.099  11.366  17.089  0.00  0.00    +0.000 A 
ATOM     22  C   UNL     1      -2.620  11.813  18.320  0.00  0.00    +0.000 A 
ATOM     23  H   UNL     1      -5.218  12.332  20.121  0.00  0.00    +0.000 HD
ENDBRANCH   1  13
BRANCH   1  24
ATOM     24  P   UNL     1      -0.585  14.060  20.912  0.00  0.00    +0.000 P 
ATOM     25  O   UNL     1      -0.981  14.843  19.645  0.00  0.00    +0.000 OA
BRANCH  24  26
ATOM     26  O   UNL     1      -0.624  15.509  21.856  0.00  0.00    +0.000 OA
BRANCH  26  28
ATOM     27  C   UNL     1      -1.109  16.205  24.189  0.00  0.00    +0.000 C 
ATOM     28  C   UNL     1      -1.493  15.255  23.025  0.00  0.00    +0.000 C 
ATOM     29  C   UNL     1      -1.459  13.783  23.521  0.00  0.00    +0.000 C 
ATOM     30  C   UNL     1      -2.956  15.537  22.664  0.00  0.00    +0.000 C 
ENDBRANCH  26  28
ENDBRANCH  24  26
BRANCH  24  31
ATOM     31  O   UNL     1       1.112  14.177  21.026  0.00  0.00    +0.000 OA
BRANCH  31  32
ATOM     32  C   UNL     1       2.033  14.762  20.053  0.00  0.00    +0.000 C 
ATOM     33  C   UNL     1       1.397  15.695  19.004  0.00  0.00    +0.000 C 
ATOM     34  C   UNL     1       3.022  15.666  20.837  0.00  0.00    +0.000 C 
ATOM     35  C   UNL     1       2.884  13.720  19.325  0.00  0.00    +0.000 C 
ENDBRANCH  31  32
ENDBRANCH  24  31
ENDBRANCH   1  24
TORSDOF 7
ENDMDL
MODEL 8
REMARK VINA RESULT:      -6.4      1.332      1.901
REMARK  Name = 
REMARK  13 active torsions:
REMARK  status: ('A' for Active; 'I' for Inactive)
REMARK    1  A    between atoms: C_1  and  C_2
REMARK    2  A    between atoms: C_2  and  C_3
REMARK    3  A    between atoms: C_2  and  C_4
REMARK    4  A    between atoms: C_2  and  O_5
REMARK    5  A    between atoms: O_5  and  P_6
REMARK    6  A    between atoms: P_6  and  O_8
REMARK    7  A    between atoms: P_6  and  C_13
REMARK    8  A    between atoms: O_8  and  C_9
REMARK    9  A    between atoms: C_9  and  C_10
REMARK   10  A    between atoms: C_9  and  C_11
REMARK   11  A    between atoms: C_9  and  C_12
REMARK   12  A    between atoms: C_13  and  C_14
REMARK   13  A    between atoms: C_13  and  C_24
REMARK                            x       y       z     vdW  Elec       q    Type
REMARK                         _______ _______ _______ _____ _____    ______ ____
ROOT
ATOM      1  C   UNL     1      -0.370  12.823  20.381  0.00  0.00    +0.000 C 
ENDROOT
BRANCH   1   2
ATOM      2  C   UNL     1      -0.629  11.907  19.185  0.00  0.00    +0.000 A 
ATOM      3  C   UNL     1       0.369  11.183  18.548  0.00  0.00    +0.000 A 
ATOM      4  N   UNL     1      -0.202  10.316  17.660  0.00  0.00    +0.000 N 
ATOM      5  C   UNL     1      -1.569  10.448  17.680  0.00  0.00    +0.000 A 
ATOM      6  C   UNL     1      -2.550   9.663  17.049  0.00  0.00    +0.000 A 
ATOM      7  C   UNL     1      -3.887  10.007  17.250  0.00  0.00    +0.000 A 
ATOM      8  C   UNL     1      -4.209  11.120  18.008  0.00  0.00    +0.000 A 
ATOM      9  F   UNL     1      -5.498  11.447  18.176  0.00  0.00    +0.000 F 
ATOM     10  C   UNL     1      -3.227  11.882  18.647  0.00  0.00    +0.000 A 
ATOM     11  C   UNL     1      -1.867  11.516  18.536  0.00  0.00    +0.000 A 
ATOM     12  H   UNL     1       0.296   9.608  17.138  0.00  0.00    +0.000 HD
ENDBRANCH   1   2
BRANCH   1  13
ATOM     13  C   UNL     1      -0.815  14.297  20.131  0.00  0.00    +0.000 A 
ATOM     14  C   UNL     1      -2.017  14.866  20.537  0.00  0.00    +0.000 A 
ATOM     15  N   UNL     1      -2.081  16.164  20.116  0.00  0.00    +0.000 N 
ATOM     16  C   UNL     1      -0.919  16.498  19.469  0.00  0.00    +0.000 A 
ATOM     17  C   UNL     1      -0.568  17.722  18.884  0.00  0.00    +0.000 A 
ATOM     18  C   UNL     1       0.684  17.805  18.278  0.00  0.00    +0.000 A 
ATOM     19  C   UNL     1       1.525  16.701  18.272  0.00  0.00    +0.000 A 
ATOM     20  F   UNL     1       2.727  16.812  17.688  0.00  0.00    +0.000 F 
ATOM     21  C   UNL     1       1.161  15.479  18.850  0.00  0.00    +0.000 A 
ATOM     22  C   UNL     1      -0.101  15.363  19.468  0.00  0.00    +0.000 A 
ATOM     23  H   UNL     1      -2.862  16.785  20.252  0.00  0.00    +0.000 HD
ENDBRANCH   1  13
BRANCH   1  24
ATOM     24  P   UNL     1      -1.228  12.402  21.941  0.00  0.00    +0.000 P 
ATOM     25  O   UNL     1       0.058  12.758  22.713  0.00  0.00    +0.000 OA
BRANCH  24  26
ATOM     26  O   UNL     1      -2.038  12.003  23.417  0.00  0.00    +0.000 OA
BRANCH  26  28
ATOM     27  C   UNL     1      -2.899  14.311  23.716  0.00  0.00    +0.000 C 
ATOM     28  C   UNL     1      -3.266  12.823  23.485  0.00  0.00    +0.000 C 
ATOM     29  C   UNL     1      -4.268  12.358  24.578  0.00  0.00    +0.000 C 
ATOM     30  C   UNL     1      -4.030  12.736  22.159  0.00  0.00    +0.000 C 
ENDBRANCH  26  28
ENDBRANCH  24  26
BRANCH  24  31
ATOM     31  O   UNL     1      -1.161  10.720  21.667  0.00  0.00    +0.000 OA
BRANCH  31  32
ATOM     32  C   UNL     1      -0.150   9.778  22.142  0.00  0.00    +0.000 C 
ATOM     33  C   UNL     1      -0.115   9.544  23.665  0.00  0.00    +0.000 C 
ATOM     34  C   UNL     1      -0.489   8.389  21.538  0.00  0.00    +0.000 C 
ATOM     35  C   UNL     1       1.265  10.121  21.670  0.00  0.00    +0.000 C 
ENDBRANCH  31  32
ENDBRANCH  24  31
ENDBRANCH   1  24
TORSDOF 7
ENDMDL
MODEL 9
REMARK VINA RESULT:      -6.4      2.849      6.194
REMARK  Name = 
REMARK  13 active torsions:
REMARK  status: ('A' for Active; 'I' for Inactive)
REMARK    1  A    between atoms: C_1  and  C_2
REMARK    2  A    between atoms: C_2  and  C_3
REMARK    3  A    between atoms: C_2  and  C_4
REMARK    4  A    between atoms: C_2  and  O_5
REMARK    5  A    between atoms: O_5  and  P_6
REMARK    6  A    between atoms: P_6  and  O_8
REMARK    7  A    between atoms: P_6  and  C_13
REMARK    8  A    between atoms: O_8  and  C_9
REMARK    9  A    between atoms: C_9  and  C_10
REMARK   10  A    between atoms: C_9  and  C_11
REMARK   11  A    between atoms: C_9  and  C_12
REMARK   12  A    between atoms: C_13  and  C_14
REMARK   13  A    between atoms: C_13  and  C_24
REMARK                            x       y       z     vdW  Elec       q    Type
REMARK                         _______ _______ _______ _____ _____    ______ ____
ROOT
ATOM      1  C   UNL     1      -2.139  13.013  19.738  0.00  0.00    +0.000 C 
ENDROOT
BRANCH   1   2
ATOM      2  C   UNL     1      -1.325  11.738  19.520  0.00  0.00    +0.000 A 
ATOM      3  C   UNL     1      -0.913  11.299  18.269  0.00  0.00    +0.000 A 
ATOM      4  N   UNL     1      -0.044  10.256  18.422  0.00  0.00    +0.000 N 
ATOM      5  C   UNL     1       0.131   9.975  19.755  0.00  0.00    +0.000 A 
ATOM      6  C   UNL     1       1.038   9.095  20.370  0.00  0.00    +0.000 A 
ATOM      7  C   UNL     1       1.021   9.010  21.761  0.00  0.00    +0.000 A 
ATOM      8  C   UNL     1       0.096   9.741  22.489  0.00  0.00    +0.000 A 
ATOM      9  F   UNL     1       0.082   9.633  23.825  0.00  0.00    +0.000 F 
ATOM     10  C   UNL     1      -0.788  10.628  21.869  0.00  0.00    +0.000 A 
ATOM     11  C   UNL     1      -0.745  10.804  20.468  0.00  0.00    +0.000 A 
ATOM     12  H   UNL     1       0.475   9.819  17.673  0.00  0.00    +0.000 HD
ENDBRANCH   1   2
BRANCH   1  13
ATOM     13  C   UNL     1      -3.454  12.771  20.542  0.00  0.00    +0.000 A 
ATOM     14  C   UNL     1      -3.583  12.810  21.926  0.00  0.00    +0.000 A 
ATOM     15  N   UNL     1      -4.869  12.516  22.279  0.00  0.00    +0.000 N 
ATOM     16  C   UNL     1      -5.626  12.322  21.153  0.00  0.00    +0.000 A 
ATOM     17  C   UNL     1      -6.987  12.004  21.061  0.00  0.00    +0.000 A 
ATOM     18  C   UNL     1      -7.525  11.855  19.785  0.00  0.00    +0.000 A 
ATOM     19  C   UNL     1      -6.716  12.022  18.669  0.00  0.00    +0.000 A 
ATOM     20  F   UNL     1      -7.262  11.879  17.452  0.00  0.00    +0.000 F 
ATOM     21  C   UNL     1      -5.354  12.330  18.771  0.00  0.00    +0.000 A 
ATOM     22  C   UNL     1      -4.780  12.484  20.049  0.00  0.00    +0.000 A 
ATOM     23  H   UNL     1      -5.214  12.445  23.223  0.00  0.00    +0.000 HD
ENDBRANCH   1  13
BRANCH   1  24
ATOM     24  P   UNL     1      -1.329  14.354  20.684  0.00  0.00    +0.000 P 
ATOM     25  O   UNL     1      -2.484  15.294  20.289  0.00  0.00    +0.000 OA
BRANCH  24  26
ATOM     26  O   UNL     1      -0.563  15.621  21.578  0.00  0.00    +0.000 OA
BRANCH  26  28
ATOM     27  C   UNL     1      -0.926  14.007  23.428  0.00  0.00    +0.000 C 
ATOM     28  C   UNL     1      -0.989  15.492  22.988  0.00  0.00    +0.000 C 
ATOM     29  C   UNL     1      -2.409  16.058  23.265  0.00  0.00    +0.000 C 
ATOM     30  C   UNL     1      -0.043  16.284  23.897  0.00  0.00    +0.000 C 
ENDBRANCH  26  28
ENDBRANCH  24  26
BRANCH  24  31
ATOM     31  O   UNL     1      -0.105  14.600  19.523  0.00  0.00    +0.000 OA
BRANCH  31  32
ATOM     32  C   UNL     1       1.300  14.208  19.611  0.00  0.00    +0.000 C 
ATOM     33  C   UNL     1       1.874  13.485  18.377  0.00  0.00    +0.000 C 
ATOM     34  C   UNL     1       2.138  15.510  19.730  0.00  0.00    +0.000 C 
ATOM     35  C   UNL     1       1.617  13.375  20.854  0.00  0.00    +0.000 C 
ENDBRANCH  31  32
ENDBRANCH  24  31
ENDBRANCH   1  24
TORSDOF 7
ENDMDL
