MODEL 1
REMARK VINA RESULT:      -7.9      0.000      0.000
REMARK  Name = 
REMARK  4 active torsions:
REMARK  status: ('A' for Active; 'I' for Inactive)
REMARK    1  A    between atoms: C_2  and  C_10
REMARK    2  A    between atoms: C_10  and  C_11
REMARK    3  A    between atoms: C_10  and  C_21
REMARK    4  A    between atoms: C_14  and  C_15
REMARK                            x       y       z     vdW  Elec       q    Type
REMARK                         _______ _______ _______ _____ _____    ______ ____
ROOT
ATOM      1  C   UNL     1       6.192   5.801  17.137  0.00  0.00    +0.000 C 
ENDROOT
BRANCH   1   3
ATOM      2  O   UNL     1       6.414   4.094  18.864  0.00  0.00    +0.000 OA
ATOM      3  C   UNL     1       5.668   4.812  18.211  0.00  0.00    +0.000 C 
ATOM      4  N   UNL     1       4.293   4.900  18.338  0.00  0.00    +0.000 N 
ATOM      5  C   UNL     1       3.547   4.195  19.235  0.00  0.00    +0.000 A 
ATOM      6  N   UNL     1       3.904   3.457  20.254  0.00  0.00    +0.000 NA
ATOM      7  C   UNL     1       2.762   2.958  20.861  0.00  0.00    +0.000 A 
ATOM      8  C   UNL     1       1.582   3.323  20.260  0.00  0.00    +0.000 A 
ATOM      9  F   UNL     1       0.398   2.939  20.657  0.00  0.00    +0.000 F 
ATOM     10  S   UNL     1       1.864   4.345  18.940  0.00  0.00    +0.000 S 
ATOM     11  H   UNL     1       3.759   5.419  17.661  0.00  0.00    +0.000 HD
ENDBRANCH   1   3
BRANCH   1  12
ATOM     12  C   UNL     1       6.154   5.176  15.742  0.00  0.00    +0.000 A 
ATOM     13  C   UNL     1       7.249   5.262  14.870  0.00  0.00    +0.000 A 
ATOM     14  C   UNL     1       7.217   4.619  13.630  0.00  0.00    +0.000 A 
ATOM     15  C   UNL     1       6.100   3.864  13.244  0.00  0.00    +0.000 A 
ATOM     16  C   UNL     1       5.008   3.775  14.120  0.00  0.00    +0.000 A 
ATOM     17  C   UNL     1       5.028   4.433  15.350  0.00  0.00    +0.000 A 
BRANCH  15  18
ATOM     18  C   UNL     1       6.058   3.148  11.918  0.00  0.00    +0.000 C 
ATOM     19  F   UNL     1       5.145   3.659  11.046  0.00  0.00    +0.000 F 
ATOM     20  F   UNL     1       7.257   3.191  11.271  0.00  0.00    +0.000 F 
ATOM     21  F   UNL     1       5.753   1.827  12.049  0.00  0.00    +0.000 F 
ENDBRANCH  15  18
ENDBRANCH   1  12
BRANCH   1  22
ATOM     22  C   UNL     1       7.570   6.367  17.410  0.00  0.00    +0.000 C 
ATOM     23  C   UNL     1       7.741   7.858  17.617  0.00  0.00    +0.000 C 
ATOM     24  C   UNL     1       7.928   6.919  18.772  0.00  0.00    +0.000 C 
ENDBRANCH   1  22
TORSDOF 4
ENDMDL
MODEL 2
REMARK VINA RESULT:      -7.9      4.555      8.058
REMARK  Name = 
REMARK  4 active torsions:
REMARK  status: ('A' for Active; 'I' for Inactive)
REMARK    1  A    between atoms: C_2  and  C_10
REMARK    2  A    between atoms: C_10  and  C_11
REMARK    3  A    between atoms: C_10  and  C_21
REMARK    4  A    between atoms: C_14  and  C_15
REMARK                            x       y       z     vdW  Elec       q    Type
REMARK                         _______ _______ _______ _____ _____    ______ ____
ROOT
ATOM      1  C   UNL     1       2.578   5.503  19.350  0.00  0.00    +0.000 C 
ENDROOT
BRANCH   1   3
ATOM      2  O   UNL     1       4.970   5.383  19.805  0.00  0.00    +0.000 OA
ATOM      3  C   UNL     1       4.075   5.376  18.969  0.00  0.00    +0.000 C 
ATOM      4  N   UNL     1       4.229   5.217  17.604  0.00  0.00    +0.000 N 
ATOM      5  C   UNL     1       5.421   5.028  16.970  0.00  0.00    +0.000 A 
ATOM      6  N   UNL     1       6.613   4.776  17.446  0.00  0.00    +0.000 NA
ATOM      7  C   UNL     1       7.498   4.661  16.384  0.00  0.00    +0.000 A 
ATOM      8  C   UNL     1       6.940   4.852  15.144  0.00  0.00    +0.000 A 
ATOM      9  F   UNL     1       7.602   4.813  14.018  0.00  0.00    +0.000 F 
ATOM     10  S   UNL     1       5.275   5.137  15.265  0.00  0.00    +0.000 S 
ATOM     11  H   UNL     1       3.444   5.363  16.990  0.00  0.00    +0.000 HD
ENDBRANCH   1   3
BRANCH   1  12
ATOM     12  C   UNL     1       2.142   6.967  19.410  0.00  0.00    +0.000 A 
ATOM     13  C   UNL     1       2.169   7.787  18.273  0.00  0.00    +0.000 A 
ATOM     14  C   UNL     1       1.694   9.100  18.337  0.00  0.00    +0.000 A 
ATOM     15  C   UNL     1       1.169   9.613  19.531  0.00  0.00    +0.000 A 
ATOM     16  C   UNL     1       1.137   8.789  20.666  0.00  0.00    +0.000 A 
ATOM     17  C   UNL     1       1.629   7.485  20.610  0.00  0.00    +0.000 A 
BRANCH  15  18
ATOM     18  C   UNL     1       0.634  11.021  19.612  0.00  0.00    +0.000 C 
ATOM     19  F   UNL     1       1.134  11.739  20.655  0.00  0.00    +0.000 F 
ATOM     20  F   UNL     1       0.915  11.743  18.491  0.00  0.00    +0.000 F 
ATOM     21  F   UNL     1      -0.720  11.056  19.747  0.00  0.00    +0.000 F 
ENDBRANCH  15  18
ENDBRANCH   1  12
BRANCH   1  22
ATOM     22  C   UNL     1       2.183   4.795  20.631  0.00  0.00    +0.000 C 
ATOM     23  C   UNL     1       1.074   3.763  20.606  0.00  0.00    +0.000 C 
ATOM     24  C   UNL     1       2.492   3.330  20.836  0.00  0.00    +0.000 C 
ENDBRANCH   1  22
TORSDOF 4
ENDMDL
MODEL 3
REMARK VINA RESULT:      -7.8      1.308      1.926
REMARK  Name = 
REMARK  4 active torsions:
REMARK  status: ('A' for Active; 'I' for Inactive)
REMARK    1  A    between atoms: C_2  and  C_10
REMARK    2  A    between atoms: C_10  and  C_11
REMARK    3  A    between atoms: C_10  and  C_21
REMARK    4  A    between atoms: C_14  and  C_15
REMARK                            x       y       z     vdW  Elec       q    Type
REMARK                         _______ _______ _______ _____ _____    ______ ____
ROOT
ATOM      1  C   UNL     1       6.045   5.863  17.393  0.00  0.00    +0.000 C 
ENDROOT
BRANCH   1   3
ATOM      2  O   UNL     1       3.855   6.782  17.945  0.00  0.00    +0.000 OA
ATOM      3  C   UNL     1       4.645   5.853  18.059  0.00  0.00    +0.000 C 
ATOM      4  N   UNL     1       4.424   4.666  18.734  0.00  0.00    +0.000 N 
ATOM      5  C   UNL     1       3.268   4.339  19.377  0.00  0.00    +0.000 A 
ATOM      6  N   UNL     1       2.093   4.914  19.373  0.00  0.00    +0.000 NA
ATOM      7  C   UNL     1       1.241   4.185  20.188  0.00  0.00    +0.000 A 
ATOM      8  C   UNL     1       1.814   3.095  20.795  0.00  0.00    +0.000 A 
ATOM      9  F   UNL     1       1.193   2.294  21.620  0.00  0.00    +0.000 F 
ATOM     10  S   UNL     1       3.431   2.920  20.326  0.00  0.00    +0.000 S 
ATOM     11  H   UNL     1       5.186   4.026  18.885  0.00  0.00    +0.000 HD
ENDBRANCH   1   3
BRANCH   1  12
ATOM     12  C   UNL     1       6.029   5.119  16.057  0.00  0.00    +0.000 A 
ATOM     13  C   UNL     1       4.896   4.419  15.621  0.00  0.00    +0.000 A 
ATOM     14  C   UNL     1       4.881   3.811  14.362  0.00  0.00    +0.000 A 
ATOM     15  C   UNL     1       5.989   3.905  13.510  0.00  0.00    +0.000 A 
ATOM     16  C   UNL     1       7.120   4.611  13.946  0.00  0.00    +0.000 A 
ATOM     17  C   UNL     1       7.146   5.201  15.209  0.00  0.00    +0.000 A 
BRANCH  15  18
ATOM     18  C   UNL     1       5.982   3.272  12.141  0.00  0.00    +0.000 C 
ATOM     19  F   UNL     1       5.882   1.914  12.165  0.00  0.00    +0.000 F 
ATOM     20  F   UNL     1       4.942   3.710  11.377  0.00  0.00    +0.000 F 
ATOM     21  F   UNL     1       7.110   3.553  11.432  0.00  0.00    +0.000 F 
ENDBRANCH  15  18
ENDBRANCH   1  12
BRANCH   1  22
ATOM     22  C   UNL     1       7.169   5.335  18.262  0.00  0.00    +0.000 C 
ATOM     23  C   UNL     1       8.187   6.298  18.837  0.00  0.00    +0.000 C 
ATOM     24  C   UNL     1       7.203   5.622  19.746  0.00  0.00    +0.000 C 
ENDBRANCH   1  22
TORSDOF 4
ENDMDL
MODEL 4
REMARK VINA RESULT:      -7.8      0.300      1.048
REMARK  Name = 
REMARK  4 active torsions:
REMARK  status: ('A' for Active; 'I' for Inactive)
REMARK    1  A    between atoms: C_2  and  C_10
REMARK    2  A    between atoms: C_10  and  C_11
REMARK    3  A    between atoms: C_10  and  C_21
REMARK    4  A    between atoms: C_14  and  C_15
REMARK                            x       y       z     vdW  Elec       q    Type
REMARK                         _______ _______ _______ _____ _____    ______ ____
ROOT
ATOM      1  C   UNL     1       6.207   5.737  17.241  0.00  0.00    +0.000 C 
ENDROOT
BRANCH   1   3
ATOM      2  O   UNL     1       6.222   4.330  19.232  0.00  0.00    +0.000 OA
ATOM      3  C   UNL     1       5.562   4.874  18.355  0.00  0.00    +0.000 C 
ATOM      4  N   UNL     1       4.184   4.853  18.233  0.00  0.00    +0.000 N 
ATOM      5  C   UNL     1       3.335   4.222  19.091  0.00  0.00    +0.000 A 
ATOM      6  N   UNL     1       3.548   3.678  20.261  0.00  0.00    +0.000 NA
ATOM      7  C   UNL     1       2.349   3.171  20.738  0.00  0.00    +0.000 A 
ATOM      8  C   UNL     1       1.276   3.334  19.896  0.00  0.00    +0.000 A 
ATOM      9  F   UNL     1       0.067   2.906  20.143  0.00  0.00    +0.000 F 
ATOM     10  S   UNL     1       1.727   4.172  18.496  0.00  0.00    +0.000 S 
ATOM     11  H   UNL     1       3.749   5.215  17.400  0.00  0.00    +0.000 HD
ENDBRANCH   1   3
BRANCH   1  12
ATOM     12  C   UNL     1       6.190   5.011  15.895  0.00  0.00    +0.000 A 
ATOM     13  C   UNL     1       5.124   4.180  15.524  0.00  0.00    +0.000 A 
ATOM     14  C   UNL     1       5.096   3.588  14.259  0.00  0.00    +0.000 A 
ATOM     15  C   UNL     1       6.123   3.827  13.335  0.00  0.00    +0.000 A 
ATOM     16  C   UNL     1       7.186   4.664  13.706  0.00  0.00    +0.000 A 
ATOM     17  C   UNL     1       7.227   5.240  14.976  0.00  0.00    +0.000 A 
BRANCH  15  18
ATOM     18  C   UNL     1       6.098   3.212  11.958  0.00  0.00    +0.000 C 
ATOM     19  F   UNL     1       5.221   3.811  11.105  0.00  0.00    +0.000 F 
ATOM     20  F   UNL     1       7.314   3.270  11.346  0.00  0.00    +0.000 F 
ATOM     21  F   UNL     1       5.756   1.894  11.983  0.00  0.00    +0.000 F 
ENDBRANCH  15  18
ENDBRANCH   1  12
BRANCH   1  22
ATOM     22  C   UNL     1       7.609   6.226  17.544  0.00  0.00    +0.000 C 
ATOM     23  C   UNL     1       7.859   7.706  17.750  0.00  0.00    +0.000 C 
ATOM     24  C   UNL     1       7.966   6.763  18.912  0.00  0.00    +0.000 C 
ENDBRANCH   1  22
TORSDOF 4
ENDMDL
MODEL 5
REMARK VINA RESULT:      -7.7      4.515      7.983
REMARK  Name = 
REMARK  4 active torsions:
REMARK  status: ('A' for Active; 'I' for Inactive)
REMARK    1  A    between atoms: C_2  and  C_10
REMARK    2  A    between atoms: C_10  and  C_11
REMARK    3  A    between atoms: C_10  and  C_21
REMARK    4  A    between atoms: C_14  and  C_15
REMARK                            x       y       z     vdW  Elec       q    Type
REMARK                         _______ _______ _______ _____ _____    ______ ____
ROOT
ATOM      1  C   UNL     1       2.583   5.377  19.361  0.00  0.00    +0.000 C 
ENDROOT
BRANCH   1   3
ATOM      2  O   UNL     1       4.983   5.389  19.792  0.00  0.00    +0.000 OA
ATOM      3  C   UNL     1       4.081   5.309  18.967  0.00  0.00    +0.000 C 
ATOM      4  N   UNL     1       4.229   5.108  17.606  0.00  0.00    +0.000 N 
ATOM      5  C   UNL     1       5.422   4.955  16.966  0.00  0.00    +0.000 A 
ATOM      6  N   UNL     1       6.629   4.778  17.436  0.00  0.00    +0.000 NA
ATOM      7  C   UNL     1       7.508   4.668  16.369  0.00  0.00    +0.000 A 
ATOM      8  C   UNL     1       6.929   4.787  15.129  0.00  0.00    +0.000 A 
ATOM      9  F   UNL     1       7.581   4.739  13.998  0.00  0.00    +0.000 F 
ATOM     10  S   UNL     1       5.254   4.995  15.260  0.00  0.00    +0.000 S 
ATOM     11  H   UNL     1       3.432   5.195  16.997  0.00  0.00    +0.000 HD
ENDBRANCH   1   3
BRANCH   1  12
ATOM     12  C   UNL     1       2.080   6.821  19.387  0.00  0.00    +0.000 A 
ATOM     13  C   UNL     1       1.588   7.405  20.562  0.00  0.00    +0.000 A 
ATOM     14  C   UNL     1       1.205   8.749  20.578  0.00  0.00    +0.000 A 
ATOM     15  C   UNL     1       1.323   9.539  19.425  0.00  0.00    +0.000 A 
ATOM     16  C   UNL     1       1.821   8.954  18.252  0.00  0.00    +0.000 A 
ATOM     17  C   UNL     1       2.185   7.608  18.228  0.00  0.00    +0.000 A 
BRANCH  15  18
ATOM     18  C   UNL     1       0.933  10.996  19.431  0.00  0.00    +0.000 C 
ATOM     19  F   UNL     1      -0.410  11.204  19.346  0.00  0.00    +0.000 F 
ATOM     20  F   UNL     1       1.340  11.634  20.563  0.00  0.00    +0.000 F 
ATOM     21  F   UNL     1       1.485  11.686  18.395  0.00  0.00    +0.000 F 
ENDBRANCH  15  18
ENDBRANCH   1  12
BRANCH   1  22
ATOM     22  C   UNL     1       2.234   4.687  20.664  0.00  0.00    +0.000 C 
ATOM     23  C   UNL     1       1.139   3.641  20.689  0.00  0.00    +0.000 C 
ATOM     24  C   UNL     1       2.568   3.229  20.886  0.00  0.00    +0.000 C 
ENDBRANCH   1  22
TORSDOF 4
ENDMDL
MODEL 6
REMARK VINA RESULT:      -7.7      1.383      1.690
REMARK  Name = 
REMARK  4 active torsions:
REMARK  status: ('A' for Active; 'I' for Inactive)
REMARK    1  A    between atoms: C_2  and  C_10
REMARK    2  A    between atoms: C_10  and  C_11
REMARK    3  A    between atoms: C_10  and  C_21
REMARK    4  A    between atoms: C_14  and  C_15
REMARK                            x       y       z     vdW  Elec       q    Type
REMARK                         _______ _______ _______ _____ _____    ______ ____
ROOT
ATOM      1  C   UNL     1       5.847   5.782  17.537  0.00  0.00    +0.000 C 
ENDROOT
BRANCH   1   3
ATOM      2  O   UNL     1       3.556   6.570  17.812  0.00  0.00    +0.000 OA
ATOM      3  C   UNL     1       4.404   5.736  18.102  0.00  0.00    +0.000 C 
ATOM      4  N   UNL     1       4.223   4.629  18.913  0.00  0.00    +0.000 N 
ATOM      5  C   UNL     1       3.050   4.287  19.513  0.00  0.00    +0.000 A 
ATOM      6  N   UNL     1       1.838   4.752  19.353  0.00  0.00    +0.000 NA
ATOM      7  C   UNL     1       0.983   4.061  20.199  0.00  0.00    +0.000 A 
ATOM      8  C   UNL     1       1.590   3.111  20.983  0.00  0.00    +0.000 A 
ATOM      9  F   UNL     1       0.971   2.370  21.864  0.00  0.00    +0.000 F 
ATOM     10  S   UNL     1       3.247   3.020  20.652  0.00  0.00    +0.000 S 
ATOM     11  H   UNL     1       5.019   4.082  19.198  0.00  0.00    +0.000 HD
ENDBRANCH   1   3
BRANCH   1  12
ATOM     12  C   UNL     1       5.906   5.218  16.116  0.00  0.00    +0.000 A 
ATOM     13  C   UNL     1       7.041   5.378  15.310  0.00  0.00    +0.000 A 
ATOM     14  C   UNL     1       7.099   4.788  14.045  0.00  0.00    +0.000 A 
ATOM     15  C   UNL     1       6.032   4.013  13.568  0.00  0.00    +0.000 A 
ATOM     16  C   UNL     1       4.899   3.849  14.379  0.00  0.00    +0.000 A 
ATOM     17  C   UNL     1       4.830   4.454  15.633  0.00  0.00    +0.000 A 
BRANCH  15  18
ATOM     18  C   UNL     1       6.087   3.353  12.213  0.00  0.00    +0.000 C 
ATOM     19  F   UNL     1       7.198   3.670  11.493  0.00  0.00    +0.000 F 
ATOM     20  F   UNL     1       6.074   1.994  12.301  0.00  0.00    +0.000 F 
ATOM     21  F   UNL     1       5.024   3.685  11.429  0.00  0.00    +0.000 F 
ENDBRANCH  15  18
ENDBRANCH   1  12
BRANCH   1  22
ATOM     22  C   UNL     1       6.893   5.109  18.402  0.00  0.00    +0.000 C 
ATOM     23  C   UNL     1       8.152   5.863  18.780  0.00  0.00    +0.000 C 
ATOM     24  C   UNL     1       7.124   5.553  19.828  0.00  0.00    +0.000 C 
ENDBRANCH   1  22
TORSDOF 4
ENDMDL
MODEL 7
REMARK VINA RESULT:      -7.6      4.197      5.323
REMARK  Name = 
REMARK  4 active torsions:
REMARK  status: ('A' for Active; 'I' for Inactive)
REMARK    1  A    between atoms: C_2  and  C_10
REMARK    2  A    between atoms: C_10  and  C_11
REMARK    3  A    between atoms: C_10  and  C_21
REMARK    4  A    between atoms: C_14  and  C_15
REMARK                            x       y       z     vdW  Elec       q    Type
REMARK                         _______ _______ _______ _____ _____    ______ ____
ROOT
ATOM      1  C   UNL     1       3.045   5.802  19.261  0.00  0.00    +0.000 C 
ENDROOT
BRANCH   1   3
ATOM      2  O   UNL     1       2.075   7.682  18.049  0.00  0.00    +0.000 OA
ATOM      3  C   UNL     1       2.297   7.154  19.131  0.00  0.00    +0.000 C 
ATOM      4  N   UNL     1       1.901   7.624  20.370  0.00  0.00    +0.000 N 
ATOM      5  C   UNL     1       1.180   8.761  20.579  0.00  0.00    +0.000 A 
ATOM      6  N   UNL     1       0.556   9.545  19.739  0.00  0.00    +0.000 NA
ATOM      7  C   UNL     1      -0.040  10.574  20.452  0.00  0.00    +0.000 A 
ATOM      8  C   UNL     1       0.176  10.537  21.808  0.00  0.00    +0.000 A 
ATOM      9  F   UNL     1      -0.273  11.424  22.656  0.00  0.00    +0.000 F 
ATOM     10  S   UNL     1       1.096   9.183  22.239  0.00  0.00    +0.000 S 
ATOM     11  H   UNL     1       2.252   7.188  21.208  0.00  0.00    +0.000 HD
ENDBRANCH   1   3
BRANCH   1  12
ATOM     12  C   UNL     1       3.929   5.537  18.041  0.00  0.00    +0.000 A 
ATOM     13  C   UNL     1       4.901   6.458  17.626  0.00  0.00    +0.000 A 
ATOM     14  C   UNL     1       5.747   6.159  16.555  0.00  0.00    +0.000 A 
ATOM     15  C   UNL     1       5.650   4.928  15.889  0.00  0.00    +0.000 A 
ATOM     16  C   UNL     1       4.681   4.006  16.310  0.00  0.00    +0.000 A 
ATOM     17  C   UNL     1       3.822   4.310  17.366  0.00  0.00    +0.000 A 
BRANCH  15  18
ATOM     18  C   UNL     1       6.568   4.582  14.744  0.00  0.00    +0.000 C 
ATOM     19  F   UNL     1       6.276   3.394  14.147  0.00  0.00    +0.000 F 
ATOM     20  F   UNL     1       6.533   5.517  13.754  0.00  0.00    +0.000 F 
ATOM     21  F   UNL     1       7.871   4.497  15.130  0.00  0.00    +0.000 F 
ENDBRANCH  15  18
ENDBRANCH   1  12
BRANCH   1  22
ATOM     22  C   UNL     1       2.155   4.604  19.522  0.00  0.00    +0.000 C 
ATOM     23  C   UNL     1       2.325   3.809  20.801  0.00  0.00    +0.000 C 
ATOM     24  C   UNL     1       1.095   4.643  20.598  0.00  0.00    +0.000 C 
ENDBRANCH   1  22
TORSDOF 4
ENDMDL
MODEL 8
REMARK VINA RESULT:      -7.6      4.106      5.351
REMARK  Name = 
REMARK  4 active torsions:
REMARK  status: ('A' for Active; 'I' for Inactive)
REMARK    1  A    between atoms: C_2  and  C_10
REMARK    2  A    between atoms: C_10  and  C_11
REMARK    3  A    between atoms: C_10  and  C_21
REMARK    4  A    between atoms: C_14  and  C_15
REMARK                            x       y       z     vdW  Elec       q    Type
REMARK                         _______ _______ _______ _____ _____    ______ ____
ROOT
ATOM      1  C   UNL     1       3.075   5.557  19.397  0.00  0.00    +0.000 C 
ENDROOT
BRANCH   1   3
ATOM      2  O   UNL     1       2.210   7.421  18.085  0.00  0.00    +0.000 OA
ATOM      3  C   UNL     1       2.381   6.928  19.193  0.00  0.00    +0.000 C 
ATOM      4  N   UNL     1       1.968   7.460  20.401  0.00  0.00    +0.000 N 
ATOM      5  C   UNL     1       1.283   8.630  20.544  0.00  0.00    +0.000 A 
ATOM      6  N   UNL     1       0.713   9.403  19.656  0.00  0.00    +0.000 NA
ATOM      7  C   UNL     1       0.136  10.479  20.312  0.00  0.00    +0.000 A 
ATOM      8  C   UNL     1       0.311  10.488  21.674  0.00  0.00    +0.000 A 
ATOM      9  F   UNL     1      -0.129  11.423  22.473  0.00  0.00    +0.000 F 
ATOM     10  S   UNL     1       1.168   9.120  22.183  0.00  0.00    +0.000 S 
ATOM     11  H   UNL     1       2.278   7.046  21.265  0.00  0.00    +0.000 HD
ENDBRANCH   1   3
BRANCH   1  12
ATOM     12  C   UNL     1       4.030   5.240  18.245  0.00  0.00    +0.000 A 
ATOM     13  C   UNL     1       3.772   4.197  17.345  0.00  0.00    +0.000 A 
ATOM     14  C   UNL     1       4.621   3.976  16.257  0.00  0.00    +0.000 A 
ATOM     15  C   UNL     1       5.732   4.802  16.038  0.00  0.00    +0.000 A 
ATOM     16  C   UNL     1       5.985   5.849  16.937  0.00  0.00    +0.000 A 
ATOM     17  C   UNL     1       5.151   6.059  18.035  0.00  0.00    +0.000 A 
BRANCH  15  18
ATOM     18  C   UNL     1       6.647   4.590  14.858  0.00  0.00    +0.000 C 
ATOM     19  F   UNL     1       6.518   5.536  13.887  0.00  0.00    +0.000 F 
ATOM     20  F   UNL     1       7.961   4.598  15.216  0.00  0.00    +0.000 F 
ATOM     21  F   UNL     1       6.435   3.393  14.244  0.00  0.00    +0.000 F 
ENDBRANCH  15  18
ENDBRANCH   1  12
BRANCH   1  22
ATOM     22  C   UNL     1       2.131   4.391  19.618  0.00  0.00    +0.000 C 
ATOM     23  C   UNL     1       2.222   3.585  20.897  0.00  0.00    +0.000 C 
ATOM     24  C   UNL     1       1.033   4.467  20.654  0.00  0.00    +0.000 C 
ENDBRANCH   1  22
TORSDOF 4
ENDMDL
MODEL 9
REMARK VINA RESULT:      -7.5      4.509      5.837
REMARK  Name = 
REMARK  4 active torsions:
REMARK  status: ('A' for Active; 'I' for Inactive)
REMARK    1  A    between atoms: C_2  and  C_10
REMARK    2  A    between atoms: C_10  and  C_11
REMARK    3  A    between atoms: C_10  and  C_21
REMARK    4  A    between atoms: C_14  and  C_15
REMARK                            x       y       z     vdW  Elec       q    Type
REMARK                         _______ _______ _______ _____ _____    ______ ____
ROOT
ATOM      1  C   UNL     1       2.662   5.801  19.890  0.00  0.00    +0.000 C 
ENDROOT
BRANCH   1   3
ATOM      2  O   UNL     1       2.263   7.907  18.728  0.00  0.00    +0.000 OA
ATOM      3  C   UNL     1       2.138   7.254  19.756  0.00  0.00    +0.000 C 
ATOM      4  N   UNL     1       1.496   7.659  20.913  0.00  0.00    +0.000 N 
ATOM      5  C   UNL     1       0.885   8.865  21.084  0.00  0.00    +0.000 A 
ATOM      6  N   UNL     1       0.594   9.807  20.225  0.00  0.00    +0.000 NA
ATOM      7  C   UNL     1      -0.039  10.840  20.898  0.00  0.00    +0.000 A 
ATOM      8  C   UNL     1      -0.182  10.647  22.250  0.00  0.00    +0.000 A 
ATOM      9  F   UNL     1      -0.726  11.507  23.070  0.00  0.00    +0.000 F 
ATOM     10  S   UNL     1       0.430   9.138  22.715  0.00  0.00    +0.000 S 
ATOM     11  H   UNL     1       1.568   7.101  21.748  0.00  0.00    +0.000 HD
ENDBRANCH   1   3
BRANCH   1  12
ATOM     12  C   UNL     1       3.818   5.537  18.924  0.00  0.00    +0.000 A 
ATOM     13  C   UNL     1       5.144   5.456  19.373  0.00  0.00    +0.000 A 
ATOM     14  C   UNL     1       6.173   5.138  18.482  0.00  0.00    +0.000 A 
ATOM     15  C   UNL     1       5.896   4.879  17.132  0.00  0.00    +0.000 A 
ATOM     16  C   UNL     1       4.568   4.955  16.688  0.00  0.00    +0.000 A 
ATOM     17  C   UNL     1       3.542   5.291  17.570  0.00  0.00    +0.000 A 
BRANCH  15  18
ATOM     18  C   UNL     1       6.993   4.516  16.163  0.00  0.00    +0.000 C 
ATOM     19  F   UNL     1       7.350   5.533  15.331  0.00  0.00    +0.000 F 
ATOM     20  F   UNL     1       8.136   4.133  16.798  0.00  0.00    +0.000 F 
ATOM     21  F   UNL     1       6.649   3.474  15.355  0.00  0.00    +0.000 F 
ENDBRANCH  15  18
ENDBRANCH   1  12
BRANCH   1  22
ATOM     22  C   UNL     1       1.607   4.725  19.736  0.00  0.00    +0.000 C 
ATOM     23  C   UNL     1       1.986   3.270  19.925  0.00  0.00    +0.000 C 
ATOM     24  C   UNL     1       1.108   3.949  20.934  0.00  0.00    +0.000 C 
ENDBRANCH   1  22
TORSDOF 4
ENDMDL
