MODEL 1
REMARK VINA RESULT:      -8.1      0.000      0.000
REMARK  Name = 
REMARK  3 active torsions:
REMARK  status: ('A' for Active; 'I' for Inactive)
REMARK    1  A    between atoms: N_12  and  C_13
REMARK    2  A    between atoms: C_13  and  C_14
REMARK    3  A    between atoms: C_14  and  N_15
REMARK                            x       y       z     vdW  Elec       q    Type
REMARK                         _______ _______ _______ _____ _____    ______ ____
ROOT
ATOM      1  O   UNL     1       3.720   1.712  17.870  0.00  0.00    +0.000 OA
ATOM      2  C   UNL     1       3.513   2.898  18.095  0.00  0.00    +0.000 A 
ATOM      3  N   UNL     1       2.829   3.362  19.191  0.00  0.00    +0.000 N 
ATOM      4  C   UNL     1       2.594   4.728  19.381  0.00  0.00    +0.000 A 
ATOM      5  C   UNL     1       1.883   5.169  20.497  0.00  0.00    +0.000 A 
ATOM      6  C   UNL     1       1.654   6.536  20.669  0.00  0.00    +0.000 A 
ATOM      7  C   UNL     1       2.131   7.451  19.730  0.00  0.00    +0.000 A 
ATOM      8  C   UNL     1       2.840   7.000  18.616  0.00  0.00    +0.000 A 
ATOM      9  C   UNL     1       3.079   5.638  18.432  0.00  0.00    +0.000 A 
ATOM     10  N   UNL     1       3.806   5.242  17.303  0.00  0.00    +0.000 NA
ATOM     11  C   UNL     1       4.038   3.974  17.109  0.00  0.00    +0.000 A 
ATOM     12  N   UNL     1       4.770   3.538  16.024  0.00  0.00    +0.000 N 
ATOM     13  H   UNL     1       2.493   2.676  19.852  0.00  0.00    +0.000 HD
ATOM     14  H   UNL     1       4.686   2.543  15.818  0.00  0.00    +0.000 HD
ENDROOT
BRANCH  12  15
ATOM     15  C   UNL     1       5.123   4.423  14.927  0.00  0.00    +0.000 C 
BRANCH  15  16
ATOM     16  C   UNL     1       6.595   4.251  14.531  0.00  0.00    +0.000 C 
BRANCH  16  17
ATOM     17  N   UNL     1       7.357   5.448  14.863  0.00  0.00    +0.000 N 
ATOM     18  C   UNL     1       7.505   5.649  16.230  0.00  0.00    +0.000 A 
ATOM     19  N   UNL     1       7.593   4.599  17.059  0.00  0.00    +0.000 NA
ATOM     20  C   UNL     1       7.727   4.865  18.371  0.00  0.00    +0.000 A 
ATOM     21  C   UNL     1       7.774   6.136  18.883  0.00  0.00    +0.000 A 
ATOM     22  C   UNL     1       7.674   7.141  17.956  0.00  0.00    +0.000 A 
ATOM     23  N   UNL     1       7.534   6.925  16.634  0.00  0.00    +0.000 NA
ATOM     24  H   UNL     1       6.982   6.322  14.506  0.00  0.00    +0.000 HD
ENDBRANCH  16  17
ENDBRANCH  15  16
ENDBRANCH  12  15
TORSDOF 3
ENDMDL
MODEL 2
REMARK VINA RESULT:      -7.7      2.172      3.849
REMARK  Name = 
REMARK  3 active torsions:
REMARK  status: ('A' for Active; 'I' for Inactive)
REMARK    1  A    between atoms: N_12  and  C_13
REMARK    2  A    between atoms: C_13  and  C_14
REMARK    3  A    between atoms: C_14  and  N_15
REMARK                            x       y       z     vdW  Elec       q    Type
REMARK                         _______ _______ _______ _____ _____    ______ ____
ROOT
ATOM      1  O   UNL     1       3.188   7.643  17.890  0.00  0.00    +0.000 OA
ATOM      2  C   UNL     1       3.167   6.563  18.469  0.00  0.00    +0.000 A 
ATOM      3  N   UNL     1       2.046   6.032  19.058  0.00  0.00    +0.000 N 
ATOM      4  C   UNL     1       2.088   4.808  19.734  0.00  0.00    +0.000 A 
ATOM      5  C   UNL     1       0.937   4.300  20.336  0.00  0.00    +0.000 A 
ATOM      6  C   UNL     1       0.996   3.079  21.010  0.00  0.00    +0.000 A 
ATOM      7  C   UNL     1       2.198   2.375  21.083  0.00  0.00    +0.000 A 
ATOM      8  C   UNL     1       3.345   2.892  20.479  0.00  0.00    +0.000 A 
ATOM      9  C   UNL     1       3.300   4.110  19.800  0.00  0.00    +0.000 A 
ATOM     10  N   UNL     1       4.478   4.576  19.201  0.00  0.00    +0.000 NA
ATOM     11  C   UNL     1       4.460   5.713  18.565  0.00  0.00    +0.000 A 
ATOM     12  N   UNL     1       5.589   6.201  17.940  0.00  0.00    +0.000 N 
ATOM     13  H   UNL     1       1.191   6.566  18.992  0.00  0.00    +0.000 HD
ATOM     14  H   UNL     1       5.553   7.189  17.693  0.00  0.00    +0.000 HD
ENDROOT
BRANCH  12  15
ATOM     15  C   UNL     1       6.900   5.608  18.144  0.00  0.00    +0.000 C 
BRANCH  15  16
ATOM     16  C   UNL     1       7.336   4.798  16.917  0.00  0.00    +0.000 C 
BRANCH  16  17
ATOM     17  N   UNL     1       7.433   5.658  15.744  0.00  0.00    +0.000 N 
ATOM     18  C   UNL     1       7.114   5.013  14.556  0.00  0.00    +0.000 A 
ATOM     19  N   UNL     1       6.192   4.039  14.545  0.00  0.00    +0.000 NA
ATOM     20  C   UNL     1       5.937   3.451  13.363  0.00  0.00    +0.000 A 
ATOM     21  C   UNL     1       6.568   3.796  12.196  0.00  0.00    +0.000 A 
ATOM     22  C   UNL     1       7.494   4.801  12.310  0.00  0.00    +0.000 A 
ATOM     23  N   UNL     1       7.787   5.416  13.472  0.00  0.00    +0.000 NA
ATOM     24  H   UNL     1       8.343   6.080  15.581  0.00  0.00    +0.000 HD
ENDBRANCH  16  17
ENDBRANCH  15  16
ENDBRANCH  12  15
TORSDOF 3
ENDMDL
MODEL 3
REMARK VINA RESULT:      -7.6      1.699      2.412
REMARK  Name = 
REMARK  3 active torsions:
REMARK  status: ('A' for Active; 'I' for Inactive)
REMARK    1  A    between atoms: N_12  and  C_13
REMARK    2  A    between atoms: C_13  and  C_14
REMARK    3  A    between atoms: C_14  and  N_15
REMARK                            x       y       z     vdW  Elec       q    Type
REMARK                         _______ _______ _______ _____ _____    ______ ____
ROOT
ATOM      1  O   UNL     1       4.538   7.189  17.954  0.00  0.00    +0.000 OA
ATOM      2  C   UNL     1       3.920   6.139  18.088  0.00  0.00    +0.000 A 
ATOM      3  N   UNL     1       3.134   5.847  19.174  0.00  0.00    +0.000 N 
ATOM      4  C   UNL     1       2.476   4.618  19.289  0.00  0.00    +0.000 A 
ATOM      5  C   UNL     1       1.695   4.343  20.412  0.00  0.00    +0.000 A 
ATOM      6  C   UNL     1       1.048   3.110  20.514  0.00  0.00    +0.000 A 
ATOM      7  C   UNL     1       1.186   2.160  19.501  0.00  0.00    +0.000 A 
ATOM      8  C   UNL     1       1.971   2.443  18.382  0.00  0.00    +0.000 A 
ATOM      9  C   UNL     1       2.621   3.672  18.266  0.00  0.00    +0.000 A 
ATOM     10  N   UNL     1       3.385   3.908  17.117  0.00  0.00    +0.000 NA
ATOM     11  C   UNL     1       4.004   5.048  16.990  0.00  0.00    +0.000 A 
ATOM     12  N   UNL     1       4.750   5.335  15.864  0.00  0.00    +0.000 N 
ATOM     13  H   UNL     1       3.055   6.552  19.893  0.00  0.00    +0.000 HD
ATOM     14  H   UNL     1       5.390   6.123  15.960  0.00  0.00    +0.000 HD
ENDROOT
BRANCH  12  15
ATOM     15  C   UNL     1       5.078   4.320  14.878  0.00  0.00    +0.000 C 
BRANCH  15  16
ATOM     16  C   UNL     1       6.579   4.002  14.894  0.00  0.00    +0.000 C 
BRANCH  16  17
ATOM     17  N   UNL     1       7.360   5.223  15.042  0.00  0.00    +0.000 N 
ATOM     18  C   UNL     1       7.543   5.606  16.365  0.00  0.00    +0.000 A 
ATOM     19  N   UNL     1       7.643   4.677  17.327  0.00  0.00    +0.000 NA
ATOM     20  C   UNL     1       7.811   5.116  18.588  0.00  0.00    +0.000 A 
ATOM     21  C   UNL     1       7.882   6.444  18.921  0.00  0.00    +0.000 A 
ATOM     22  C   UNL     1       7.769   7.316  17.868  0.00  0.00    +0.000 A 
ATOM     23  N   UNL     1       7.594   6.924  16.591  0.00  0.00    +0.000 NA
ATOM     24  H   UNL     1       6.984   6.045  14.578  0.00  0.00    +0.000 HD
ENDBRANCH  16  17
ENDBRANCH  15  16
ENDBRANCH  12  15
TORSDOF 3
ENDMDL
MODEL 4
REMARK VINA RESULT:      -7.4      1.926      2.740
REMARK  Name = 
REMARK  3 active torsions:
REMARK  status: ('A' for Active; 'I' for Inactive)
REMARK    1  A    between atoms: N_12  and  C_13
REMARK    2  A    between atoms: C_13  and  C_14
REMARK    3  A    between atoms: C_14  and  N_15
REMARK                            x       y       z     vdW  Elec       q    Type
REMARK                         _______ _______ _______ _____ _____    ______ ____
ROOT
ATOM      1  O   UNL     1       2.293   4.547  21.139  0.00  0.00    +0.000 OA
ATOM      2  C   UNL     1       2.242   5.540  20.423  0.00  0.00    +0.000 A 
ATOM      3  N   UNL     1       1.755   6.756  20.833  0.00  0.00    +0.000 N 
ATOM      4  C   UNL     1       1.692   7.848  19.960  0.00  0.00    +0.000 A 
ATOM      5  C   UNL     1       1.178   9.068  20.401  0.00  0.00    +0.000 A 
ATOM      6  C   UNL     1       1.118  10.147  19.516  0.00  0.00    +0.000 A 
ATOM      7  C   UNL     1       1.566  10.004  18.203  0.00  0.00    +0.000 A 
ATOM      8  C   UNL     1       2.077   8.779  17.771  0.00  0.00    +0.000 A 
ATOM      9  C   UNL     1       2.145   7.693  18.644  0.00  0.00    +0.000 A 
ATOM     10  N   UNL     1       2.679   6.491  18.162  0.00  0.00    +0.000 NA
ATOM     11  C   UNL     1       2.748   5.462  18.959  0.00  0.00    +0.000 A 
ATOM     12  N   UNL     1       3.288   4.264  18.536  0.00  0.00    +0.000 N 
ATOM     13  H   UNL     1       1.435   6.829  21.788  0.00  0.00    +0.000 HD
ATOM     14  H   UNL     1       3.074   3.462  19.126  0.00  0.00    +0.000 HD
ENDROOT
BRANCH  12  15
ATOM     15  C   UNL     1       3.590   4.007  17.138  0.00  0.00    +0.000 C 
BRANCH  15  16
ATOM     16  C   UNL     1       5.033   3.517  16.968  0.00  0.00    +0.000 C 
BRANCH  16  17
ATOM     17  N   UNL     1       5.826   4.502  16.243  0.00  0.00    +0.000 N 
ATOM     18  C   UNL     1       6.592   5.312  17.071  0.00  0.00    +0.000 A 
ATOM     19  N   UNL     1       7.092   4.826  18.216  0.00  0.00    +0.000 NA
ATOM     20  C   UNL     1       7.819   5.666  18.974  0.00  0.00    +0.000 A 
ATOM     21  C   UNL     1       8.063   6.971  18.632  0.00  0.00    +0.000 A 
ATOM     22  C   UNL     1       7.509   7.376  17.444  0.00  0.00    +0.000 A 
ATOM     23  N   UNL     1       6.770   6.572  16.654  0.00  0.00    +0.000 NA
ATOM     24  H   UNL     1       5.301   5.143  15.656  0.00  0.00    +0.000 HD
ENDBRANCH  16  17
ENDBRANCH  15  16
ENDBRANCH  12  15
TORSDOF 3
ENDMDL
MODEL 5
REMARK VINA RESULT:      -7.4      3.780      5.171
REMARK  Name = 
REMARK  3 active torsions:
REMARK  status: ('A' for Active; 'I' for Inactive)
REMARK    1  A    between atoms: N_12  and  C_13
REMARK    2  A    between atoms: C_13  and  C_14
REMARK    3  A    between atoms: C_14  and  N_15
REMARK                            x       y       z     vdW  Elec       q    Type
REMARK                         _______ _______ _______ _____ _____    ______ ____
ROOT
ATOM      1  O   UNL     1       8.154   4.297  17.152  0.00  0.00    +0.000 OA
ATOM      2  C   UNL     1       6.992   4.637  17.334  0.00  0.00    +0.000 A 
ATOM      3  N   UNL     1       5.933   3.764  17.353  0.00  0.00    +0.000 N 
ATOM      4  C   UNL     1       4.620   4.214  17.535  0.00  0.00    +0.000 A 
ATOM      5  C   UNL     1       3.562   3.306  17.535  0.00  0.00    +0.000 A 
ATOM      6  C   UNL     1       2.257   3.771  17.713  0.00  0.00    +0.000 A 
ATOM      7  C   UNL     1       2.016   5.134  17.887  0.00  0.00    +0.000 A 
ATOM      8  C   UNL     1       3.082   6.036  17.884  0.00  0.00    +0.000 A 
ATOM      9  C   UNL     1       4.390   5.585  17.709  0.00  0.00    +0.000 A 
ATOM     10  N   UNL     1       5.422   6.531  17.727  0.00  0.00    +0.000 NA
ATOM     11  C   UNL     1       6.652   6.133  17.562  0.00  0.00    +0.000 A 
ATOM     12  N   UNL     1       7.704   7.025  17.596  0.00  0.00    +0.000 N 
ATOM     13  H   UNL     1       6.137   2.784  17.221  0.00  0.00    +0.000 HD
ATOM     14  H   UNL     1       8.581   6.674  17.213  0.00  0.00    +0.000 HD
ENDROOT
BRANCH  12  15
ATOM     15  C   UNL     1       7.495   8.463  17.583  0.00  0.00    +0.000 C 
BRANCH  15  16
ATOM     16  C   UNL     1       8.582   9.185  18.389  0.00  0.00    +0.000 C 
BRANCH  16  17
ATOM     17  N   UNL     1       8.775  10.540  17.889  0.00  0.00    +0.000 N 
ATOM     18  C   UNL     1       9.328  11.403  18.827  0.00  0.00    +0.000 A 
ATOM     19  N   UNL     1      10.198  10.941  19.736  0.00  0.00    +0.000 NA
ATOM     20  C   UNL     1      10.689  11.828  20.620  0.00  0.00    +0.000 A 
ATOM     21  C   UNL     1      10.344  13.155  20.629  0.00  0.00    +0.000 A 
ATOM     22  C   UNL     1       9.448  13.530  19.661  0.00  0.00    +0.000 A 
ATOM     23  N   UNL     1       8.925  12.678  18.759  0.00  0.00    +0.000 NA
ATOM     24  H   UNL     1       7.937  11.010  17.557  0.00  0.00    +0.000 HD
ENDBRANCH  16  17
ENDBRANCH  15  16
ENDBRANCH  12  15
TORSDOF 3
ENDMDL
MODEL 6
REMARK VINA RESULT:      -7.3      1.905      2.905
REMARK  Name = 
REMARK  3 active torsions:
REMARK  status: ('A' for Active; 'I' for Inactive)
REMARK    1  A    between atoms: N_12  and  C_13
REMARK    2  A    between atoms: C_13  and  C_14
REMARK    3  A    between atoms: C_14  and  N_15
REMARK                            x       y       z     vdW  Elec       q    Type
REMARK                         _______ _______ _______ _____ _____    ______ ____
ROOT
ATOM      1  O   UNL     1       2.183   3.991  21.515  0.00  0.00    +0.000 OA
ATOM      2  C   UNL     1       2.201   4.931  20.729  0.00  0.00    +0.000 A 
ATOM      3  N   UNL     1       1.781   6.199  21.044  0.00  0.00    +0.000 N 
ATOM      4  C   UNL     1       1.793   7.228  20.096  0.00  0.00    +0.000 A 
ATOM      5  C   UNL     1       1.347   8.504  20.440  0.00  0.00    +0.000 A 
ATOM      6  C   UNL     1       1.362   9.519  19.481  0.00  0.00    +0.000 A 
ATOM      7  C   UNL     1       1.818   9.257  18.190  0.00  0.00    +0.000 A 
ATOM      8  C   UNL     1       2.261   7.976  17.854  0.00  0.00    +0.000 A 
ATOM      9  C   UNL     1       2.254   6.953  18.802  0.00  0.00    +0.000 A 
ATOM     10  N   UNL     1       2.721   5.691  18.415  0.00  0.00    +0.000 NA
ATOM     11  C   UNL     1       2.720   4.720  19.284  0.00  0.00    +0.000 A 
ATOM     12  N   UNL     1       3.193   3.465  18.955  0.00  0.00    +0.000 N 
ATOM     13  H   UNL     1       1.453   6.359  21.986  0.00  0.00    +0.000 HD
ATOM     14  H   UNL     1       2.924   2.721  19.597  0.00  0.00    +0.000 HD
ENDROOT
BRANCH  12  15
ATOM     15  C   UNL     1       3.497   3.092  17.585  0.00  0.00    +0.000 C 
BRANCH  15  16
ATOM     16  C   UNL     1       4.951   3.431  17.231  0.00  0.00    +0.000 C 
BRANCH  16  17
ATOM     17  N   UNL     1       5.674   3.880  18.414  0.00  0.00    +0.000 N 
ATOM     18  C   UNL     1       6.337   5.087  18.233  0.00  0.00    +0.000 A 
ATOM     19  N   UNL     1       5.824   6.022  17.420  0.00  0.00    +0.000 NA
ATOM     20  C   UNL     1       6.521   7.164  17.284  0.00  0.00    +0.000 A 
ATOM     21  C   UNL     1       7.708   7.406  17.927  0.00  0.00    +0.000 A 
ATOM     22  C   UNL     1       8.150   6.389  18.735  0.00  0.00    +0.000 A 
ATOM     23  N   UNL     1       7.491   5.226  18.898  0.00  0.00    +0.000 NA
ATOM     24  H   UNL     1       6.380   3.240  18.767  0.00  0.00    +0.000 HD
ENDBRANCH  16  17
ENDBRANCH  15  16
ENDBRANCH  12  15
TORSDOF 3
ENDMDL
MODEL 7
REMARK VINA RESULT:      -7.3      2.144      4.094
REMARK  Name = 
REMARK  3 active torsions:
REMARK  status: ('A' for Active; 'I' for Inactive)
REMARK    1  A    between atoms: N_12  and  C_13
REMARK    2  A    between atoms: C_13  and  C_14
REMARK    3  A    between atoms: C_14  and  N_15
REMARK                            x       y       z     vdW  Elec       q    Type
REMARK                         _______ _______ _______ _____ _____    ______ ____
ROOT
ATOM      1  O   UNL     1       2.790   7.891  17.719  0.00  0.00    +0.000 OA
ATOM      2  C   UNL     1       2.964   6.689  17.882  0.00  0.00    +0.000 A 
ATOM      3  N   UNL     1       1.947   5.785  18.061  0.00  0.00    +0.000 N 
ATOM      4  C   UNL     1       2.206   4.427  18.274  0.00  0.00    +0.000 A 
ATOM      5  C   UNL     1       1.152   3.534  18.468  0.00  0.00    +0.000 A 
ATOM      6  C   UNL     1       1.428   2.183  18.684  0.00  0.00    +0.000 A 
ATOM      7  C   UNL     1       2.748   1.731  18.708  0.00  0.00    +0.000 A 
ATOM      8  C   UNL     1       3.796   2.632  18.515  0.00  0.00    +0.000 A 
ATOM      9  C   UNL     1       3.535   3.985  18.296  0.00  0.00    +0.000 A 
ATOM     10  N   UNL     1       4.624   4.843  18.096  0.00  0.00    +0.000 NA
ATOM     11  C   UNL     1       4.403   6.111  17.893  0.00  0.00    +0.000 A 
ATOM     12  N   UNL     1       5.443   6.991  17.668  0.00  0.00    +0.000 N 
ATOM     13  H   UNL     1       1.002   6.141  18.041  0.00  0.00    +0.000 HD
ATOM     14  H   UNL     1       5.204   7.977  17.771  0.00  0.00    +0.000 HD
ENDROOT
BRANCH  12  15
ATOM     15  C   UNL     1       6.830   6.612  17.870  0.00  0.00    +0.000 C 
BRANCH  15  16
ATOM     16  C   UNL     1       7.507   6.267  16.537  0.00  0.00    +0.000 C 
BRANCH  16  17
ATOM     17  N   UNL     1       7.221   4.889  16.159  0.00  0.00    +0.000 N 
ATOM     18  C   UNL     1       7.142   4.697  14.786  0.00  0.00    +0.000 A 
ATOM     19  N   UNL     1       7.902   5.429  13.958  0.00  0.00    +0.000 NA
ATOM     20  C   UNL     1       7.770   5.198  12.640  0.00  0.00    +0.000 A 
ATOM     21  C   UNL     1       6.909   4.266  12.119  0.00  0.00    +0.000 A 
ATOM     22  C   UNL     1       6.176   3.569  13.045  0.00  0.00    +0.000 A 
ATOM     23  N   UNL     1       6.269   3.769  14.374  0.00  0.00    +0.000 NA
ATOM     24  H   UNL     1       6.359   4.501  16.532  0.00  0.00    +0.000 HD
ENDBRANCH  16  17
ENDBRANCH  15  16
ENDBRANCH  12  15
TORSDOF 3
ENDMDL
MODEL 8
REMARK VINA RESULT:      -7.2      2.371      6.507
REMARK  Name = 
REMARK  3 active torsions:
REMARK  status: ('A' for Active; 'I' for Inactive)
REMARK    1  A    between atoms: N_12  and  C_13
REMARK    2  A    between atoms: C_13  and  C_14
REMARK    3  A    between atoms: C_14  and  N_15
REMARK                            x       y       z     vdW  Elec       q    Type
REMARK                         _______ _______ _______ _____ _____    ______ ____
ROOT
ATOM      1  O   UNL     1       7.381   6.340  17.553  0.00  0.00    +0.000 OA
ATOM      2  C   UNL     1       6.970   5.701  16.592  0.00  0.00    +0.000 A 
ATOM      3  N   UNL     1       7.597   5.666  15.371  0.00  0.00    +0.000 N 
ATOM      4  C   UNL     1       7.063   4.943  14.298  0.00  0.00    +0.000 A 
ATOM      5  C   UNL     1       7.714   4.938  13.065  0.00  0.00    +0.000 A 
ATOM      6  C   UNL     1       7.167   4.215  12.003  0.00  0.00    +0.000 A 
ATOM      7  C   UNL     1       5.978   3.507  12.175  0.00  0.00    +0.000 A 
ATOM      8  C   UNL     1       5.333   3.519  13.413  0.00  0.00    +0.000 A 
ATOM      9  C   UNL     1       5.869   4.235  14.483  0.00  0.00    +0.000 A 
ATOM     10  N   UNL     1       5.188   4.203  15.706  0.00  0.00    +0.000 NA
ATOM     11  C   UNL     1       5.669   4.867  16.719  0.00  0.00    +0.000 A 
ATOM     12  N   UNL     1       5.045   4.847  17.950  0.00  0.00    +0.000 N 
ATOM     13  H   UNL     1       8.454   6.191  15.275  0.00  0.00    +0.000 HD
ATOM     14  H   UNL     1       5.339   5.579  18.595  0.00  0.00    +0.000 HD
ENDROOT
BRANCH  12  15
ATOM     15  C   UNL     1       3.717   4.287  18.131  0.00  0.00    +0.000 C 
BRANCH  15  16
ATOM     16  C   UNL     1       2.754   5.329  18.715  0.00  0.00    +0.000 C 
BRANCH  16  17
ATOM     17  N   UNL     1       3.000   6.639  18.127  0.00  0.00    +0.000 N 
ATOM     18  C   UNL     1       2.279   7.661  18.731  0.00  0.00    +0.000 A 
ATOM     19  N   UNL     1       1.999   7.604  20.041  0.00  0.00    +0.000 NA
ATOM     20  C   UNL     1       1.291   8.623  20.561  0.00  0.00    +0.000 A 
ATOM     21  C   UNL     1       0.852   9.692  19.822  0.00  0.00    +0.000 A 
ATOM     22  C   UNL     1       1.188   9.658  18.492  0.00  0.00    +0.000 A 
ATOM     23  N   UNL     1       1.890   8.658  17.926  0.00  0.00    +0.000 NA
ATOM     24  H   UNL     1       2.797   6.721  17.135  0.00  0.00    +0.000 HD
ENDBRANCH  16  17
ENDBRANCH  15  16
ENDBRANCH  12  15
TORSDOF 3
ENDMDL
MODEL 9
REMARK VINA RESULT:      -7.2      2.009      3.801
REMARK  Name = 
REMARK  3 active torsions:
REMARK  status: ('A' for Active; 'I' for Inactive)
REMARK    1  A    between atoms: N_12  and  C_13
REMARK    2  A    between atoms: C_13  and  C_14
REMARK    3  A    between atoms: C_14  and  N_15
REMARK                            x       y       z     vdW  Elec       q    Type
REMARK                         _______ _______ _______ _____ _____    ______ ____
ROOT
ATOM      1  O   UNL     1       3.323   7.516  17.892  0.00  0.00    +0.000 OA
ATOM      2  C   UNL     1       3.228   6.323  18.152  0.00  0.00    +0.000 A 
ATOM      3  N   UNL     1       2.044   5.630  18.144  0.00  0.00    +0.000 N 
ATOM      4  C   UNL     1       1.991   4.273  18.482  0.00  0.00    +0.000 A 
ATOM      5  C   UNL     1       0.770   3.597  18.479  0.00  0.00    +0.000 A 
ATOM      6  C   UNL     1       0.733   2.244  18.822  0.00  0.00    +0.000 A 
ATOM      7  C   UNL     1       1.908   1.576  19.166  0.00  0.00    +0.000 A 
ATOM      8  C   UNL     1       3.125   2.260  19.167  0.00  0.00    +0.000 A 
ATOM      9  C   UNL     1       3.177   3.611  18.825  0.00  0.00    +0.000 A 
ATOM     10  N   UNL     1       4.425   4.246  18.830  0.00  0.00    +0.000 NA
ATOM     11  C   UNL     1       4.497   5.509  18.517  0.00  0.00    +0.000 A 
ATOM     12  N   UNL     1       5.707   6.171  18.485  0.00  0.00    +0.000 N 
ATOM     13  H   UNL     1       1.209   6.140  17.895  0.00  0.00    +0.000 HD
ATOM     14  H   UNL     1       5.643   7.188  18.481  0.00  0.00    +0.000 HD
ENDROOT
BRANCH  12  15
ATOM     15  C   UNL     1       6.923   5.578  19.014  0.00  0.00    +0.000 C 
BRANCH  15  16
ATOM     16  C   UNL     1       7.734   4.899  17.902  0.00  0.00    +0.000 C 
BRANCH  16  17
ATOM     17  N   UNL     1       7.728   5.714  16.694  0.00  0.00    +0.000 N 
ATOM     18  C   UNL     1       7.178   5.069  15.594  0.00  0.00    +0.000 A 
ATOM     19  N   UNL     1       6.183   4.185  15.758  0.00  0.00    +0.000 NA
ATOM     20  C   UNL     1       5.703   3.590  14.652  0.00  0.00    +0.000 A 
ATOM     21  C   UNL     1       6.178   3.844  13.391  0.00  0.00    +0.000 A 
ATOM     22  C   UNL     1       7.195   4.762  13.326  0.00  0.00    +0.000 A 
ATOM     23  N   UNL     1       7.713   5.379  14.406  0.00  0.00    +0.000 NA
ATOM     24  H   UNL     1       8.636   6.045  16.381  0.00  0.00    +0.000 HD
ENDBRANCH  16  17
ENDBRANCH  15  16
ENDBRANCH  12  15
TORSDOF 3
ENDMDL
