MODEL 1
REMARK VINA RESULT:      -7.3      0.000      0.000
REMARK  Name = 
REMARK  4 active torsions:
REMARK  status: ('A' for Active; 'I' for Inactive)
REMARK    1  A    between atoms: C_1  and  N_2
REMARK    2  A    between atoms: N_10  and  C_11
REMARK    3  A    between atoms: P_16  and  O_18
REMARK    4  A    between atoms: C_21  and  O_22
REMARK                            x       y       z     vdW  Elec       q    Type
REMARK                         _______ _______ _______ _____ _____    ______ ____
ROOT
ATOM      1  C   UNL     1       6.894   3.951  12.343  0.00  0.00    +0.000 C 
ATOM      2  N   UNL     1       6.647   4.320  13.724  0.00  0.00    +0.000 N 
ATOM      3  C   UNL     1       5.586   3.712  14.379  0.00  0.00    +0.000 A 
ATOM      4  O   UNL     1       4.813   2.881  13.933  0.00  0.00    +0.000 OA
ATOM      5  N   UNL     1       5.359   4.109  15.726  0.00  0.00    +0.000 N 
ATOM      6  C   UNL     1       6.180   5.007  16.344  0.00  0.00    +0.000 A 
ATOM      7  C   UNL     1       7.192   5.621  15.671  0.00  0.00    +0.000 A 
ATOM      8  N   UNL     1       7.823   6.539  16.471  0.00  0.00    +0.000 NA
ATOM      9  C   UNL     1       7.204   6.444  17.635  0.00  0.00    +0.000 A 
ATOM     10  N   UNL     1       6.202   5.501  17.614  0.00  0.00    +0.000 N 
ATOM     11  C   UNL     1       7.454   5.293  14.298  0.00  0.00    +0.000 A 
ATOM     12  N   UNL     1       8.401   5.885  13.650  0.00  0.00    +0.000 NA
ATOM     13  H   UNL     1       4.511   3.794  16.188  0.00  0.00    +0.000 HD
ATOM     14  H   UNL     1       8.852   6.565  14.284  0.00  0.00    +0.000 HD
ENDROOT
BRANCH  10  15
ATOM     15  C   UNL     1       5.426   5.071  18.756  0.00  0.00    +0.000 C 
ATOM     16  O   UNL     1       5.523   3.625  18.875  0.00  0.00    +0.000 OA
ATOM     17  C   UNL     1       4.277   3.138  19.427  0.00  0.00    +0.000 C 
ATOM     18  C   UNL     1       3.606   2.176  18.441  0.00  0.00    +0.000 C 
ATOM     19  O   UNL     1       2.254   1.944  18.783  0.00  0.00    +0.000 OA
ATOM     20  P   UNL     1       1.324   3.248  18.788  0.00  0.00    +0.000 P 
ATOM     21  O   UNL     1       1.084   3.902  17.469  0.00  0.00    +0.000 OA
ATOM     22  O   UNL     1       2.049   4.199  19.853  0.00  0.00    +0.000 OA
ATOM     23  C   UNL     1       3.444   4.379  19.770  0.00  0.00    +0.000 C 
ATOM     24  C   UNL     1       3.921   5.390  18.731  0.00  0.00    +0.000 C 
BRANCH  20  25
ATOM     25  O   UNL     1      -0.001   2.770  19.530  0.00  0.00    +0.000 OA
ATOM     26  H   UNL     1      -0.604   2.291  18.930  0.00  0.00    +0.000 HD
ENDBRANCH  20  25
BRANCH  24  27
ATOM     27  O   UNL     1       3.373   5.101  17.440  0.00  0.00    +0.000 OA
ATOM     28  H   UNL     1       3.279   5.941  16.933  0.00  0.00    +0.000 HD
ENDBRANCH  24  27
ENDBRANCH  10  15
TORSDOF 3
ENDMDL
MODEL 2
REMARK VINA RESULT:      -7.2      4.615      7.006
REMARK  Name = 
REMARK  4 active torsions:
REMARK  status: ('A' for Active; 'I' for Inactive)
REMARK    1  A    between atoms: C_1  and  N_2
REMARK    2  A    between atoms: N_10  and  C_11
REMARK    3  A    between atoms: P_16  and  O_18
REMARK    4  A    between atoms: C_21  and  O_22
REMARK                            x       y       z     vdW  Elec       q    Type
REMARK                         _______ _______ _______ _____ _____    ______ ____
ROOT
ATOM      1  C   UNL     1      -0.932  11.074  21.754  0.00  0.00    +0.000 C 
ATOM      2  N   UNL     1       0.012  10.161  21.137  0.00  0.00    +0.000 N 
ATOM      3  C   UNL     1       0.833   9.415  21.970  0.00  0.00    +0.000 A 
ATOM      4  O   UNL     1       0.865   9.426  23.189  0.00  0.00    +0.000 OA
ATOM      5  N   UNL     1       1.760   8.544  21.334  0.00  0.00    +0.000 N 
ATOM      6  C   UNL     1       1.794   8.422  19.976  0.00  0.00    +0.000 A 
ATOM      7  C   UNL     1       1.006   9.191  19.176  0.00  0.00    +0.000 A 
ATOM      8  N   UNL     1       1.275   8.952  17.852  0.00  0.00    +0.000 NA
ATOM      9  C   UNL     1       2.203   8.011  17.867  0.00  0.00    +0.000 A 
ATOM     10  N   UNL     1       2.539   7.636  19.148  0.00  0.00    +0.000 N 
ATOM     11  C   UNL     1       0.073  10.118  19.752  0.00  0.00    +0.000 A 
ATOM     12  N   UNL     1      -0.664  10.863  18.997  0.00  0.00    +0.000 NA
ATOM     13  H   UNL     1       2.470   8.092  21.903  0.00  0.00    +0.000 HD
ATOM     14  H   UNL     1      -0.435  10.654  18.012  0.00  0.00    +0.000 HD
ENDROOT
BRANCH  10  15
ATOM     15  C   UNL     1       3.426   6.549  19.502  0.00  0.00    +0.000 C 
ATOM     16  O   UNL     1       4.372   6.341  18.418  0.00  0.00    +0.000 OA
ATOM     17  C   UNL     1       4.700   4.932  18.376  0.00  0.00    +0.000 C 
ATOM     18  C   UNL     1       4.297   4.339  17.022  0.00  0.00    +0.000 C 
ATOM     19  O   UNL     1       4.287   2.925  17.060  0.00  0.00    +0.000 OA
ATOM     20  P   UNL     1       3.267   2.283  18.114  0.00  0.00    +0.000 P 
ATOM     21  O   UNL     1       1.813   2.484  17.845  0.00  0.00    +0.000 OA
ATOM     22  O   UNL     1       3.753   2.907  19.506  0.00  0.00    +0.000 OA
ATOM     23  C   UNL     1       4.004   4.293  19.583  0.00  0.00    +0.000 C 
ATOM     24  C   UNL     1       2.775   5.180  19.759  0.00  0.00    +0.000 C 
BRANCH  20  25
ATOM     25  O   UNL     1       3.712   0.756  18.195  0.00  0.00    +0.000 OA
ATOM     26  H   UNL     1       3.438   0.340  19.034  0.00  0.00    +0.000 HD
ENDBRANCH  20  25
BRANCH  24  27
ATOM     27  O   UNL     1       1.790   4.901  18.757  0.00  0.00    +0.000 OA
ATOM     28  H   UNL     1       1.981   4.023  18.351  0.00  0.00    +0.000 HD
ENDBRANCH  24  27
ENDBRANCH  10  15
TORSDOF 3
ENDMDL
MODEL 3
REMARK VINA RESULT:      -6.7      3.891      6.609
REMARK  Name = 
REMARK  4 active torsions:
REMARK  status: ('A' for Active; 'I' for Inactive)
REMARK    1  A    between atoms: C_1  and  N_2
REMARK    2  A    between atoms: N_10  and  C_11
REMARK    3  A    between atoms: P_16  and  O_18
REMARK    4  A    between atoms: C_21  and  O_22
REMARK                            x       y       z     vdW  Elec       q    Type
REMARK                         _______ _______ _______ _____ _____    ______ ____
ROOT
ATOM      1  C   UNL     1       0.716  10.078  19.275  0.00  0.00    +0.000 C 
ATOM      2  N   UNL     1       1.442   8.824  19.344  0.00  0.00    +0.000 N 
ATOM      3  C   UNL     1       2.456   8.608  18.422  0.00  0.00    +0.000 A 
ATOM      4  O   UNL     1       2.828   9.358  17.535  0.00  0.00    +0.000 OA
ATOM      5  N   UNL     1       3.135   7.361  18.505  0.00  0.00    +0.000 N 
ATOM      6  C   UNL     1       2.828   6.455  19.478  0.00  0.00    +0.000 A 
ATOM      7  C   UNL     1       1.804   6.670  20.349  0.00  0.00    +0.000 A 
ATOM      8  N   UNL     1       1.632   5.590  21.176  0.00  0.00    +0.000 NA
ATOM      9  C   UNL     1       2.581   4.743  20.815  0.00  0.00    +0.000 A 
ATOM     10  N   UNL     1       3.356   5.238  19.792  0.00  0.00    +0.000 N 
ATOM     11  C   UNL     1       1.053   7.893  20.297  0.00  0.00    +0.000 A 
ATOM     12  N   UNL     1       0.070   8.094  21.109  0.00  0.00    +0.000 NA
ATOM     13  H   UNL     1       3.781   7.111  17.763  0.00  0.00    +0.000 HD
ATOM     14  H   UNL     1      -0.027   7.263  21.714  0.00  0.00    +0.000 HD
ENDROOT
BRANCH  10  15
ATOM     15  C   UNL     1       4.547   4.614  19.259  0.00  0.00    +0.000 C 
ATOM     16  O   UNL     1       5.685   5.485  19.501  0.00  0.00    +0.000 OA
ATOM     17  C   UNL     1       6.622   5.307  18.413  0.00  0.00    +0.000 C 
ATOM     18  C   UNL     1       6.826   6.634  17.673  0.00  0.00    +0.000 C 
ATOM     19  O   UNL     1       7.457   6.437  16.423  0.00  0.00    +0.000 OA
ATOM     20  P   UNL     1       6.651   5.509  15.396  0.00  0.00    +0.000 P 
ATOM     21  O   UNL     1       5.358   6.048  14.882  0.00  0.00    +0.000 OA
ATOM     22  O   UNL     1       6.497   4.135  16.203  0.00  0.00    +0.000 OA
ATOM     23  C   UNL     1       6.063   4.175  17.544  0.00  0.00    +0.000 C 
ATOM     24  C   UNL     1       4.558   4.318  17.750  0.00  0.00    +0.000 C 
BRANCH  20  25
ATOM     25  O   UNL     1       7.717   5.178  14.262  0.00  0.00    +0.000 OA
ATOM     26  H   UNL     1       8.555   4.845  14.634  0.00  0.00    +0.000 HD
ENDBRANCH  20  25
BRANCH  24  27
ATOM     27  O   UNL     1       4.042   5.437  17.020  0.00  0.00    +0.000 OA
ATOM     28  H   UNL     1       3.237   5.778  17.476  0.00  0.00    +0.000 HD
ENDBRANCH  24  27
ENDBRANCH  10  15
TORSDOF 3
ENDMDL
MODEL 4
REMARK VINA RESULT:      -6.6      5.089      7.558
REMARK  Name = 
REMARK  4 active torsions:
REMARK  status: ('A' for Active; 'I' for Inactive)
REMARK    1  A    between atoms: C_1  and  N_2
REMARK    2  A    between atoms: N_10  and  C_11
REMARK    3  A    between atoms: P_16  and  O_18
REMARK    4  A    between atoms: C_21  and  O_22
REMARK                            x       y       z     vdW  Elec       q    Type
REMARK                         _______ _______ _______ _____ _____    ______ ____
ROOT
ATOM      1  C   UNL     1      -1.082  11.193  22.826  0.00  0.00    +0.000 C 
ATOM      2  N   UNL     1      -0.261  10.410  21.922  0.00  0.00    +0.000 N 
ATOM      3  C   UNL     1       0.653   9.525  22.475  0.00  0.00    +0.000 A 
ATOM      4  O   UNL     1       0.862   9.313  23.658  0.00  0.00    +0.000 OA
ATOM      5  N   UNL     1       1.456   8.786  21.563  0.00  0.00    +0.000 N 
ATOM      6  C   UNL     1       1.289   8.914  20.214  0.00  0.00    +0.000 A 
ATOM      7  C   UNL     1       0.413   9.816  19.692  0.00  0.00    +0.000 A 
ATOM      8  N   UNL     1       0.480   9.823  18.322  0.00  0.00    +0.000 NA
ATOM      9  C   UNL     1       1.377   8.897  18.030  0.00  0.00    +0.000 A 
ATOM     10  N   UNL     1       1.886   8.294  19.157  0.00  0.00    +0.000 N 
ATOM     11  C   UNL     1      -0.402  10.620  20.557  0.00  0.00    +0.000 A 
ATOM     12  N   UNL     1      -1.222  11.489  20.066  0.00  0.00    +0.000 NA
ATOM     13  H   UNL     1       2.229   8.239  21.930  0.00  0.00    +0.000 HD
ATOM     14  H   UNL     1      -1.145  11.464  19.037  0.00  0.00    +0.000 HD
ENDROOT
BRANCH  10  15
ATOM     15  C   UNL     1       2.787   7.163  19.174  0.00  0.00    +0.000 C 
ATOM     16  O   UNL     1       2.836   6.580  17.844  0.00  0.00    +0.000 OA
ATOM     17  C   UNL     1       3.050   5.156  17.988  0.00  0.00    +0.000 C 
ATOM     18  C   UNL     1       1.878   4.382  17.376  0.00  0.00    +0.000 C 
ATOM     19  O   UNL     1       1.880   3.029  17.786  0.00  0.00    +0.000 OA
ATOM     20  P   UNL     1       1.748   2.800  19.365  0.00  0.00    +0.000 P 
ATOM     21  O   UNL     1       0.453   3.194  19.991  0.00  0.00    +0.000 OA
ATOM     22  O   UNL     1       3.009   3.596  19.947  0.00  0.00    +0.000 OA
ATOM     23  C   UNL     1       3.265   4.903  19.485  0.00  0.00    +0.000 C 
ATOM     24  C   UNL     1       2.431   6.008  20.126  0.00  0.00    +0.000 C 
BRANCH  20  25
ATOM     25  O   UNL     1       2.130   1.267  19.563  0.00  0.00    +0.000 OA
ATOM     26  H   UNL     1       1.910   0.731  18.777  0.00  0.00    +0.000 HD
ENDBRANCH  20  25
BRANCH  24  27
ATOM     27  O   UNL     1       1.032   5.711  20.046  0.00  0.00    +0.000 OA
ATOM     28  H   UNL     1       0.557   6.196  20.761  0.00  0.00    +0.000 HD
ENDBRANCH  24  27
ENDBRANCH  10  15
TORSDOF 3
ENDMDL
MODEL 5
REMARK VINA RESULT:      -6.5      1.627      2.429
REMARK  Name = 
REMARK  4 active torsions:
REMARK  status: ('A' for Active; 'I' for Inactive)
REMARK    1  A    between atoms: C_1  and  N_2
REMARK    2  A    between atoms: N_10  and  C_11
REMARK    3  A    between atoms: P_16  and  O_18
REMARK    4  A    between atoms: C_21  and  O_22
REMARK                            x       y       z     vdW  Elec       q    Type
REMARK                         _______ _______ _______ _____ _____    ______ ____
ROOT
ATOM      1  C   UNL     1       7.520   4.130  11.813  0.00  0.00    +0.000 C 
ATOM      2  N   UNL     1       6.693   4.281  12.995  0.00  0.00    +0.000 N 
ATOM      3  C   UNL     1       5.412   3.748  12.965  0.00  0.00    +0.000 A 
ATOM      4  O   UNL     1       4.876   3.151  12.047  0.00  0.00    +0.000 OA
ATOM      5  N   UNL     1       4.620   3.929  14.133  0.00  0.00    +0.000 N 
ATOM      6  C   UNL     1       5.125   4.553  15.236  0.00  0.00    +0.000 A 
ATOM      7  C   UNL     1       6.371   5.102  15.231  0.00  0.00    +0.000 A 
ATOM      8  N   UNL     1       6.625   5.744  16.416  0.00  0.00    +0.000 NA
ATOM      9  C   UNL     1       5.537   5.546  17.140  0.00  0.00    +0.000 A 
ATOM     10  N   UNL     1       4.596   4.800  16.468  0.00  0.00    +0.000 N 
ATOM     11  C   UNL     1       7.210   4.988  14.072  0.00  0.00    +0.000 A 
ATOM     12  N   UNL     1       8.385   5.522  14.056  0.00  0.00    +0.000 NA
ATOM     13  H   UNL     1       3.637   3.680  14.095  0.00  0.00    +0.000 HD
ATOM     14  H   UNL     1       8.540   5.992  14.962  0.00  0.00    +0.000 HD
ENDROOT
BRANCH  10  15
ATOM     15  C   UNL     1       3.357   4.307  17.026  0.00  0.00    +0.000 C 
ATOM     16  O   UNL     1       2.768   5.344  17.858  0.00  0.00    +0.000 OA
ATOM     17  C   UNL     1       2.055   4.697  18.938  0.00  0.00    +0.000 C 
ATOM     18  C   UNL     1       2.649   5.118  20.287  0.00  0.00    +0.000 C 
ATOM     19  O   UNL     1       2.215   4.270  21.331  0.00  0.00    +0.000 OA
ATOM     20  P   UNL     1       2.618   2.729  21.163  0.00  0.00    +0.000 P 
ATOM     21  O   UNL     1       4.073   2.407  21.239  0.00  0.00    +0.000 OA
ATOM     22  O   UNL     1       1.947   2.335  19.764  0.00  0.00    +0.000 OA
ATOM     23  C   UNL     1       2.121   3.192  18.657  0.00  0.00    +0.000 C 
ATOM     24  C   UNL     1       3.447   3.056  17.916  0.00  0.00    +0.000 C 
BRANCH  20  25
ATOM     25  O   UNL     1       1.726   1.979  22.248  0.00  0.00    +0.000 OA
ATOM     26  H   UNL     1       1.700   2.461  23.096  0.00  0.00    +0.000 HD
ENDBRANCH  20  25
BRANCH  24  27
ATOM     27  O   UNL     1       4.555   3.165  18.817  0.00  0.00    +0.000 OA
ATOM     28  H   UNL     1       4.322   2.731  19.671  0.00  0.00    +0.000 HD
ENDBRANCH  24  27
ENDBRANCH  10  15
TORSDOF 3
ENDMDL
MODEL 6
REMARK VINA RESULT:      -6.5      4.699      7.336
REMARK  Name = 
REMARK  4 active torsions:
REMARK  status: ('A' for Active; 'I' for Inactive)
REMARK    1  A    between atoms: C_1  and  N_2
REMARK    2  A    between atoms: N_10  and  C_11
REMARK    3  A    between atoms: P_16  and  O_18
REMARK    4  A    between atoms: C_21  and  O_22
REMARK                            x       y       z     vdW  Elec       q    Type
REMARK                         _______ _______ _______ _____ _____    ______ ____
ROOT
ATOM      1  C   UNL     1      -0.345  10.877  21.940  0.00  0.00    +0.000 C 
ATOM      2  N   UNL     1       0.419   9.997  21.076  0.00  0.00    +0.000 N 
ATOM      3  C   UNL     1       0.877   8.800  21.609  0.00  0.00    +0.000 A 
ATOM      4  O   UNL     1       0.714   8.379  22.742  0.00  0.00    +0.000 OA
ATOM      5  N   UNL     1       1.638   7.968  20.742  0.00  0.00    +0.000 N 
ATOM      6  C   UNL     1       1.857   8.319  19.442  0.00  0.00    +0.000 A 
ATOM      7  C   UNL     1       1.432   9.515  18.950  0.00  0.00    +0.000 A 
ATOM      8  N   UNL     1       1.839   9.680  17.650  0.00  0.00    +0.000 NA
ATOM      9  C   UNL     1       2.479   8.561  17.360  0.00  0.00    +0.000 A 
ATOM     10  N   UNL     1       2.498   7.684  18.420  0.00  0.00    +0.000 N 
ATOM     11  C   UNL     1       0.689  10.419  19.782  0.00  0.00    +0.000 A 
ATOM     12  N   UNL     1       0.299  11.562  19.325  0.00  0.00    +0.000 NA
ATOM     13  H   UNL     1       2.107   7.158  21.136  0.00  0.00    +0.000 HD
ATOM     14  H   UNL     1       0.621  11.648  18.348  0.00  0.00    +0.000 HD
ENDROOT
BRANCH  10  15
ATOM     15  C   UNL     1       3.007   6.331  18.385  0.00  0.00    +0.000 C 
ATOM     16  O   UNL     1       3.792   6.091  19.585  0.00  0.00    +0.000 OA
ATOM     17  C   UNL     1       4.849   5.163  19.249  0.00  0.00    +0.000 C 
ATOM     18  C   UNL     1       6.216   5.812  19.492  0.00  0.00    +0.000 C 
ATOM     19  O   UNL     1       7.254   5.081  18.871  0.00  0.00    +0.000 OA
ATOM     20  P   UNL     1       7.134   4.953  17.279  0.00  0.00    +0.000 P 
ATOM     21  O   UNL     1       7.283   6.213  16.494  0.00  0.00    +0.000 OA
ATOM     22  O   UNL     1       5.712   4.242  17.085  0.00  0.00    +0.000 OA
ATOM     23  C   UNL     1       4.600   4.734  17.798  0.00  0.00    +0.000 C 
ATOM     24  C   UNL     1       3.923   5.965  17.205  0.00  0.00    +0.000 C 
BRANCH  20  25
ATOM     25  O   UNL     1       8.189   3.822  16.905  0.00  0.00    +0.000 OA
ATOM     26  H   UNL     1       7.812   2.926  16.990  0.00  0.00    +0.000 HD
ENDBRANCH  20  25
BRANCH  24  27
ATOM     27  O   UNL     1       4.872   7.012  16.969  0.00  0.00    +0.000 OA
ATOM     28  H   UNL     1       4.657   7.458  16.117  0.00  0.00    +0.000 HD
ENDBRANCH  24  27
ENDBRANCH  10  15
TORSDOF 3
ENDMDL
MODEL 7
REMARK VINA RESULT:      -6.4      2.159      3.819
REMARK  Name = 
REMARK  4 active torsions:
REMARK  status: ('A' for Active; 'I' for Inactive)
REMARK    1  A    between atoms: C_1  and  N_2
REMARK    2  A    between atoms: N_10  and  C_11
REMARK    3  A    between atoms: P_16  and  O_18
REMARK    4  A    between atoms: C_21  and  O_22
REMARK                            x       y       z     vdW  Elec       q    Type
REMARK                         _______ _______ _______ _____ _____    ______ ____
ROOT
ATOM      1  C   UNL     1       8.694   7.682  18.960  0.00  0.00    +0.000 C 
ATOM      2  N   UNL     1       7.732   6.678  18.545  0.00  0.00    +0.000 N 
ATOM      3  C   UNL     1       7.454   5.642  19.425  0.00  0.00    +0.000 A 
ATOM      4  O   UNL     1       7.924   5.462  20.535  0.00  0.00    +0.000 OA
ATOM      5  N   UNL     1       6.521   4.664  18.981  0.00  0.00    +0.000 N 
ATOM      6  C   UNL     1       5.903   4.779  17.769  0.00  0.00    +0.000 A 
ATOM      7  C   UNL     1       6.219   5.782  16.905  0.00  0.00    +0.000 A 
ATOM      8  N   UNL     1       5.534   5.643  15.726  0.00  0.00    +0.000 NA
ATOM      9  C   UNL     1       4.783   4.571  15.904  0.00  0.00    +0.000 A 
ATOM     10  N   UNL     1       4.956   4.018  17.152  0.00  0.00    +0.000 N 
ATOM     11  C   UNL     1       7.180   6.783  17.276  0.00  0.00    +0.000 A 
ATOM     12  N   UNL     1       7.496   7.726  16.453  0.00  0.00    +0.000 NA
ATOM     13  H   UNL     1       6.401   3.822  19.535  0.00  0.00    +0.000 HD
ATOM     14  H   UNL     1       6.961   7.589  15.581  0.00  0.00    +0.000 HD
ENDROOT
BRANCH  10  15
ATOM     15  C   UNL     1       4.193   2.919  17.700  0.00  0.00    +0.000 C 
ATOM     16  O   UNL     1       2.804   3.062  17.295  0.00  0.00    +0.000 OA
ATOM     17  C   UNL     1       1.973   2.521  18.349  0.00  0.00    +0.000 C 
ATOM     18  C   UNL     1       1.053   3.612  18.906  0.00  0.00    +0.000 C 
ATOM     19  O   UNL     1       0.478   3.225  20.138  0.00  0.00    +0.000 OA
ATOM     20  P   UNL     1       1.527   2.929  21.312  0.00  0.00    +0.000 P 
ATOM     21  O   UNL     1       2.311   4.094  21.817  0.00  0.00    +0.000 OA
ATOM     22  O   UNL     1       2.436   1.766  20.692  0.00  0.00    +0.000 OA
ATOM     23  C   UNL     1       2.930   1.910  19.380  0.00  0.00    +0.000 C 
ATOM     24  C   UNL     1       4.171   2.785  19.232  0.00  0.00    +0.000 C 
BRANCH  20  25
ATOM     25  O   UNL     1       0.658   2.194  22.425  0.00  0.00    +0.000 OA
ATOM     26  H   UNL     1      -0.284   2.141  22.178  0.00  0.00    +0.000 HD
ENDBRANCH  20  25
BRANCH  24  27
ATOM     27  O   UNL     1       3.974   4.067  19.840  0.00  0.00    +0.000 OA
ATOM     28  H   UNL     1       4.535   4.132  20.648  0.00  0.00    +0.000 HD
ENDBRANCH  24  27
ENDBRANCH  10  15
TORSDOF 3
ENDMDL
MODEL 8
REMARK VINA RESULT:      -6.3      1.409      1.681
REMARK  Name = 
REMARK  4 active torsions:
REMARK  status: ('A' for Active; 'I' for Inactive)
REMARK    1  A    between atoms: C_1  and  N_2
REMARK    2  A    between atoms: N_10  and  C_11
REMARK    3  A    between atoms: P_16  and  O_18
REMARK    4  A    between atoms: C_21  and  O_22
REMARK                            x       y       z     vdW  Elec       q    Type
REMARK                         _______ _______ _______ _____ _____    ______ ____
ROOT
ATOM      1  C   UNL     1       7.359   4.315  11.204  0.00  0.00    +0.000 C 
ATOM      2  N   UNL     1       7.005   4.277  12.610  0.00  0.00    +0.000 N 
ATOM      3  C   UNL     1       6.024   3.381  13.010  0.00  0.00    +0.000 A 
ATOM      4  O   UNL     1       5.404   2.596  12.312  0.00  0.00    +0.000 OA
ATOM      5  N   UNL     1       5.688   3.381  14.392  0.00  0.00    +0.000 N 
ATOM      6  C   UNL     1       6.339   4.193  15.275  0.00  0.00    +0.000 A 
ATOM      7  C   UNL     1       7.271   5.092  14.856  0.00  0.00    +0.000 A 
ATOM      8  N   UNL     1       7.724   5.849  15.906  0.00  0.00    +0.000 NA
ATOM      9  C   UNL     1       7.082   5.373  16.959  0.00  0.00    +0.000 A 
ATOM     10  N   UNL     1       6.236   4.339  16.627  0.00  0.00    +0.000 N 
ATOM     11  C   UNL     1       7.632   5.169  13.469  0.00  0.00    +0.000 A 
ATOM     12  N   UNL     1       8.503   6.032  13.064  0.00  0.00    +0.000 NA
ATOM     13  H   UNL     1       4.880   2.845  14.694  0.00  0.00    +0.000 HD
ATOM     14  H   UNL     1       8.821   6.580  13.880  0.00  0.00    +0.000 HD
ENDROOT
BRANCH  10  15
ATOM     15  C   UNL     1       5.490   3.527  17.562  0.00  0.00    +0.000 C 
ATOM     16  O   UNL     1       4.343   2.953  16.878  0.00  0.00    +0.000 OA
ATOM     17  C   UNL     1       3.270   2.822  17.840  0.00  0.00    +0.000 C 
ATOM     18  C   UNL     1       2.063   3.656  17.397  0.00  0.00    +0.000 C 
ATOM     19  O   UNL     1       1.136   3.826  18.452  0.00  0.00    +0.000 OA
ATOM     20  P   UNL     1       1.710   4.580  19.743  0.00  0.00    +0.000 P 
ATOM     21  O   UNL     1       2.077   6.016  19.569  0.00  0.00    +0.000 OA
ATOM     22  O   UNL     1       2.940   3.652  20.180  0.00  0.00    +0.000 OA
ATOM     23  C   UNL     1       3.857   3.226  19.197  0.00  0.00    +0.000 C 
ATOM     24  C   UNL     1       4.926   4.240  18.803  0.00  0.00    +0.000 C 
BRANCH  20  25
ATOM     25  O   UNL     1       0.608   4.318  20.861  0.00  0.00    +0.000 OA
ATOM     26  H   UNL     1       0.793   4.814  21.680  0.00  0.00    +0.000 HD
ENDBRANCH  20  25
BRANCH  24  27
ATOM     27  O   UNL     1       4.337   5.492  18.432  0.00  0.00    +0.000 OA
ATOM     28  H   UNL     1       4.107   5.996  19.247  0.00  0.00    +0.000 HD
ENDBRANCH  24  27
ENDBRANCH  10  15
TORSDOF 3
ENDMDL
MODEL 9
REMARK VINA RESULT:      -6.3      4.788      7.039
REMARK  Name = 
REMARK  4 active torsions:
REMARK  status: ('A' for Active; 'I' for Inactive)
REMARK    1  A    between atoms: C_1  and  N_2
REMARK    2  A    between atoms: N_10  and  C_11
REMARK    3  A    between atoms: P_16  and  O_18
REMARK    4  A    between atoms: C_21  and  O_22
REMARK                            x       y       z     vdW  Elec       q    Type
REMARK                         _______ _______ _______ _____ _____    ______ ____
ROOT
ATOM      1  C   UNL     1       0.816  12.888  20.044  0.00  0.00    +0.000 C 
ATOM      2  N   UNL     1       1.140  11.487  19.857  0.00  0.00    +0.000 N 
ATOM      3  C   UNL     1       1.733  11.110  18.660  0.00  0.00    +0.000 A 
ATOM      4  O   UNL     1       2.027  11.826  17.718  0.00  0.00    +0.000 OA
ATOM      5  N   UNL     1       2.020   9.726  18.500  0.00  0.00    +0.000 N 
ATOM      6  C   UNL     1       1.766   8.834  19.501  0.00  0.00    +0.000 A 
ATOM      7  C   UNL     1       1.150   9.218  20.652  0.00  0.00    +0.000 A 
ATOM      8  N   UNL     1       0.926   8.139  21.468  0.00  0.00    +0.000 NA
ATOM      9  C   UNL     1       1.444   7.115  20.812  0.00  0.00    +0.000 A 
ATOM     10  N   UNL     1       1.992   7.494  19.609  0.00  0.00    +0.000 N 
ATOM     11  C   UNL     1       0.799  10.594  20.863  0.00  0.00    +0.000 A 
ATOM     12  N   UNL     1       0.198  10.960  21.946  0.00  0.00    +0.000 NA
ATOM     13  H   UNL     1       2.320   9.396  17.588  0.00  0.00    +0.000 HD
ATOM     14  H   UNL     1       0.049  10.124  22.533  0.00  0.00    +0.000 HD
ENDROOT
BRANCH  10  15
ATOM     15  C   UNL     1       2.743   6.638  18.718  0.00  0.00    +0.000 C 
ATOM     16  O   UNL     1       1.813   5.844  17.932  0.00  0.00    +0.000 OA
ATOM     17  C   UNL     1       2.437   4.567  17.657  0.00  0.00    +0.000 C 
ATOM     18  C   UNL     1       1.598   3.433  18.256  0.00  0.00    +0.000 C 
ATOM     19  O   UNL     1       2.327   2.222  18.306  0.00  0.00    +0.000 OA
ATOM     20  P   UNL     1       3.658   2.269  19.195  0.00  0.00    +0.000 P 
ATOM     21  O   UNL     1       3.473   2.449  20.665  0.00  0.00    +0.000 OA
ATOM     22  O   UNL     1       4.505   3.441  18.508  0.00  0.00    +0.000 OA
ATOM     23  C   UNL     1       3.865   4.660  18.206  0.00  0.00    +0.000 C 
ATOM     24  C   UNL     1       3.705   5.631  19.371  0.00  0.00    +0.000 C 
BRANCH  20  25
ATOM     25  O   UNL     1       4.434   0.938  18.793  0.00  0.00    +0.000 OA
ATOM     26  H   UNL     1       3.833   0.174  18.716  0.00  0.00    +0.000 HD
ENDBRANCH  20  25
BRANCH  24  27
ATOM     27  O   UNL     1       3.075   4.995  20.490  0.00  0.00    +0.000 OA
ATOM     28  H   UNL     1       2.589   4.197  20.176  0.00  0.00    +0.000 HD
ENDBRANCH  24  27
ENDBRANCH  10  15
TORSDOF 3
ENDMDL
