MODEL 1
REMARK VINA RESULT:      -7.6      0.000      0.000
REMARK  Name = 
REMARK  8 active torsions:
REMARK  status: ('A' for Active; 'I' for Inactive)
REMARK    1  A    between atoms: C_1  and  O_2
REMARK    2  A    between atoms: O_2  and  C_3
REMARK    3  A    between atoms: C_14  and  C_15
REMARK    4  A    between atoms: C_15  and  C_16
REMARK    5  A    between atoms: C_28  and  C_29
REMARK    6  A    between atoms: C_29  and  C_30
REMARK    7  A    between atoms: C_30  and  C_31
REMARK    8  A    between atoms: C_30  and  C_32
REMARK                            x       y       z     vdW  Elec       q    Type
REMARK                         _______ _______ _______ _____ _____    ______ ____
ROOT
ATOM      1  C   UNL     1      -2.770  10.331  16.529  0.00  0.00    +0.000 A 
ATOM      2  C   UNL     1      -1.605  10.815  17.123  0.00  0.00    +0.000 A 
ATOM      3  C   UNL     1      -1.694  11.582  18.288  0.00  0.00    +0.000 A 
ATOM      4  C   UNL     1      -2.931  11.873  18.876  0.00  0.00    +0.000 A 
ATOM      5  N   UNL     1      -2.942  12.599  20.061  0.00  0.00    +0.000 NA
ATOM      6  C   UNL     1      -4.043  12.743  20.717  0.00  0.00    +0.000 A 
ATOM      7  N   UNL     1      -5.286  12.296  20.280  0.00  0.00    +0.000 N 
ATOM      8  C   UNL     1      -5.376  11.637  19.045  0.00  0.00    +0.000 A 
ATOM      9  O   UNL     1      -6.442  11.275  18.551  0.00  0.00    +0.000 OA
ATOM     10  C   UNL     1      -4.093  11.364  18.316  0.00  0.00    +0.000 A 
ATOM     11  C   UNL     1      -4.016  10.599  17.135  0.00  0.00    +0.000 A 
ATOM     12  C   UNL     1      -6.567  12.629  21.042  0.00  0.00    +0.000 C 
ATOM     13  C   UNL     1      -6.199  12.846  22.495  0.00  0.00    +0.000 C 
ATOM     14  O   UNL     1      -6.821  12.399  23.442  0.00  0.00    +0.000 OA
ATOM     15  N   UNL     1      -5.170  13.749  22.675  0.00  0.00    +0.000 N 
ATOM     16  C   UNL     1      -3.899  13.297  22.145  0.00  0.00    +0.000 C 
ATOM     17  H   UNL     1      -5.116  14.043  23.643  0.00  0.00    +0.000 HD
ENDROOT
BRANCH   1  19
ATOM     18  C   UNL     1      -3.655  10.045  14.322  0.00  0.00    +0.000 C 
ATOM     19  O   UNL     1      -2.806   9.588  15.378  0.00  0.00    +0.000 OA
ENDBRANCH   1  19
BRANCH  12  20
ATOM     20  C   UNL     1      -7.278  13.915  20.554  0.00  0.00    +0.000 C 
BRANCH  20  21
ATOM     21  C   UNL     1      -6.724  14.862  19.464  0.00  0.00    +0.000 A 
ATOM     22  C   UNL     1      -6.153  16.071  19.858  0.00  0.00    +0.000 A 
ATOM     23  N   UNL     1      -5.747  16.729  18.733  0.00  0.00    +0.000 N 
ATOM     24  C   UNL     1      -6.634  16.379  17.748  0.00  0.00    +0.000 A 
ATOM     25  C   UNL     1      -7.111  17.118  16.658  0.00  0.00    +0.000 A 
ATOM     26  C   UNL     1      -7.810  16.418  15.683  0.00  0.00    +0.000 A 
ATOM     27  C   UNL     1      -7.881  15.029  15.754  0.00  0.00    +0.000 A 
ATOM     28  C   UNL     1      -7.453  14.325  16.906  0.00  0.00    +0.000 A 
ATOM     29  C   UNL     1      -6.936  15.035  18.015  0.00  0.00    +0.000 A 
ATOM     30  H   UNL     1      -4.770  16.876  18.518  0.00  0.00    +0.000 HD
ENDBRANCH  20  21
ENDBRANCH  12  20
BRANCH  16  31
ATOM     31  C   UNL     1      -3.290  12.262  23.122  0.00  0.00    +0.000 C 
BRANCH  31  32
ATOM     32  C   UNL     1      -1.785  12.356  23.448  0.00  0.00    +0.000 C 
ATOM     33  C   UNL     1      -0.943  11.304  22.727  0.00  0.00    +0.000 C 
ATOM     34  C   UNL     1      -1.271  13.754  23.082  0.00  0.00    +0.000 C 
ENDBRANCH  31  32
ENDBRANCH  16  31
TORSDOF 5
ENDMDL
MODEL 2
REMARK VINA RESULT:      -7.4      8.020     11.014
REMARK  Name = 
REMARK  8 active torsions:
REMARK  status: ('A' for Active; 'I' for Inactive)
REMARK    1  A    between atoms: C_1  and  O_2
REMARK    2  A    between atoms: O_2  and  C_3
REMARK    3  A    between atoms: C_14  and  C_15
REMARK    4  A    between atoms: C_15  and  C_16
REMARK    5  A    between atoms: C_28  and  C_29
REMARK    6  A    between atoms: C_29  and  C_30
REMARK    7  A    between atoms: C_30  and  C_31
REMARK    8  A    between atoms: C_30  and  C_32
REMARK                            x       y       z     vdW  Elec       q    Type
REMARK                         _______ _______ _______ _____ _____    ______ ____
ROOT
ATOM      1  C   UNL     1       6.872   5.412  15.435  0.00  0.00    +0.000 A 
ATOM      2  C   UNL     1       7.537   4.512  16.265  0.00  0.00    +0.000 A 
ATOM      3  C   UNL     1       7.006   4.214  17.523  0.00  0.00    +0.000 A 
ATOM      4  C   UNL     1       5.813   4.798  17.967  0.00  0.00    +0.000 A 
ATOM      5  N   UNL     1       5.316   4.418  19.208  0.00  0.00    +0.000 NA
ATOM      6  C   UNL     1       4.142   4.805  19.576  0.00  0.00    +0.000 A 
ATOM      7  N   UNL     1       3.336   5.678  18.853  0.00  0.00    +0.000 N 
ATOM      8  C   UNL     1       3.807   6.185  17.632  0.00  0.00    +0.000 A 
ATOM      9  O   UNL     1       3.191   7.015  16.967  0.00  0.00    +0.000 OA
ATOM     10  C   UNL     1       5.122   5.664  17.133  0.00  0.00    +0.000 A 
ATOM     11  C   UNL     1       5.655   5.981  15.868  0.00  0.00    +0.000 A 
ATOM     12  C   UNL     1       2.019   6.204  19.421  0.00  0.00    +0.000 C 
ATOM     13  C   UNL     1       1.500   5.182  20.411  0.00  0.00    +0.000 C 
ATOM     14  O   UNL     1       0.343   4.812  20.482  0.00  0.00    +0.000 OA
ATOM     15  N   UNL     1       2.431   4.813  21.362  0.00  0.00    +0.000 N 
ATOM     16  C   UNL     1       3.568   4.098  20.817  0.00  0.00    +0.000 C 
ATOM     17  H   UNL     1       1.985   4.325  22.129  0.00  0.00    +0.000 HD
ENDROOT
BRANCH   1  19
ATOM     18  C   UNL     1       7.291   4.812  13.154  0.00  0.00    +0.000 C 
ATOM     19  O   UNL     1       7.309   5.795  14.193  0.00  0.00    +0.000 OA
ENDBRANCH   1  19
BRANCH  12  20
ATOM     20  C   UNL     1       2.148   7.549  20.177  0.00  0.00    +0.000 C 
BRANCH  20  21
ATOM     21  C   UNL     1       1.116   8.699  20.102  0.00  0.00    +0.000 A 
ATOM     22  C   UNL     1       1.195   9.599  19.041  0.00  0.00    +0.000 A 
ATOM     23  N   UNL     1       0.195  10.515  19.194  0.00  0.00    +0.000 N 
ATOM     24  C   UNL     1       0.017  10.660  20.547  0.00  0.00    +0.000 A 
ATOM     25  C   UNL     1      -0.358  11.785  21.293  0.00  0.00    +0.000 A 
ATOM     26  C   UNL     1      -0.703  11.571  22.620  0.00  0.00    +0.000 A 
ATOM     27  C   UNL     1      -0.801  10.267  23.101  0.00  0.00    +0.000 A 
ATOM     28  C   UNL     1      -0.345   9.162  22.342  0.00  0.00    +0.000 A 
ATOM     29  C   UNL     1       0.222   9.372  21.063  0.00  0.00    +0.000 A 
ATOM     30  H   UNL     1      -0.593  10.563  18.563  0.00  0.00    +0.000 HD
ENDBRANCH  20  21
ENDBRANCH  12  20
BRANCH  16  31
ATOM     31  C   UNL     1       3.146   2.638  20.522  0.00  0.00    +0.000 C 
BRANCH  31  32
ATOM     32  C   UNL     1       2.873   2.235  19.057  0.00  0.00    +0.000 C 
ATOM     33  C   UNL     1       3.783   1.112  18.560  0.00  0.00    +0.000 C 
ATOM     34  C   UNL     1       1.409   1.803  18.911  0.00  0.00    +0.000 C 
ENDBRANCH  31  32
ENDBRANCH  16  31
TORSDOF 5
ENDMDL
MODEL 3
REMARK VINA RESULT:      -7.1      4.288      6.026
REMARK  Name = 
REMARK  8 active torsions:
REMARK  status: ('A' for Active; 'I' for Inactive)
REMARK    1  A    between atoms: C_1  and  O_2
REMARK    2  A    between atoms: O_2  and  C_3
REMARK    3  A    between atoms: C_14  and  C_15
REMARK    4  A    between atoms: C_15  and  C_16
REMARK    5  A    between atoms: C_28  and  C_29
REMARK    6  A    between atoms: C_29  and  C_30
REMARK    7  A    between atoms: C_30  and  C_31
REMARK    8  A    between atoms: C_30  and  C_32
REMARK                            x       y       z     vdW  Elec       q    Type
REMARK                         _______ _______ _______ _____ _____    ______ ____
ROOT
ATOM      1  C   UNL     1       2.203   7.607  19.427  0.00  0.00    +0.000 A 
ATOM      2  C   UNL     1       1.971   8.113  18.150  0.00  0.00    +0.000 A 
ATOM      3  C   UNL     1       1.191   9.262  17.996  0.00  0.00    +0.000 A 
ATOM      4  C   UNL     1       0.639   9.921  19.101  0.00  0.00    +0.000 A 
ATOM      5  N   UNL     1      -0.085  11.087  18.879  0.00  0.00    +0.000 NA
ATOM      6  C   UNL     1      -0.464  11.809  19.878  0.00  0.00    +0.000 A 
ATOM      7  N   UNL     1      -0.286  11.463  21.214  0.00  0.00    +0.000 N 
ATOM      8  C   UNL     1       0.352  10.253  21.524  0.00  0.00    +0.000 A 
ATOM      9  O   UNL     1       0.485   9.838  22.674  0.00  0.00    +0.000 OA
ATOM     10  C   UNL     1       0.897   9.450  20.380  0.00  0.00    +0.000 A 
ATOM     11  C   UNL     1       1.672   8.285  20.545  0.00  0.00    +0.000 A 
ATOM     12  C   UNL     1      -0.889  12.299  22.342  0.00  0.00    +0.000 C 
ATOM     13  C   UNL     1      -1.038  13.719  21.838  0.00  0.00    +0.000 C 
ATOM     14  O   UNL     1      -0.742  14.714  22.474  0.00  0.00    +0.000 OA
ATOM     15  N   UNL     1      -1.705  13.810  20.633  0.00  0.00    +0.000 N 
ATOM     16  C   UNL     1      -0.990  13.211  19.523  0.00  0.00    +0.000 C 
ATOM     17  H   UNL     1      -1.991  14.766  20.452  0.00  0.00    +0.000 HD
ENDROOT
BRANCH   1  19
ATOM     18  C   UNL     1       2.222   5.320  20.141  0.00  0.00    +0.000 C 
ATOM     19  O   UNL     1       2.933   6.479  19.697  0.00  0.00    +0.000 OA
ENDBRANCH   1  19
BRANCH  12  20
ATOM     20  C   UNL     1      -2.291  11.827  22.798  0.00  0.00    +0.000 C 
BRANCH  20  21
ATOM     21  C   UNL     1      -3.457  12.774  23.167  0.00  0.00    +0.000 A 
ATOM     22  C   UNL     1      -3.443  13.396  24.414  0.00  0.00    +0.000 A 
ATOM     23  N   UNL     1      -4.565  14.168  24.509  0.00  0.00    +0.000 N 
ATOM     24  C   UNL     1      -5.534  13.520  23.786  0.00  0.00    +0.000 A 
ATOM     25  C   UNL     1      -6.918  13.451  23.989  0.00  0.00    +0.000 A 
ATOM     26  C   UNL     1      -7.680  12.930  22.953  0.00  0.00    +0.000 A 
ATOM     27  C   UNL     1      -7.071  12.640  21.734  0.00  0.00    +0.000 A 
ATOM     28  C   UNL     1      -5.662  12.651  21.589  0.00  0.00    +0.000 A 
ATOM     29  C   UNL     1      -4.843  12.967  22.698  0.00  0.00    +0.000 A 
ATOM     30  H   UNL     1      -4.524  15.178  24.527  0.00  0.00    +0.000 HD
ENDBRANCH  20  21
ENDBRANCH  12  20
BRANCH  16  31
ATOM     31  C   UNL     1       0.141  14.171  19.081  0.00  0.00    +0.000 C 
BRANCH  31  32
ATOM     32  C   UNL     1       1.598  13.800  19.432  0.00  0.00    +0.000 C 
ATOM     33  C   UNL     1       2.458  13.500  18.204  0.00  0.00    +0.000 C 
ATOM     34  C   UNL     1       2.237  14.942  20.232  0.00  0.00    +0.000 C 
ENDBRANCH  31  32
ENDBRANCH  16  31
TORSDOF 5
ENDMDL
MODEL 4
REMARK VINA RESULT:      -7.1      4.208      6.040
REMARK  Name = 
REMARK  8 active torsions:
REMARK  status: ('A' for Active; 'I' for Inactive)
REMARK    1  A    between atoms: C_1  and  O_2
REMARK    2  A    between atoms: O_2  and  C_3
REMARK    3  A    between atoms: C_14  and  C_15
REMARK    4  A    between atoms: C_15  and  C_16
REMARK    5  A    between atoms: C_28  and  C_29
REMARK    6  A    between atoms: C_29  and  C_30
REMARK    7  A    between atoms: C_30  and  C_31
REMARK    8  A    between atoms: C_30  and  C_32
REMARK                            x       y       z     vdW  Elec       q    Type
REMARK                         _______ _______ _______ _____ _____    ______ ____
ROOT
ATOM      1  C   UNL     1       2.208   7.584  19.298  0.00  0.00    +0.000 A 
ATOM      2  C   UNL     1       2.102   8.312  18.115  0.00  0.00    +0.000 A 
ATOM      3  C   UNL     1       1.410   9.525  18.111  0.00  0.00    +0.000 A 
ATOM      4  C   UNL     1       0.820  10.030  19.277  0.00  0.00    +0.000 A 
ATOM      5  N   UNL     1       0.189  11.267  19.214  0.00  0.00    +0.000 NA
ATOM      6  C   UNL     1      -0.217  11.838  20.296  0.00  0.00    +0.000 A 
ATOM      7  N   UNL     1      -0.160  11.262  21.561  0.00  0.00    +0.000 N 
ATOM      8  C   UNL     1       0.376   9.973  21.698  0.00  0.00    +0.000 A 
ATOM      9  O   UNL     1       0.397   9.364  22.766  0.00  0.00    +0.000 OA
ATOM     10  C   UNL     1       0.952   9.334  20.470  0.00  0.00    +0.000 A 
ATOM     11  C   UNL     1       1.639   8.103  20.481  0.00  0.00    +0.000 A 
ATOM     12  C   UNL     1      -0.792  11.940  22.776  0.00  0.00    +0.000 C 
ATOM     13  C   UNL     1      -0.814  13.432  22.515  0.00  0.00    +0.000 C 
ATOM     14  O   UNL     1      -0.504  14.282  23.329  0.00  0.00    +0.000 OA
ATOM     15  N   UNL     1      -1.383  13.772  21.304  0.00  0.00    +0.000 N 
ATOM     16  C   UNL     1      -0.626  13.314  20.155  0.00  0.00    +0.000 C 
ATOM     17  H   UNL     1      -1.594  14.763  21.272  0.00  0.00    +0.000 HD
ENDROOT
BRANCH   1  19
ATOM     18  C   UNL     1       3.535   5.877  18.267  0.00  0.00    +0.000 C 
ATOM     19  O   UNL     1       2.844   6.375  19.416  0.00  0.00    +0.000 OA
ENDBRANCH   1  19
BRANCH  12  20
ATOM     20  C   UNL     1      -2.250  11.504  23.056  0.00  0.00    +0.000 C 
BRANCH  20  21
ATOM     21  C   UNL     1      -3.432  12.480  23.263  0.00  0.00    +0.000 A 
ATOM     22  C   UNL     1      -3.668  12.982  24.542  0.00  0.00    +0.000 A 
ATOM     23  N   UNL     1      -4.753  13.807  24.475  0.00  0.00    +0.000 N 
ATOM     24  C   UNL     1      -5.565  13.288  23.498  0.00  0.00    +0.000 A 
ATOM     25  C   UNL     1      -6.961  13.283  23.392  0.00  0.00    +0.000 A 
ATOM     26  C   UNL     1      -7.497  12.906  22.168  0.00  0.00    +0.000 A 
ATOM     27  C   UNL     1      -6.648  12.695  21.085  0.00  0.00    +0.000 A 
ATOM     28  C   UNL     1      -5.242  12.637  21.247  0.00  0.00    +0.000 A 
ATOM     29  C   UNL     1      -4.674  12.798  22.532  0.00  0.00    +0.000 A 
ATOM     30  H   UNL     1      -4.679  14.806  24.605  0.00  0.00    +0.000 HD
ENDBRANCH  20  21
ENDBRANCH  12  20
BRANCH  16  31
ATOM     31  C   UNL     1       0.592  14.248  19.955  0.00  0.00    +0.000 C 
BRANCH  31  32
ATOM     32  C   UNL     1       0.584  15.219  18.756  0.00  0.00    +0.000 C 
ATOM     33  C   UNL     1      -0.435  16.349  18.899  0.00  0.00    +0.000 C 
ATOM     34  C   UNL     1       1.984  15.818  18.575  0.00  0.00    +0.000 C 
ENDBRANCH  31  32
ENDBRANCH  16  31
TORSDOF 5
ENDMDL
MODEL 5
REMARK VINA RESULT:      -7.0      4.318      6.334
REMARK  Name = 
REMARK  8 active torsions:
REMARK  status: ('A' for Active; 'I' for Inactive)
REMARK    1  A    between atoms: C_1  and  O_2
REMARK    2  A    between atoms: O_2  and  C_3
REMARK    3  A    between atoms: C_14  and  C_15
REMARK    4  A    between atoms: C_15  and  C_16
REMARK    5  A    between atoms: C_28  and  C_29
REMARK    6  A    between atoms: C_29  and  C_30
REMARK    7  A    between atoms: C_30  and  C_31
REMARK    8  A    between atoms: C_30  and  C_32
REMARK                            x       y       z     vdW  Elec       q    Type
REMARK                         _______ _______ _______ _____ _____    ______ ____
ROOT
ATOM      1  C   UNL     1       2.301   7.023  19.286  0.00  0.00    +0.000 A 
ATOM      2  C   UNL     1       2.565   7.630  18.060  0.00  0.00    +0.000 A 
ATOM      3  C   UNL     1       2.187   8.959  17.854  0.00  0.00    +0.000 A 
ATOM      4  C   UNL     1       1.550   9.699  18.858  0.00  0.00    +0.000 A 
ATOM      5  N   UNL     1       1.246  11.031  18.604  0.00  0.00    +0.000 NA
ATOM      6  C   UNL     1       0.814  11.786  19.556  0.00  0.00    +0.000 A 
ATOM      7  N   UNL     1       0.526  11.345  20.843  0.00  0.00    +0.000 N 
ATOM      8  C   UNL     1       0.714   9.990  21.156  0.00  0.00    +0.000 A 
ATOM      9  O   UNL     1       0.417   9.504  22.245  0.00  0.00    +0.000 OA
ATOM     10  C   UNL     1       1.318   9.117  20.096  0.00  0.00    +0.000 A 
ATOM     11  C   UNL     1       1.684   7.773  20.310  0.00  0.00    +0.000 A 
ATOM     12  C   UNL     1      -0.119  12.266  21.877  0.00  0.00    +0.000 C 
ATOM     13  C   UNL     1       0.253  13.692  21.524  0.00  0.00    +0.000 C 
ATOM     14  O   UNL     1       0.616  14.531  22.327  0.00  0.00    +0.000 OA
ATOM     15  N   UNL     1      -0.014  14.022  20.210  0.00  0.00    +0.000 N 
ATOM     16  C   UNL     1       0.791  13.294  19.250  0.00  0.00    +0.000 C 
ATOM     17  H   UNL     1       0.021  15.026  20.079  0.00  0.00    +0.000 HD
ENDROOT
BRANCH   1  19
ATOM     18  C   UNL     1       3.197   4.921  18.565  0.00  0.00    +0.000 C 
ATOM     19  O   UNL     1       2.608   5.722  19.593  0.00  0.00    +0.000 OA
ENDBRANCH   1  19
BRANCH  12  20
ATOM     20  C   UNL     1      -1.665  12.193  21.913  0.00  0.00    +0.000 C 
BRANCH  20  21
ATOM     21  C   UNL     1      -2.584  12.490  20.704  0.00  0.00    +0.000 A 
ATOM     22  C   UNL     1      -3.685  13.324  20.891  0.00  0.00    +0.000 A 
ATOM     23  N   UNL     1      -4.339  13.429  19.698  0.00  0.00    +0.000 N 
ATOM     24  C   UNL     1      -4.159  12.228  19.060  0.00  0.00    +0.000 A 
ATOM     25  C   UNL     1      -5.009  11.531  18.191  0.00  0.00    +0.000 A 
ATOM     26  C   UNL     1      -4.459  10.460  17.500  0.00  0.00    +0.000 A 
ATOM     27  C   UNL     1      -3.090  10.219  17.586  0.00  0.00    +0.000 A 
ATOM     28  C   UNL     1      -2.277  10.896  18.529  0.00  0.00    +0.000 A 
ATOM     29  C   UNL     1      -2.856  11.842  19.407  0.00  0.00    +0.000 A 
ATOM     30  H   UNL     1      -4.365  14.292  19.172  0.00  0.00    +0.000 HD
ENDBRANCH  20  21
ENDBRANCH  12  20
BRANCH  16  31
ATOM     31  C   UNL     1       2.211  13.911  19.219  0.00  0.00    +0.000 C 
BRANCH  31  32
ATOM     32  C   UNL     1       2.378  15.340  18.661  0.00  0.00    +0.000 C 
ATOM     33  C   UNL     1       2.674  16.381  19.740  0.00  0.00    +0.000 C 
ATOM     34  C   UNL     1       3.505  15.353  17.621  0.00  0.00    +0.000 C 
ENDBRANCH  31  32
ENDBRANCH  16  31
TORSDOF 5
ENDMDL
MODEL 6
REMARK VINA RESULT:      -7.0      4.278      8.286
REMARK  Name = 
REMARK  8 active torsions:
REMARK  status: ('A' for Active; 'I' for Inactive)
REMARK    1  A    between atoms: C_1  and  O_2
REMARK    2  A    between atoms: O_2  and  C_3
REMARK    3  A    between atoms: C_14  and  C_15
REMARK    4  A    between atoms: C_15  and  C_16
REMARK    5  A    between atoms: C_28  and  C_29
REMARK    6  A    between atoms: C_29  and  C_30
REMARK    7  A    between atoms: C_30  and  C_31
REMARK    8  A    between atoms: C_30  and  C_32
REMARK                            x       y       z     vdW  Elec       q    Type
REMARK                         _______ _______ _______ _____ _____    ______ ____
ROOT
ATOM      1  C   UNL     1      -3.809  10.605  15.657  0.00  0.00    +0.000 A 
ATOM      2  C   UNL     1      -4.696  11.246  16.519  0.00  0.00    +0.000 A 
ATOM      3  C   UNL     1      -4.306  11.518  17.832  0.00  0.00    +0.000 A 
ATOM      4  C   UNL     1      -3.036  11.163  18.303  0.00  0.00    +0.000 A 
ATOM      5  N   UNL     1      -2.695  11.508  19.605  0.00  0.00    +0.000 NA
ATOM      6  C   UNL     1      -1.484  11.349  20.018  0.00  0.00    +0.000 A 
ATOM      7  N   UNL     1      -0.470  10.753  19.274  0.00  0.00    +0.000 N 
ATOM      8  C   UNL     1      -0.756  10.288  17.982  0.00  0.00    +0.000 A 
ATOM      9  O   UNL     1       0.060   9.687  17.287  0.00  0.00    +0.000 OA
ATOM     10  C   UNL     1      -2.129  10.561  17.442  0.00  0.00    +0.000 A 
ATOM     11  C   UNL     1      -2.518  10.271  16.119  0.00  0.00    +0.000 A 
ATOM     12  C   UNL     1       0.903  10.468  19.882  0.00  0.00    +0.000 C 
ATOM     13  C   UNL     1       1.133  11.467  20.997  0.00  0.00    +0.000 C 
ATOM     14  O   UNL     1       2.174  12.070  21.182  0.00  0.00    +0.000 OA
ATOM     15  N   UNL     1       0.099  11.523  21.910  0.00  0.00    +0.000 N 
ATOM     16  C   UNL     1      -1.142  12.027  21.355  0.00  0.00    +0.000 C 
ATOM     17  H   UNL     1       0.388  12.012  22.749  0.00  0.00    +0.000 HD
ENDROOT
BRANCH   1  19
ATOM     18  C   UNL     1      -3.004   9.823  13.541  0.00  0.00    +0.000 C 
ATOM     19  O   UNL     1      -4.089  10.271  14.357  0.00  0.00    +0.000 OA
ENDBRANCH   1  19
BRANCH  12  20
ATOM     20  C   UNL     1       1.041   9.055  20.499  0.00  0.00    +0.000 C 
BRANCH  20  21
ATOM     21  C   UNL     1       1.841   7.895  19.862  0.00  0.00    +0.000 A 
ATOM     22  C   UNL     1       2.468   8.110  18.635  0.00  0.00    +0.000 A 
ATOM     23  N   UNL     1       3.098   6.953  18.279  0.00  0.00    +0.000 N 
ATOM     24  C   UNL     1       2.333   5.933  18.784  0.00  0.00    +0.000 A 
ATOM     25  C   UNL     1       2.098   4.646  18.282  0.00  0.00    +0.000 A 
ATOM     26  C   UNL     1       1.482   3.742  19.137  0.00  0.00    +0.000 A 
ATOM     27  C   UNL     1       1.262   4.096  20.466  0.00  0.00    +0.000 A 
ATOM     28  C   UNL     1       1.444   5.426  20.917  0.00  0.00    +0.000 A 
ATOM     29  C   UNL     1       1.862   6.427  20.009  0.00  0.00    +0.000 A 
ATOM     30  H   UNL     1       4.105   6.876  18.248  0.00  0.00    +0.000 HD
ENDBRANCH  20  21
ENDBRANCH  12  20
BRANCH  16  31
ATOM     31  C   UNL     1      -1.042  13.567  21.227  0.00  0.00    +0.000 C 
BRANCH  31  32
ATOM     32  C   UNL     1      -1.890  14.439  22.177  0.00  0.00    +0.000 C 
ATOM     33  C   UNL     1      -3.395  14.225  22.011  0.00  0.00    +0.000 C 
ATOM     34  C   UNL     1      -1.493  14.147  23.629  0.00  0.00    +0.000 C 
ENDBRANCH  31  32
ENDBRANCH  16  31
TORSDOF 5
ENDMDL
MODEL 7
REMARK VINA RESULT:      -7.0      5.234      8.814
REMARK  Name = 
REMARK  8 active torsions:
REMARK  status: ('A' for Active; 'I' for Inactive)
REMARK    1  A    between atoms: C_1  and  O_2
REMARK    2  A    between atoms: O_2  and  C_3
REMARK    3  A    between atoms: C_14  and  C_15
REMARK    4  A    between atoms: C_15  and  C_16
REMARK    5  A    between atoms: C_28  and  C_29
REMARK    6  A    between atoms: C_29  and  C_30
REMARK    7  A    between atoms: C_30  and  C_31
REMARK    8  A    between atoms: C_30  and  C_32
REMARK                            x       y       z     vdW  Elec       q    Type
REMARK                         _______ _______ _______ _____ _____    ______ ____
ROOT
ATOM      1  C   UNL     1       1.294  16.799  18.350  0.00  0.00    +0.000 A 
ATOM      2  C   UNL     1       0.018  17.151  18.788  0.00  0.00    +0.000 A 
ATOM      3  C   UNL     1      -0.778  16.198  19.426  0.00  0.00    +0.000 A 
ATOM      4  C   UNL     1      -0.321  14.892  19.640  0.00  0.00    +0.000 A 
ATOM      5  N   UNL     1      -1.146  14.008  20.326  0.00  0.00    +0.000 NA
ATOM      6  C   UNL     1      -0.696  12.855  20.687  0.00  0.00    +0.000 A 
ATOM      7  N   UNL     1       0.562  12.362  20.358  0.00  0.00    +0.000 N 
ATOM      8  C   UNL     1       1.423  13.154  19.584  0.00  0.00    +0.000 A 
ATOM      9  O   UNL     1       2.521  12.767  19.189  0.00  0.00    +0.000 OA
ATOM     10  C   UNL     1       0.962  14.541  19.245  0.00  0.00    +0.000 A 
ATOM     11  C   UNL     1       1.769  15.492  18.589  0.00  0.00    +0.000 A 
ATOM     12  C   UNL     1       0.972  10.930  20.699  0.00  0.00    +0.000 C 
ATOM     13  C   UNL     1       0.172  10.494  21.908  0.00  0.00    +0.000 C 
ATOM     14  O   UNL     1       0.631   9.896  22.864  0.00  0.00    +0.000 OA
ATOM     15  N   UNL     1      -1.188  10.687  21.768  0.00  0.00    +0.000 N 
ATOM     16  C   UNL     1      -1.574  12.082  21.686  0.00  0.00    +0.000 C 
ATOM     17  H   UNL     1      -1.698  10.174  22.479  0.00  0.00    +0.000 HD
ENDROOT
BRANCH   1  19
ATOM     18  C   UNL     1       2.998  17.077  16.690  0.00  0.00    +0.000 C 
ATOM     19  O   UNL     1       2.153  17.643  17.696  0.00  0.00    +0.000 OA
ENDBRANCH   1  19
BRANCH  12  20
ATOM     20  C   UNL     1       0.692   9.906  19.572  0.00  0.00    +0.000 C 
BRANCH  20  21
ATOM     21  C   UNL     1       1.681   8.806  19.121  0.00  0.00    +0.000 A 
ATOM     22  C   UNL     1       2.232   8.886  17.843  0.00  0.00    +0.000 A 
ATOM     23  N   UNL     1       3.059   7.813  17.676  0.00  0.00    +0.000 N 
ATOM     24  C   UNL     1       2.507   6.791  18.406  0.00  0.00    +0.000 A 
ATOM     25  C   UNL     1       2.505   5.411  18.168  0.00  0.00    +0.000 A 
ATOM     26  C   UNL     1       2.084   4.595  19.210  0.00  0.00    +0.000 A 
ATOM     27  C   UNL     1       1.828   5.156  20.458  0.00  0.00    +0.000 A 
ATOM     28  C   UNL     1       1.769   6.559  20.641  0.00  0.00    +0.000 A 
ATOM     29  C   UNL     1       1.976   7.422  19.540  0.00  0.00    +0.000 A 
ATOM     30  H   UNL     1       4.062   7.912  17.606  0.00  0.00    +0.000 HD
ENDBRANCH  20  21
ENDBRANCH  12  20
BRANCH  16  31
ATOM     31  C   UNL     1      -1.534  12.696  23.106  0.00  0.00    +0.000 C 
BRANCH  31  32
ATOM     32  C   UNL     1      -2.755  13.507  23.590  0.00  0.00    +0.000 C 
ATOM     33  C   UNL     1      -3.776  12.665  24.354  0.00  0.00    +0.000 C 
ATOM     34  C   UNL     1      -2.280  14.661  24.481  0.00  0.00    +0.000 C 
ENDBRANCH  31  32
ENDBRANCH  16  31
TORSDOF 5
ENDMDL
MODEL 8
REMARK VINA RESULT:      -6.9      4.114      8.147
REMARK  Name = 
REMARK  8 active torsions:
REMARK  status: ('A' for Active; 'I' for Inactive)
REMARK    1  A    between atoms: C_1  and  O_2
REMARK    2  A    between atoms: O_2  and  C_3
REMARK    3  A    between atoms: C_14  and  C_15
REMARK    4  A    between atoms: C_15  and  C_16
REMARK    5  A    between atoms: C_28  and  C_29
REMARK    6  A    between atoms: C_29  and  C_30
REMARK    7  A    between atoms: C_30  and  C_31
REMARK    8  A    between atoms: C_30  and  C_32
REMARK                            x       y       z     vdW  Elec       q    Type
REMARK                         _______ _______ _______ _____ _____    ______ ____
ROOT
ATOM      1  C   UNL     1      -3.809  10.389  15.788  0.00  0.00    +0.000 A 
ATOM      2  C   UNL     1      -4.663  11.241  16.487  0.00  0.00    +0.000 A 
ATOM      3  C   UNL     1      -4.258  11.763  17.719  0.00  0.00    +0.000 A 
ATOM      4  C   UNL     1      -3.008  11.452  18.266  0.00  0.00    +0.000 A 
ATOM      5  N   UNL     1      -2.649  12.046  19.470  0.00  0.00    +0.000 NA
ATOM      6  C   UNL     1      -1.447  11.916  19.919  0.00  0.00    +0.000 A 
ATOM      7  N   UNL     1      -0.465  11.128  19.328  0.00  0.00    +0.000 N 
ATOM      8  C   UNL     1      -0.776  10.417  18.159  0.00  0.00    +0.000 A 
ATOM      9  O   UNL     1       0.009   9.643  17.614  0.00  0.00    +0.000 OA
ATOM     10  C   UNL     1      -2.133  10.638  17.560  0.00  0.00    +0.000 A 
ATOM     11  C   UNL     1      -2.537  10.096  16.323  0.00  0.00    +0.000 A 
ATOM     12  C   UNL     1       0.892  10.909  19.995  0.00  0.00    +0.000 C 
ATOM     13  C   UNL     1       1.173  12.108  20.877  0.00  0.00    +0.000 C 
ATOM     14  O   UNL     1       2.243  12.684  20.942  0.00  0.00    +0.000 OA
ATOM     15  N   UNL     1       0.143  12.406  21.748  0.00  0.00    +0.000 N 
ATOM     16  C   UNL     1      -1.070  12.843  21.087  0.00  0.00    +0.000 C 
ATOM     17  H   UNL     1       0.457  13.045  22.469  0.00  0.00    +0.000 HD
ENDROOT
BRANCH   1  19
ATOM     18  C   UNL     1      -3.165   9.961  13.522  0.00  0.00    +0.000 C 
ATOM     19  O   UNL     1      -4.107   9.803  14.585  0.00  0.00    +0.000 OA
ENDBRANCH   1  19
BRANCH  12  20
ATOM     20  C   UNL     1       0.958   9.653  20.896  0.00  0.00    +0.000 C 
BRANCH  20  21
ATOM     21  C   UNL     1       1.359   8.242  20.405  0.00  0.00    +0.000 A 
ATOM     22  C   UNL     1       1.315   7.182  21.310  0.00  0.00    +0.000 A 
ATOM     23  N   UNL     1       1.713   6.054  20.653  0.00  0.00    +0.000 N 
ATOM     24  C   UNL     1       2.630   6.463  19.718  0.00  0.00    +0.000 A 
ATOM     25  C   UNL     1       3.762   5.807  19.217  0.00  0.00    +0.000 A 
ATOM     26  C   UNL     1       4.362   6.360  18.094  0.00  0.00    +0.000 A 
ATOM     27  C   UNL     1       3.747   7.428  17.444  0.00  0.00    +0.000 A 
ATOM     28  C   UNL     1       2.647   8.110  18.020  0.00  0.00    +0.000 A 
ATOM     29  C   UNL     1       2.149   7.705  19.280  0.00  0.00    +0.000 A 
ATOM     30  H   UNL     1       1.077   5.295  20.452  0.00  0.00    +0.000 HD
ENDBRANCH  20  21
ENDBRANCH  12  20
BRANCH  16  31
ATOM     31  C   UNL     1      -0.892  14.315  20.640  0.00  0.00    +0.000 C 
BRANCH  31  32
ATOM     32  C   UNL     1      -0.279  15.317  21.641  0.00  0.00    +0.000 C 
ATOM     33  C   UNL     1       0.689  16.305  20.991  0.00  0.00    +0.000 C 
ATOM     34  C   UNL     1      -1.403  16.092  22.339  0.00  0.00    +0.000 C 
ENDBRANCH  31  32
ENDBRANCH  16  31
TORSDOF 5
ENDMDL
MODEL 9
REMARK VINA RESULT:      -6.9      4.600      6.884
REMARK  Name = 
REMARK  8 active torsions:
REMARK  status: ('A' for Active; 'I' for Inactive)
REMARK    1  A    between atoms: C_1  and  O_2
REMARK    2  A    between atoms: O_2  and  C_3
REMARK    3  A    between atoms: C_14  and  C_15
REMARK    4  A    between atoms: C_15  and  C_16
REMARK    5  A    between atoms: C_28  and  C_29
REMARK    6  A    between atoms: C_29  and  C_30
REMARK    7  A    between atoms: C_30  and  C_31
REMARK    8  A    between atoms: C_30  and  C_32
REMARK                            x       y       z     vdW  Elec       q    Type
REMARK                         _______ _______ _______ _____ _____    ______ ____
ROOT
ATOM      1  C   UNL     1       2.480   6.465  19.350  0.00  0.00    +0.000 A 
ATOM      2  C   UNL     1       2.902   6.975  18.123  0.00  0.00    +0.000 A 
ATOM      3  C   UNL     1       2.597   8.296  17.786  0.00  0.00    +0.000 A 
ATOM      4  C   UNL     1       1.878   9.124  18.658  0.00  0.00    +0.000 A 
ATOM      5  N   UNL     1       1.653  10.442  18.280  0.00  0.00    +0.000 NA
ATOM      6  C   UNL     1       1.145  11.276  19.122  0.00  0.00    +0.000 A 
ATOM      7  N   UNL     1       0.699  10.936  20.395  0.00  0.00    +0.000 N 
ATOM      8  C   UNL     1       0.802   9.603  20.820  0.00  0.00    +0.000 A 
ATOM      9  O   UNL     1       0.367   9.205  21.899  0.00  0.00    +0.000 OA
ATOM     10  C   UNL     1       1.488   8.639  19.898  0.00  0.00    +0.000 A 
ATOM     11  C   UNL     1       1.780   7.304  20.243  0.00  0.00    +0.000 A 
ATOM     12  C   UNL     1      -0.024  11.947  21.284  0.00  0.00    +0.000 C 
ATOM     13  C   UNL     1       0.436  13.333  20.879  0.00  0.00    +0.000 C 
ATOM     14  O   UNL     1       0.738  14.217  21.659  0.00  0.00    +0.000 OA
ATOM     15  N   UNL     1       0.330  13.575  19.524  0.00  0.00    +0.000 N 
ATOM     16  C   UNL     1       1.211  12.757  18.714  0.00  0.00    +0.000 C 
ATOM     17  H   UNL     1       0.416  14.566  19.330  0.00  0.00    +0.000 HD
ENDROOT
BRANCH   1  19
ATOM     18  C   UNL     1       3.991   4.614  19.523  0.00  0.00    +0.000 C 
ATOM     19  O   UNL     1       2.703   5.182  19.778  0.00  0.00    +0.000 OA
ENDBRANCH   1  19
BRANCH  12  20
ATOM     20  C   UNL     1      -1.566  11.921  21.147  0.00  0.00    +0.000 C 
BRANCH  20  21
ATOM     21  C   UNL     1      -2.542  12.660  22.092  0.00  0.00    +0.000 A 
ATOM     22  C   UNL     1      -2.134  12.927  23.399  0.00  0.00    +0.000 A 
ATOM     23  N   UNL     1      -3.156  13.573  24.032  0.00  0.00    +0.000 N 
ATOM     24  C   UNL     1      -4.313  13.084  23.484  0.00  0.00    +0.000 A 
ATOM     25  C   UNL     1      -5.571  12.877  24.065  0.00  0.00    +0.000 A 
ATOM     26  C   UNL     1      -6.624  12.605  23.203  0.00  0.00    +0.000 A 
ATOM     27  C   UNL     1      -6.423  12.690  21.827  0.00  0.00    +0.000 A 
ATOM     28  C   UNL     1      -5.125  12.827  21.276  0.00  0.00    +0.000 A 
ATOM     29  C   UNL     1      -4.000  12.885  22.131  0.00  0.00    +0.000 A 
ATOM     30  H   UNL     1      -3.088  14.542  24.312  0.00  0.00    +0.000 HD
ENDBRANCH  20  21
ENDBRANCH  12  20
BRANCH  16  31
ATOM     31  C   UNL     1       2.646  13.331  18.803  0.00  0.00    +0.000 C 
BRANCH  31  32
ATOM     32  C   UNL     1       2.824  14.863  18.820  0.00  0.00    +0.000 C 
ATOM     33  C   UNL     1       3.654  15.363  20.003  0.00  0.00    +0.000 C 
ATOM     34  C   UNL     1       3.485  15.315  17.511  0.00  0.00    +0.000 C 
ENDBRANCH  31  32
ENDBRANCH  16  31
TORSDOF 5
ENDMDL
