MODEL 1
REMARK VINA RESULT:      -7.3      0.000      0.000
REMARK  Name = 
REMARK  7 active torsions:
REMARK  status: ('A' for Active; 'I' for Inactive)
REMARK    1  A    between atoms: C_1  and  N_2
REMARK    2  A    between atoms: C_8  and  C_9
REMARK    3  A    between atoms: C_9  and  C_10
REMARK    4  A    between atoms: C_10  and  C_11
REMARK    5  A    between atoms: C_11  and  C_12
REMARK    6  A    between atoms: N_18  and  C_19
REMARK    7  A    between atoms: N_20  and  C_21
REMARK                            x       y       z     vdW  Elec       q    Type
REMARK                         _______ _______ _______ _____ _____    ______ ____
ROOT
ATOM      1  C   UNL     1       8.029   6.815  18.274  0.00  0.00    +0.000 C 
ATOM      2  N   UNL     1       7.051   5.815  17.895  0.00  0.00    +0.000 N 
ATOM      3  C   UNL     1       6.398   5.115  18.914  0.00  0.00    +0.000 A 
ATOM      4  O   UNL     1       6.590   5.300  20.112  0.00  0.00    +0.000 OA
ATOM      5  C   UNL     1       5.474   4.152  18.418  0.00  0.00    +0.000 A 
ATOM      6  C   UNL     1       5.251   3.947  17.093  0.00  0.00    +0.000 A 
ATOM      7  N   UNL     1       4.331   2.970  16.885  0.00  0.00    +0.000 NA
ATOM      8  C   UNL     1       3.970   2.557  18.093  0.00  0.00    +0.000 A 
ATOM      9  N   UNL     1       4.645   3.275  19.065  0.00  0.00    +0.000 N 
ATOM     10  C   UNL     1       4.531   3.185  20.502  0.00  0.00    +0.000 C 
ATOM     11  N   UNL     1       5.903   4.678  16.129  0.00  0.00    +0.000 N 
ATOM     12  C   UNL     1       5.651   4.475  14.716  0.00  0.00    +0.000 C 
ATOM     13  C   UNL     1       6.836   5.640  16.513  0.00  0.00    +0.000 A 
ATOM     14  O   UNL     1       7.449   6.314  15.680  0.00  0.00    +0.000 OA
ENDROOT
BRANCH   8  15
ATOM     15  C   UNL     1       2.943   1.496  18.344  0.00  0.00    +0.000 C 
BRANCH  15  16
ATOM     16  C   UNL     1       1.668   2.039  18.996  0.00  0.00    +0.000 C 
BRANCH  16  17
ATOM     17  C   UNL     1       1.019   3.194  18.223  0.00  0.00    +0.000 C 
BRANCH  17  18
ATOM     18  C   UNL     1       1.454   4.528  18.785  0.00  0.00    +0.000 A 
ATOM     19  C   UNL     1       2.014   5.498  17.943  0.00  0.00    +0.000 A 
ATOM     20  C   UNL     1       2.477   6.707  18.462  0.00  0.00    +0.000 A 
ATOM     21  C   UNL     1       2.388   6.960  19.830  0.00  0.00    +0.000 A 
ATOM     22  C   UNL     1       1.829   6.004  20.677  0.00  0.00    +0.000 A 
ATOM     23  C   UNL     1       1.364   4.794  20.159  0.00  0.00    +0.000 A 
ENDBRANCH  17  18
ENDBRANCH  16  17
ENDBRANCH  15  16
ENDBRANCH   8  15
TORSDOF 4
ENDMDL
MODEL 2
REMARK VINA RESULT:      -7.3      0.383      1.067
REMARK  Name = 
REMARK  7 active torsions:
REMARK  status: ('A' for Active; 'I' for Inactive)
REMARK    1  A    between atoms: C_1  and  N_2
REMARK    2  A    between atoms: C_8  and  C_9
REMARK    3  A    between atoms: C_9  and  C_10
REMARK    4  A    between atoms: C_10  and  C_11
REMARK    5  A    between atoms: C_11  and  C_12
REMARK    6  A    between atoms: N_18  and  C_19
REMARK    7  A    between atoms: N_20  and  C_21
REMARK                            x       y       z     vdW  Elec       q    Type
REMARK                         _______ _______ _______ _____ _____    ______ ____
ROOT
ATOM      1  C   UNL     1       8.211   6.897  18.600  0.00  0.00    +0.000 C 
ATOM      2  N   UNL     1       7.221   5.968  18.092  0.00  0.00    +0.000 N 
ATOM      3  C   UNL     1       6.521   5.184  19.014  0.00  0.00    +0.000 A 
ATOM      4  O   UNL     1       6.682   5.239  20.229  0.00  0.00    +0.000 OA
ATOM      5  C   UNL     1       5.590   4.304  18.395  0.00  0.00    +0.000 A 
ATOM      6  C   UNL     1       5.402   4.243  17.050  0.00  0.00    +0.000 A 
ATOM      7  N   UNL     1       4.465   3.319  16.717  0.00  0.00    +0.000 NA
ATOM      8  C   UNL     1       4.058   2.793  17.864  0.00  0.00    +0.000 A 
ATOM      9  N   UNL     1       4.720   3.387  18.925  0.00  0.00    +0.000 N 
ATOM     10  C   UNL     1       4.560   3.153  20.340  0.00  0.00    +0.000 C 
ATOM     11  N   UNL     1       6.100   5.051  16.186  0.00  0.00    +0.000 N 
ATOM     12  C   UNL     1       5.886   5.004  14.753  0.00  0.00    +0.000 C 
ATOM     13  C   UNL     1       7.044   5.943  16.694  0.00  0.00    +0.000 A 
ATOM     14  O   UNL     1       7.698   6.683  15.953  0.00  0.00    +0.000 OA
ENDROOT
BRANCH   8  15
ATOM     15  C   UNL     1       2.998   1.740  17.975  0.00  0.00    +0.000 C 
BRANCH  15  16
ATOM     16  C   UNL     1       1.667   2.283  18.504  0.00  0.00    +0.000 C 
BRANCH  16  17
ATOM     17  C   UNL     1       1.214   3.583  17.828  0.00  0.00    +0.000 C 
BRANCH  17  18
ATOM     18  C   UNL     1       1.612   4.785  18.655  0.00  0.00    +0.000 A 
ATOM     19  C   UNL     1       1.345   4.812  20.030  0.00  0.00    +0.000 A 
ATOM     20  C   UNL     1       1.650   5.942  20.791  0.00  0.00    +0.000 A 
ATOM     21  C   UNL     1       2.224   7.058  20.183  0.00  0.00    +0.000 A 
ATOM     22  C   UNL     1       2.499   7.040  18.817  0.00  0.00    +0.000 A 
ATOM     23  C   UNL     1       2.195   5.910  18.055  0.00  0.00    +0.000 A 
ENDBRANCH  17  18
ENDBRANCH  16  17
ENDBRANCH  15  16
ENDBRANCH   8  15
TORSDOF 4
ENDMDL
MODEL 3
REMARK VINA RESULT:      -7.0      4.524      5.940
REMARK  Name = 
REMARK  7 active torsions:
REMARK  status: ('A' for Active; 'I' for Inactive)
REMARK    1  A    between atoms: C_1  and  N_2
REMARK    2  A    between atoms: C_8  and  C_9
REMARK    3  A    between atoms: C_9  and  C_10
REMARK    4  A    between atoms: C_10  and  C_11
REMARK    5  A    between atoms: C_11  and  C_12
REMARK    6  A    between atoms: N_18  and  C_19
REMARK    7  A    between atoms: N_20  and  C_21
REMARK                            x       y       z     vdW  Elec       q    Type
REMARK                         _______ _______ _______ _____ _____    ______ ____
ROOT
ATOM      1  C   UNL     1       4.492   3.026  19.497  0.00  0.00    +0.000 C 
ATOM      2  N   UNL     1       4.147   4.335  18.979  0.00  0.00    +0.000 N 
ATOM      3  C   UNL     1       3.249   5.117  19.711  0.00  0.00    +0.000 A 
ATOM      4  O   UNL     1       2.740   4.772  20.772  0.00  0.00    +0.000 OA
ATOM      5  C   UNL     1       2.979   6.371  19.094  0.00  0.00    +0.000 A 
ATOM      6  C   UNL     1       3.545   6.762  17.922  0.00  0.00    +0.000 A 
ATOM      7  N   UNL     1       3.117   7.995  17.546  0.00  0.00    +0.000 NA
ATOM      8  C   UNL     1       2.274   8.384  18.493  0.00  0.00    +0.000 A 
ATOM      9  N   UNL     1       2.174   7.413  19.474  0.00  0.00    +0.000 N 
ATOM     10  C   UNL     1       1.408   7.434  20.697  0.00  0.00    +0.000 C 
ATOM     11  N   UNL     1       4.440   5.965  17.251  0.00  0.00    +0.000 N 
ATOM     12  C   UNL     1       5.062   6.389  16.011  0.00  0.00    +0.000 C 
ATOM     13  C   UNL     1       4.764   4.712  17.769  0.00  0.00    +0.000 A 
ATOM     14  O   UNL     1       5.559   3.962  17.195  0.00  0.00    +0.000 OA
ENDROOT
BRANCH   8  15
ATOM     15  C   UNL     1       1.576   9.710  18.501  0.00  0.00    +0.000 C 
BRANCH  15  16
ATOM     16  C   UNL     1       0.111   9.618  18.063  0.00  0.00    +0.000 C 
BRANCH  16  17
ATOM     17  C   UNL     1      -0.791  10.690  18.686  0.00  0.00    +0.000 C 
BRANCH  17  18
ATOM     18  C   UNL     1      -2.059  10.859  17.880  0.00  0.00    +0.000 A 
ATOM     19  C   UNL     1      -3.150  11.552  18.421  0.00  0.00    +0.000 A 
ATOM     20  C   UNL     1      -4.347  11.659  17.712  0.00  0.00    +0.000 A 
ATOM     21  C   UNL     1      -4.467  11.073  16.453  0.00  0.00    +0.000 A 
ATOM     22  C   UNL     1      -3.386  10.385  15.901  0.00  0.00    +0.000 A 
ATOM     23  C   UNL     1      -2.187  10.278  16.610  0.00  0.00    +0.000 A 
ENDBRANCH  17  18
ENDBRANCH  16  17
ENDBRANCH  15  16
ENDBRANCH   8  15
TORSDOF 4
ENDMDL
MODEL 4
REMARK VINA RESULT:      -6.9      4.208      5.849
REMARK  Name = 
REMARK  7 active torsions:
REMARK  status: ('A' for Active; 'I' for Inactive)
REMARK    1  A    between atoms: C_1  and  N_2
REMARK    2  A    between atoms: C_8  and  C_9
REMARK    3  A    between atoms: C_9  and  C_10
REMARK    4  A    between atoms: C_10  and  C_11
REMARK    5  A    between atoms: C_11  and  C_12
REMARK    6  A    between atoms: N_18  and  C_19
REMARK    7  A    between atoms: N_20  and  C_21
REMARK                            x       y       z     vdW  Elec       q    Type
REMARK                         _______ _______ _______ _____ _____    ______ ____
ROOT
ATOM      1  C   UNL     1       3.136   2.422  20.688  0.00  0.00    +0.000 C 
ATOM      2  N   UNL     1       3.164   3.634  19.893  0.00  0.00    +0.000 N 
ATOM      3  C   UNL     1       2.561   4.780  20.420  0.00  0.00    +0.000 A 
ATOM      4  O   UNL     1       2.018   4.831  21.519  0.00  0.00    +0.000 OA
ATOM      5  C   UNL     1       2.640   5.898  19.542  0.00  0.00    +0.000 A 
ATOM      6  C   UNL     1       3.246   5.850  18.327  0.00  0.00    +0.000 A 
ATOM      7  N   UNL     1       3.177   7.045  17.686  0.00  0.00    +0.000 NA
ATOM      8  C   UNL     1       2.522   7.854  18.508  0.00  0.00    +0.000 A 
ATOM      9  N   UNL     1       2.187   7.185  19.672  0.00  0.00    +0.000 N 
ATOM     10  C   UNL     1       1.511   7.687  20.844  0.00  0.00    +0.000 C 
ATOM     11  N   UNL     1       3.844   4.703  17.863  0.00  0.00    +0.000 N 
ATOM     12  C   UNL     1       4.509   4.656  16.575  0.00  0.00    +0.000 C 
ATOM     13  C   UNL     1       3.812   3.550  18.644  0.00  0.00    +0.000 A 
ATOM     14  O   UNL     1       4.332   2.497  18.263  0.00  0.00    +0.000 OA
ENDROOT
BRANCH   8  15
ATOM     15  C   UNL     1       2.239   9.296  18.215  0.00  0.00    +0.000 C 
BRANCH  15  16
ATOM     16  C   UNL     1       0.797   9.543  17.762  0.00  0.00    +0.000 C 
BRANCH  16  17
ATOM     17  C   UNL     1      -0.002  10.455  18.701  0.00  0.00    +0.000 C 
BRANCH  17  18
ATOM     18  C   UNL     1      -1.430  10.596  18.225  0.00  0.00    +0.000 A 
ATOM     19  C   UNL     1      -1.853   9.936  17.064  0.00  0.00    +0.000 A 
ATOM     20  C   UNL     1      -3.151  10.110  16.581  0.00  0.00    +0.000 A 
ATOM     21  C   UNL     1      -4.040  10.947  17.253  0.00  0.00    +0.000 A 
ATOM     22  C   UNL     1      -3.632  11.605  18.413  0.00  0.00    +0.000 A 
ATOM     23  C   UNL     1      -2.333  11.431  18.898  0.00  0.00    +0.000 A 
ENDBRANCH  17  18
ENDBRANCH  16  17
ENDBRANCH  15  16
ENDBRANCH   8  15
TORSDOF 4
ENDMDL
MODEL 5
REMARK VINA RESULT:      -6.8      3.859      5.951
REMARK  Name = 
REMARK  7 active torsions:
REMARK  status: ('A' for Active; 'I' for Inactive)
REMARK    1  A    between atoms: C_1  and  N_2
REMARK    2  A    between atoms: C_8  and  C_9
REMARK    3  A    between atoms: C_9  and  C_10
REMARK    4  A    between atoms: C_10  and  C_11
REMARK    5  A    between atoms: C_11  and  C_12
REMARK    6  A    between atoms: N_18  and  C_19
REMARK    7  A    between atoms: N_20  and  C_21
REMARK                            x       y       z     vdW  Elec       q    Type
REMARK                         _______ _______ _______ _____ _____    ______ ____
ROOT
ATOM      1  C   UNL     1       3.968   1.262  18.204  0.00  0.00    +0.000 C 
ATOM      2  N   UNL     1       3.466   2.604  18.414  0.00  0.00    +0.000 N 
ATOM      3  C   UNL     1       4.045   3.646  17.683  0.00  0.00    +0.000 A 
ATOM      4  O   UNL     1       4.946   3.496  16.863  0.00  0.00    +0.000 OA
ATOM      5  C   UNL     1       3.478   4.916  17.987  0.00  0.00    +0.000 A 
ATOM      6  C   UNL     1       2.476   5.088  18.888  0.00  0.00    +0.000 A 
ATOM      7  N   UNL     1       2.121   6.394  18.999  0.00  0.00    +0.000 NA
ATOM      8  C   UNL     1       2.908   7.050  18.157  0.00  0.00    +0.000 A 
ATOM      9  N   UNL     1       3.750   6.168  17.503  0.00  0.00    +0.000 N 
ATOM     10  C   UNL     1       4.733   6.441  16.482  0.00  0.00    +0.000 C 
ATOM     11  N   UNL     1       1.924   4.028  19.567  0.00  0.00    +0.000 N 
ATOM     12  C   UNL     1       0.841   4.206  20.513  0.00  0.00    +0.000 C 
ATOM     13  C   UNL     1       2.417   2.742  19.346  0.00  0.00    +0.000 A 
ATOM     14  O   UNL     1       1.955   1.763  19.939  0.00  0.00    +0.000 OA
ENDROOT
BRANCH   8  15
ATOM     15  C   UNL     1       2.844   8.530  17.931  0.00  0.00    +0.000 C 
BRANCH  15  16
ATOM     16  C   UNL     1       1.413   9.048  17.763  0.00  0.00    +0.000 C 
BRANCH  16  17
ATOM     17  C   UNL     1       1.077  10.245  18.661  0.00  0.00    +0.000 C 
BRANCH  17  18
ATOM     18  C   UNL     1      -0.371  10.648  18.499  0.00  0.00    +0.000 A 
ATOM     19  C   UNL     1      -0.930  11.619  19.341  0.00  0.00    +0.000 A 
ATOM     20  C   UNL     1      -2.281  11.953  19.242  0.00  0.00    +0.000 A 
ATOM     21  C   UNL     1      -3.090  11.316  18.302  0.00  0.00    +0.000 A 
ATOM     22  C   UNL     1      -2.545  10.352  17.456  0.00  0.00    +0.000 A 
ATOM     23  C   UNL     1      -1.192  10.018  17.553  0.00  0.00    +0.000 A 
ENDBRANCH  17  18
ENDBRANCH  16  17
ENDBRANCH  15  16
ENDBRANCH   8  15
TORSDOF 4
ENDMDL
MODEL 6
REMARK VINA RESULT:      -6.8      6.913      9.013
REMARK  Name = 
REMARK  7 active torsions:
REMARK  status: ('A' for Active; 'I' for Inactive)
REMARK    1  A    between atoms: C_1  and  N_2
REMARK    2  A    between atoms: C_8  and  C_9
REMARK    3  A    between atoms: C_9  and  C_10
REMARK    4  A    between atoms: C_10  and  C_11
REMARK    5  A    between atoms: C_11  and  C_12
REMARK    6  A    between atoms: N_18  and  C_19
REMARK    7  A    between atoms: N_20  and  C_21
REMARK                            x       y       z     vdW  Elec       q    Type
REMARK                         _______ _______ _______ _____ _____    ______ ____
ROOT
ATOM      1  C   UNL     1      -4.272  13.361  20.413  0.00  0.00    +0.000 C 
ATOM      2  N   UNL     1      -3.307  12.491  19.771  0.00  0.00    +0.000 N 
ATOM      3  C   UNL     1      -2.006  12.461  20.281  0.00  0.00    +0.000 A 
ATOM      4  O   UNL     1      -1.628  13.116  21.247  0.00  0.00    +0.000 OA
ATOM      5  C   UNL     1      -1.150  11.583  19.558  0.00  0.00    +0.000 A 
ATOM      6  C   UNL     1      -1.564  10.849  18.492  0.00  0.00    +0.000 A 
ATOM      7  N   UNL     1      -0.555  10.100  17.977  0.00  0.00    +0.000 NA
ATOM      8  C   UNL     1       0.505  10.364  18.729  0.00  0.00    +0.000 A 
ATOM      9  N   UNL     1       0.172  11.265  19.726  0.00  0.00    +0.000 N 
ATOM     10  C   UNL     1       1.000  11.794  20.783  0.00  0.00    +0.000 C 
ATOM     11  N   UNL     1      -2.861  10.897  18.042  0.00  0.00    +0.000 N 
ATOM     12  C   UNL     1      -3.310  10.099  16.917  0.00  0.00    +0.000 C 
ATOM     13  C   UNL     1      -3.776  11.735  18.677  0.00  0.00    +0.000 A 
ATOM     14  O   UNL     1      -4.949  11.814  18.301  0.00  0.00    +0.000 OA
ENDROOT
BRANCH   8  15
ATOM     15  C   UNL     1       1.849   9.730  18.537  0.00  0.00    +0.000 C 
BRANCH  15  16
ATOM     16  C   UNL     1       1.794   8.458  17.685  0.00  0.00    +0.000 C 
BRANCH  16  17
ATOM     17  C   UNL     1       2.926   7.466  17.978  0.00  0.00    +0.000 C 
BRANCH  17  18
ATOM     18  C   UNL     1       2.392   6.229  18.662  0.00  0.00    +0.000 A 
ATOM     19  C   UNL     1       2.057   5.096  17.908  0.00  0.00    +0.000 A 
ATOM     20  C   UNL     1       1.503   3.972  18.523  0.00  0.00    +0.000 A 
ATOM     21  C   UNL     1       1.277   3.968  19.898  0.00  0.00    +0.000 A 
ATOM     22  C   UNL     1       1.611   5.087  20.659  0.00  0.00    +0.000 A 
ATOM     23  C   UNL     1       2.166   6.213  20.046  0.00  0.00    +0.000 A 
ENDBRANCH  17  18
ENDBRANCH  16  17
ENDBRANCH  15  16
ENDBRANCH   8  15
TORSDOF 4
ENDMDL
MODEL 7
REMARK VINA RESULT:      -6.8      5.531      7.935
REMARK  Name = 
REMARK  7 active torsions:
REMARK  status: ('A' for Active; 'I' for Inactive)
REMARK    1  A    between atoms: C_1  and  N_2
REMARK    2  A    between atoms: C_8  and  C_9
REMARK    3  A    between atoms: C_9  and  C_10
REMARK    4  A    between atoms: C_10  and  C_11
REMARK    5  A    between atoms: C_11  and  C_12
REMARK    6  A    between atoms: N_18  and  C_19
REMARK    7  A    between atoms: N_20  and  C_21
REMARK                            x       y       z     vdW  Elec       q    Type
REMARK                         _______ _______ _______ _____ _____    ______ ____
ROOT
ATOM      1  C   UNL     1      -0.391  13.587  22.358  0.00  0.00    +0.000 C 
ATOM      2  N   UNL     1      -0.071  12.332  21.708  0.00  0.00    +0.000 N 
ATOM      3  C   UNL     1       0.623  12.378  20.495  0.00  0.00    +0.000 A 
ATOM      4  O   UNL     1       0.990  13.413  19.949  0.00  0.00    +0.000 OA
ATOM      5  C   UNL     1       0.864  11.086  19.948  0.00  0.00    +0.000 A 
ATOM      6  C   UNL     1       0.466   9.935  20.551  0.00  0.00    +0.000 A 
ATOM      7  N   UNL     1       0.811   8.843  19.822  0.00  0.00    +0.000 NA
ATOM      8  C   UNL     1       1.435   9.311  18.750  0.00  0.00    +0.000 A 
ATOM      9  N   UNL     1       1.500  10.693  18.800  0.00  0.00    +0.000 N 
ATOM     10  C   UNL     1       2.120  11.606  17.870  0.00  0.00    +0.000 C 
ATOM     11  N   UNL     1      -0.195   9.942  21.755  0.00  0.00    +0.000 N 
ATOM     12  C   UNL     1      -0.602   8.715  22.411  0.00  0.00    +0.000 C 
ATOM     13  C   UNL     1      -0.488  11.159  22.369  0.00  0.00    +0.000 A 
ATOM     14  O   UNL     1      -1.086  11.211  23.448  0.00  0.00    +0.000 OA
ENDROOT
BRANCH   8  15
ATOM     15  C   UNL     1       2.018   8.447  17.675  0.00  0.00    +0.000 C 
BRANCH  15  16
ATOM     16  C   UNL     1       3.351   7.808  18.077  0.00  0.00    +0.000 C 
BRANCH  16  17
ATOM     17  C   UNL     1       3.504   6.352  17.621  0.00  0.00    +0.000 C 
BRANCH  17  18
ATOM     18  C   UNL     1       2.639   5.435  18.456  0.00  0.00    +0.000 A 
ATOM     19  C   UNL     1       1.855   4.452  17.838  0.00  0.00    +0.000 A 
ATOM     20  C   UNL     1       1.004   3.643  18.593  0.00  0.00    +0.000 A 
ATOM     21  C   UNL     1       0.927   3.810  19.975  0.00  0.00    +0.000 A 
ATOM     22  C   UNL     1       1.706   4.781  20.602  0.00  0.00    +0.000 A 
ATOM     23  C   UNL     1       2.559   5.591  19.847  0.00  0.00    +0.000 A 
ENDBRANCH  17  18
ENDBRANCH  16  17
ENDBRANCH  15  16
ENDBRANCH   8  15
TORSDOF 4
ENDMDL
MODEL 8
REMARK VINA RESULT:      -6.8      1.373      2.751
REMARK  Name = 
REMARK  7 active torsions:
REMARK  status: ('A' for Active; 'I' for Inactive)
REMARK    1  A    between atoms: C_1  and  N_2
REMARK    2  A    between atoms: C_8  and  C_9
REMARK    3  A    between atoms: C_9  and  C_10
REMARK    4  A    between atoms: C_10  and  C_11
REMARK    5  A    between atoms: C_11  and  C_12
REMARK    6  A    between atoms: N_18  and  C_19
REMARK    7  A    between atoms: N_20  and  C_21
REMARK                            x       y       z     vdW  Elec       q    Type
REMARK                         _______ _______ _______ _____ _____    ______ ____
ROOT
ATOM      1  C   UNL     1       6.669   5.441  14.524  0.00  0.00    +0.000 C 
ATOM      2  N   UNL     1       6.325   5.076  15.883  0.00  0.00    +0.000 N 
ATOM      3  C   UNL     1       5.280   4.168  16.076  0.00  0.00    +0.000 A 
ATOM      4  O   UNL     1       4.640   3.649  15.167  0.00  0.00    +0.000 OA
ATOM      5  C   UNL     1       5.027   3.901  17.451  0.00  0.00    +0.000 A 
ATOM      6  C   UNL     1       5.736   4.467  18.463  0.00  0.00    +0.000 A 
ATOM      7  N   UNL     1       5.293   4.054  19.678  0.00  0.00    +0.000 NA
ATOM      8  C   UNL     1       4.295   3.217  19.428  0.00  0.00    +0.000 A 
ATOM      9  N   UNL     1       4.111   3.086  18.063  0.00  0.00    +0.000 N 
ATOM     10  C   UNL     1       3.171   2.254  17.350  0.00  0.00    +0.000 C 
ATOM     11  N   UNL     1       6.770   5.339  18.220  0.00  0.00    +0.000 N 
ATOM     12  C   UNL     1       7.542   5.928  19.297  0.00  0.00    +0.000 C 
ATOM     13  C   UNL     1       7.091   5.673  16.905  0.00  0.00    +0.000 A 
ATOM     14  O   UNL     1       8.008   6.456  16.643  0.00  0.00    +0.000 OA
ENDROOT
BRANCH   8  15
ATOM     15  C   UNL     1       3.522   2.493  20.488  0.00  0.00    +0.000 C 
BRANCH  15  16
ATOM     16  C   UNL     1       2.425   3.354  21.122  0.00  0.00    +0.000 C 
BRANCH  16  17
ATOM     17  C   UNL     1       1.409   3.906  20.115  0.00  0.00    +0.000 C 
BRANCH  17  18
ATOM     18  C   UNL     1       1.716   5.348  19.780  0.00  0.00    +0.000 A 
ATOM     19  C   UNL     1       1.609   6.338  20.766  0.00  0.00    +0.000 A 
ATOM     20  C   UNL     1       1.828   7.680  20.452  0.00  0.00    +0.000 A 
ATOM     21  C   UNL     1       2.153   8.048  19.148  0.00  0.00    +0.000 A 
ATOM     22  C   UNL     1       2.267   7.071  18.159  0.00  0.00    +0.000 A 
ATOM     23  C   UNL     1       2.050   5.727  18.472  0.00  0.00    +0.000 A 
ENDBRANCH  17  18
ENDBRANCH  16  17
ENDBRANCH  15  16
ENDBRANCH   8  15
TORSDOF 4
ENDMDL
MODEL 9
REMARK VINA RESULT:      -6.8      2.887      6.734
REMARK  Name = 
REMARK  7 active torsions:
REMARK  status: ('A' for Active; 'I' for Inactive)
REMARK    1  A    between atoms: C_1  and  N_2
REMARK    2  A    between atoms: C_8  and  C_9
REMARK    3  A    between atoms: C_9  and  C_10
REMARK    4  A    between atoms: C_10  and  C_11
REMARK    5  A    between atoms: C_11  and  C_12
REMARK    6  A    between atoms: N_18  and  C_19
REMARK    7  A    between atoms: N_20  and  C_21
REMARK                            x       y       z     vdW  Elec       q    Type
REMARK                         _______ _______ _______ _____ _____    ______ ____
ROOT
ATOM      1  C   UNL     1       0.948   4.516  20.448  0.00  0.00    +0.000 C 
ATOM      2  N   UNL     1       2.047   4.299  19.528  0.00  0.00    +0.000 N 
ATOM      3  C   UNL     1       2.672   5.419  18.973  0.00  0.00    +0.000 A 
ATOM      4  O   UNL     1       2.358   6.579  19.224  0.00  0.00    +0.000 OA
ATOM      5  C   UNL     1       3.723   5.078  18.076  0.00  0.00    +0.000 A 
ATOM      6  C   UNL     1       4.081   3.796  17.801  0.00  0.00    +0.000 A 
ATOM      7  N   UNL     1       5.104   3.742  16.911  0.00  0.00    +0.000 NA
ATOM      8  C   UNL     1       5.396   5.004  16.625  0.00  0.00    +0.000 A 
ATOM      9  N   UNL     1       4.573   5.858  17.338  0.00  0.00    +0.000 N 
ATOM     10  C   UNL     1       4.569   7.302  17.364  0.00  0.00    +0.000 C 
ATOM     11  N   UNL     1       3.448   2.727  18.389  0.00  0.00    +0.000 N 
ATOM     12  C   UNL     1       3.842   1.360  18.113  0.00  0.00    +0.000 C 
ATOM     13  C   UNL     1       2.398   2.957  19.277  0.00  0.00    +0.000 A 
ATOM     14  O   UNL     1       1.799   2.026  19.823  0.00  0.00    +0.000 OA
ENDROOT
BRANCH   8  15
ATOM     15  C   UNL     1       6.494   5.421  15.695  0.00  0.00    +0.000 C 
BRANCH  15  16
ATOM     16  C   UNL     1       6.844   4.345  14.662  0.00  0.00    +0.000 C 
BRANCH  16  17
ATOM     17  C   UNL     1       6.613   4.781  13.210  0.00  0.00    +0.000 C 
BRANCH  17  18
ATOM     18  C   UNL     1       6.418   3.579  12.314  0.00  0.00    +0.000 A 
ATOM     19  C   UNL     1       5.126   3.154  11.978  0.00  0.00    +0.000 A 
ATOM     20  C   UNL     1       4.934   2.009  11.203  0.00  0.00    +0.000 A 
ATOM     21  C   UNL     1       6.032   1.275  10.758  0.00  0.00    +0.000 A 
ATOM     22  C   UNL     1       7.323   1.691  11.082  0.00  0.00    +0.000 A 
ATOM     23  C   UNL     1       7.516   2.838  11.855  0.00  0.00    +0.000 A 
ENDBRANCH  17  18
ENDBRANCH  16  17
ENDBRANCH  15  16
ENDBRANCH   8  15
TORSDOF 4
ENDMDL
