MODEL 1
REMARK VINA RESULT:      -7.2      0.000      0.000
REMARK  Name = 
REMARK  20 active torsions:
REMARK  status: ('A' for Active; 'I' for Inactive)
REMARK    1  A    between atoms: C_1  and  C_2
REMARK    2  A    between atoms: C_2  and  C_3
REMARK    3  A    between atoms: C_3  and  C_4
REMARK    4  A    between atoms: C_4  and  C_5
REMARK    5  A    between atoms: C_5  and  C_6
REMARK    6  A    between atoms: C_6  and  N_7
REMARK    7  A    between atoms: N_7  and  C_8
REMARK    8  A    between atoms: N_7  and  C_14
REMARK    9  A    between atoms: C_8  and  C_9
REMARK   10  A    between atoms: C_9  and  C_10
REMARK   11  A    between atoms: C_10  and  C_11
REMARK   12  A    between atoms: C_11  and  C_12
REMARK   13  A    between atoms: C_12  and  C_13
REMARK   14  A    between atoms: C_14  and  C_15
REMARK   15  A    between atoms: C_15  and  C_16
REMARK   16  A    between atoms: C_16  and  C_17
REMARK   17  A    between atoms: C_17  and  N_18
REMARK   18  A    between atoms: N_18  and  C_19
REMARK   19  A    between atoms: C_31  and  O_32
REMARK   20  A    between atoms: O_32  and  C_33
REMARK                            x       y       z     vdW  Elec       q    Type
REMARK                         _______ _______ _______ _____ _____    ______ ____
ROOT
ATOM      1  N   UNL     1       0.255  11.239  18.467  0.00  0.00    +0.000 N 
ATOM      2  H   UNL     1       0.436  11.719  17.590  0.00  0.00    +0.000 HD
ENDROOT
BRANCH   1   3
ATOM      3  C   UNL     1      -1.040  11.610  18.968  0.00  0.00    +0.000 A 
ATOM      4  C   UNL     1      -1.303  12.247  20.252  0.00  0.00    +0.000 A 
ATOM      5  C   UNL     1      -0.389  12.595  21.308  0.00  0.00    +0.000 A 
ATOM      6  C   UNL     1      -0.763  13.153  22.523  0.00  0.00    +0.000 A 
ATOM      7  C   UNL     1      -2.096  13.402  22.747  0.00  0.00    +0.000 A 
ATOM      8 CL   UNL     1      -2.593  14.067  24.247  0.00  0.00    +0.000 Cl
ATOM      9  C   UNL     1      -3.022  13.108  21.752  0.00  0.00    +0.000 A 
ATOM     10  C   UNL     1      -2.655  12.548  20.529  0.00  0.00    +0.000 A 
ATOM     11  N   UNL     1      -3.656  12.321  19.675  0.00  0.00    +0.000 NA
ATOM     12  C   UNL     1      -3.412  11.769  18.482  0.00  0.00    +0.000 A 
ATOM     13  C   UNL     1      -4.491  11.592  17.625  0.00  0.00    +0.000 A 
ATOM     14  C   UNL     1      -4.359  11.023  16.354  0.00  0.00    +0.000 A 
ATOM     15  C   UNL     1      -3.109  10.606  15.925  0.00  0.00    +0.000 A 
ATOM     16  C   UNL     1      -2.014  10.782  16.776  0.00  0.00    +0.000 A 
ATOM     17  C   UNL     1      -2.132  11.372  18.066  0.00  0.00    +0.000 A 
BRANCH  15  18
ATOM     18  O   UNL     1      -2.817  10.031  14.721  0.00  0.00    +0.000 OA
ATOM     19  C   UNL     1      -3.843  10.025  13.736  0.00  0.00    +0.000 C 
ENDBRANCH  15  18
ENDBRANCH   1   3
BRANCH   1  20
ATOM     20  C   UNL     1       0.592   9.834  18.389  0.00  0.00    +0.000 C 
BRANCH  20  21
ATOM     21  C   UNL     1       2.053   9.507  18.173  0.00  0.00    +0.000 C 
BRANCH  21  22
ATOM     22  C   UNL     1       2.167   8.050  17.674  0.00  0.00    +0.000 C 
BRANCH  22  23
ATOM     23  C   UNL     1       2.659   7.034  18.731  0.00  0.00    +0.000 C 
BRANCH  23  24
ATOM     24  N   UNL     1       3.911   6.330  18.373  0.00  0.00    +0.000 NA
BRANCH  24  25
ATOM     25  C   UNL     1       4.411   6.789  17.054  0.00  0.00    +0.000 C 
BRANCH  25  26
ATOM     26  C   UNL     1       5.136   5.729  16.196  0.00  0.00    +0.000 C 
BRANCH  26  27
ATOM     27  C   UNL     1       6.664   5.719  16.316  0.00  0.00    +0.000 C 
BRANCH  27  28
ATOM     28  C   UNL     1       7.244   6.804  17.224  0.00  0.00    +0.000 C 
BRANCH  28  29
ATOM     29  C   UNL     1       7.635   6.274  18.603  0.00  0.00    +0.000 C 
ATOM     30  C   UNL     1       7.875   4.775  18.574  0.00  0.00    +0.000 C 
ENDBRANCH  28  29
ENDBRANCH  27  28
ENDBRANCH  26  27
ENDBRANCH  25  26
ENDBRANCH  24  25
BRANCH  24  31
ATOM     31  C   UNL     1       3.642   4.870  18.353  0.00  0.00    +0.000 C 
BRANCH  31  32
ATOM     32  C   UNL     1       2.463   4.377  17.500  0.00  0.00    +0.000 C 
BRANCH  32  33
ATOM     33  C   UNL     1       1.262   3.847  18.290  0.00  0.00    +0.000 C 
BRANCH  33  34
ATOM     34  C   UNL     1       1.648   2.728  19.257  0.00  0.00    +0.000 C 
BRANCH  34  36
ATOM     35  C   UNL     1       2.366   2.960  21.644  0.00  0.00    +0.000 C 
ATOM     36  C   UNL     1       1.185   3.000  20.685  0.00  0.00    +0.000 C 
ENDBRANCH  34  36
ENDBRANCH  33  34
ENDBRANCH  32  33
ENDBRANCH  31  32
ENDBRANCH  24  31
ENDBRANCH  23  24
ENDBRANCH  22  23
ENDBRANCH  21  22
ENDBRANCH  20  21
ENDBRANCH   1  20
TORSDOF 17
ENDMDL
MODEL 2
REMARK VINA RESULT:      -7.1      1.125      3.583
REMARK  Name = 
REMARK  20 active torsions:
REMARK  status: ('A' for Active; 'I' for Inactive)
REMARK    1  A    between atoms: C_1  and  C_2
REMARK    2  A    between atoms: C_2  and  C_3
REMARK    3  A    between atoms: C_3  and  C_4
REMARK    4  A    between atoms: C_4  and  C_5
REMARK    5  A    between atoms: C_5  and  C_6
REMARK    6  A    between atoms: C_6  and  N_7
REMARK    7  A    between atoms: N_7  and  C_8
REMARK    8  A    between atoms: N_7  and  C_14
REMARK    9  A    between atoms: C_8  and  C_9
REMARK   10  A    between atoms: C_9  and  C_10
REMARK   11  A    between atoms: C_10  and  C_11
REMARK   12  A    between atoms: C_11  and  C_12
REMARK   13  A    between atoms: C_12  and  C_13
REMARK   14  A    between atoms: C_14  and  C_15
REMARK   15  A    between atoms: C_15  and  C_16
REMARK   16  A    between atoms: C_16  and  C_17
REMARK   17  A    between atoms: C_17  and  N_18
REMARK   18  A    between atoms: N_18  and  C_19
REMARK   19  A    between atoms: C_31  and  O_32
REMARK   20  A    between atoms: O_32  and  C_33
REMARK                            x       y       z     vdW  Elec       q    Type
REMARK                         _______ _______ _______ _____ _____    ______ ____
ROOT
ATOM      1  N   UNL     1       0.244  11.182  18.337  0.00  0.00    +0.000 N 
ATOM      2  H   UNL     1       0.469  11.736  17.515  0.00  0.00    +0.000 HD
ENDROOT
BRANCH   1   3
ATOM      3  C   UNL     1      -1.053  11.552  18.833  0.00  0.00    +0.000 A 
ATOM      4  C   UNL     1      -1.323  12.185  20.117  0.00  0.00    +0.000 A 
ATOM      5  C   UNL     1      -0.414  12.531  21.179  0.00  0.00    +0.000 A 
ATOM      6  C   UNL     1      -0.794  13.085  22.393  0.00  0.00    +0.000 A 
ATOM      7  C   UNL     1      -2.128  13.333  22.611  0.00  0.00    +0.000 A 
ATOM      8 CL   UNL     1      -2.633  13.994  24.111  0.00  0.00    +0.000 Cl
ATOM      9  C   UNL     1      -3.049  13.041  21.611  0.00  0.00    +0.000 A 
ATOM     10  C   UNL     1      -2.676  12.485  20.388  0.00  0.00    +0.000 A 
ATOM     11  N   UNL     1      -3.674  12.259  19.529  0.00  0.00    +0.000 NA
ATOM     12  C   UNL     1      -3.424  11.711  18.335  0.00  0.00    +0.000 A 
ATOM     13  C   UNL     1      -4.499  11.536  17.473  0.00  0.00    +0.000 A 
ATOM     14  C   UNL     1      -4.360  10.970  16.201  0.00  0.00    +0.000 A 
ATOM     15  C   UNL     1      -3.108  10.555  15.778  0.00  0.00    +0.000 A 
ATOM     16  C   UNL     1      -2.017  10.729  16.634  0.00  0.00    +0.000 A 
ATOM     17  C   UNL     1      -2.141  11.315  17.925  0.00  0.00    +0.000 A 
BRANCH  15  18
ATOM     18  O   UNL     1      -2.810   9.982  14.573  0.00  0.00    +0.000 OA
ATOM     19  C   UNL     1      -3.839   9.956  13.592  0.00  0.00    +0.000 C 
ENDBRANCH  15  18
ENDBRANCH   1   3
BRANCH   1  20
ATOM     20  C   UNL     1       0.536   9.780  18.135  0.00  0.00    +0.000 C 
BRANCH  20  21
ATOM     21  C   UNL     1       1.966   9.352  18.380  0.00  0.00    +0.000 C 
BRANCH  21  22
ATOM     22  C   UNL     1       2.187   7.966  17.735  0.00  0.00    +0.000 C 
BRANCH  22  23
ATOM     23  C   UNL     1       2.814   6.904  18.667  0.00  0.00    +0.000 C 
BRANCH  23  24
ATOM     24  N   UNL     1       3.781   5.998  18.005  0.00  0.00    +0.000 NA
BRANCH  24  25
ATOM     25  C   UNL     1       4.461   5.138  19.005  0.00  0.00    +0.000 C 
BRANCH  25  26
ATOM     26  C   UNL     1       4.609   3.647  18.630  0.00  0.00    +0.000 C 
BRANCH  26  27
ATOM     27  C   UNL     1       4.231   2.651  19.733  0.00  0.00    +0.000 C 
BRANCH  27  28
ATOM     28  C   UNL     1       3.036   3.067  20.591  0.00  0.00    +0.000 C 
BRANCH  28  29
ATOM     29  C   UNL     1       1.699   2.863  19.882  0.00  0.00    +0.000 C 
ATOM     30  C   UNL     1       0.729   3.989  20.192  0.00  0.00    +0.000 C 
ENDBRANCH  28  29
ENDBRANCH  27  28
ENDBRANCH  26  27
ENDBRANCH  25  26
ENDBRANCH  24  25
BRANCH  24  31
ATOM     31  C   UNL     1       4.768   6.822  17.265  0.00  0.00    +0.000 C 
BRANCH  31  32
ATOM     32  C   UNL     1       5.235   6.310  15.894  0.00  0.00    +0.000 C 
BRANCH  32  33
ATOM     33  C   UNL     1       6.478   5.414  15.919  0.00  0.00    +0.000 C 
BRANCH  33  34
ATOM     34  C   UNL     1       6.246   4.076  15.216  0.00  0.00    +0.000 C 
BRANCH  34  36
ATOM     35  C   UNL     1       5.338   3.620  12.928  0.00  0.00    +0.000 C 
ATOM     36  C   UNL     1       6.530   4.143  13.718  0.00  0.00    +0.000 C 
ENDBRANCH  34  36
ENDBRANCH  33  34
ENDBRANCH  32  33
ENDBRANCH  31  32
ENDBRANCH  24  31
ENDBRANCH  23  24
ENDBRANCH  22  23
ENDBRANCH  21  22
ENDBRANCH  20  21
ENDBRANCH   1  20
TORSDOF 17
ENDMDL
MODEL 3
REMARK VINA RESULT:      -7.1      2.856      4.657
REMARK  Name = 
REMARK  20 active torsions:
REMARK  status: ('A' for Active; 'I' for Inactive)
REMARK    1  A    between atoms: C_1  and  C_2
REMARK    2  A    between atoms: C_2  and  C_3
REMARK    3  A    between atoms: C_3  and  C_4
REMARK    4  A    between atoms: C_4  and  C_5
REMARK    5  A    between atoms: C_5  and  C_6
REMARK    6  A    between atoms: C_6  and  N_7
REMARK    7  A    between atoms: N_7  and  C_8
REMARK    8  A    between atoms: N_7  and  C_14
REMARK    9  A    between atoms: C_8  and  C_9
REMARK   10  A    between atoms: C_9  and  C_10
REMARK   11  A    between atoms: C_10  and  C_11
REMARK   12  A    between atoms: C_11  and  C_12
REMARK   13  A    between atoms: C_12  and  C_13
REMARK   14  A    between atoms: C_14  and  C_15
REMARK   15  A    between atoms: C_15  and  C_16
REMARK   16  A    between atoms: C_16  and  C_17
REMARK   17  A    between atoms: C_17  and  N_18
REMARK   18  A    between atoms: N_18  and  C_19
REMARK   19  A    between atoms: C_31  and  O_32
REMARK   20  A    between atoms: O_32  and  C_33
REMARK                            x       y       z     vdW  Elec       q    Type
REMARK                         _______ _______ _______ _____ _____    ______ ____
ROOT
ATOM      1  N   UNL     1       1.003  10.599  17.988  0.00  0.00    +0.000 N 
ATOM      2  H   UNL     1       0.904  10.616  16.977  0.00  0.00    +0.000 HD
ENDROOT
BRANCH   1   3
ATOM      3  C   UNL     1      -0.053  11.362  18.594  0.00  0.00    +0.000 A 
ATOM      4  C   UNL     1      -1.480  11.150  18.388  0.00  0.00    +0.000 A 
ATOM      5  C   UNL     1      -2.154  10.210  17.529  0.00  0.00    +0.000 A 
ATOM      6  C   UNL     1      -3.530  10.135  17.369  0.00  0.00    +0.000 A 
ATOM      7  C   UNL     1      -4.321  11.007  18.078  0.00  0.00    +0.000 A 
ATOM      8 CL   UNL     1      -6.024  10.957  17.882  0.00  0.00    +0.000 Cl
ATOM      9  C   UNL     1      -3.726  11.921  18.941  0.00  0.00    +0.000 A 
ATOM     10  C   UNL     1      -2.344  12.004  19.108  0.00  0.00    +0.000 A 
ATOM     11  N   UNL     1      -1.922  12.933  19.970  0.00  0.00    +0.000 NA
ATOM     12  C   UNL     1      -0.614  13.105  20.187  0.00  0.00    +0.000 A 
ATOM     13  C   UNL     1      -0.241  14.062  21.123  0.00  0.00    +0.000 A 
ATOM     14  C   UNL     1       1.097  14.332  21.431  0.00  0.00    +0.000 A 
ATOM     15  C   UNL     1       2.097  13.632  20.778  0.00  0.00    +0.000 A 
ATOM     16  C   UNL     1       1.735  12.664  19.837  0.00  0.00    +0.000 A 
ATOM     17  C   UNL     1       0.379  12.368  19.523  0.00  0.00    +0.000 A 
BRANCH  15  18
ATOM     18  O   UNL     1       3.443  13.782  20.963  0.00  0.00    +0.000 OA
ATOM     19  C   UNL     1       4.063  14.905  20.349  0.00  0.00    +0.000 C 
ENDBRANCH  15  18
ENDBRANCH   1   3
BRANCH   1  20
ATOM     20  C   UNL     1       1.263   9.263  18.478  0.00  0.00    +0.000 C 
BRANCH  20  21
ATOM     21  C   UNL     1       2.406   8.520  17.822  0.00  0.00    +0.000 C 
BRANCH  21  22
ATOM     22  C   UNL     1       2.295   7.022  18.181  0.00  0.00    +0.000 C 
BRANCH  22  23
ATOM     23  C   UNL     1       3.572   6.400  18.792  0.00  0.00    +0.000 C 
BRANCH  23  24
ATOM     24  N   UNL     1       4.193   5.335  17.972  0.00  0.00    +0.000 NA
BRANCH  24  25
ATOM     25  C   UNL     1       4.966   5.922  16.850  0.00  0.00    +0.000 C 
BRANCH  25  26
ATOM     26  C   UNL     1       5.894   4.953  16.085  0.00  0.00    +0.000 C 
BRANCH  26  27
ATOM     27  C   UNL     1       5.601   4.809  14.586  0.00  0.00    +0.000 C 
BRANCH  27  28
ATOM     28  C   UNL     1       6.146   3.532  13.945  0.00  0.00    +0.000 C 
BRANCH  28  29
ATOM     29  C   UNL     1       6.360   3.671  12.439  0.00  0.00    +0.000 C 
ATOM     30  C   UNL     1       7.397   4.734  12.122  0.00  0.00    +0.000 C 
ENDBRANCH  28  29
ENDBRANCH  27  28
ENDBRANCH  26  27
ENDBRANCH  25  26
ENDBRANCH  24  25
BRANCH  24  31
ATOM     31  C   UNL     1       3.118   4.448  17.460  0.00  0.00    +0.000 C 
BRANCH  31  32
ATOM     32  C   UNL     1       3.252   2.941  17.729  0.00  0.00    +0.000 C 
BRANCH  32  33
ATOM     33  C   UNL     1       2.446   2.416  18.922  0.00  0.00    +0.000 C 
BRANCH  33  34
ATOM     34  C   UNL     1       3.091   2.770  20.262  0.00  0.00    +0.000 C 
BRANCH  34  36
ATOM     35  C   UNL     1       0.947   4.060  20.355  0.00  0.00    +0.000 C 
ATOM     36  C   UNL     1       2.252   3.751  21.076  0.00  0.00    +0.000 C 
ENDBRANCH  34  36
ENDBRANCH  33  34
ENDBRANCH  32  33
ENDBRANCH  31  32
ENDBRANCH  24  31
ENDBRANCH  23  24
ENDBRANCH  22  23
ENDBRANCH  21  22
ENDBRANCH  20  21
ENDBRANCH   1  20
TORSDOF 17
ENDMDL
MODEL 4
REMARK VINA RESULT:      -7.0      2.688      5.656
REMARK  Name = 
REMARK  20 active torsions:
REMARK  status: ('A' for Active; 'I' for Inactive)
REMARK    1  A    between atoms: C_1  and  C_2
REMARK    2  A    between atoms: C_2  and  C_3
REMARK    3  A    between atoms: C_3  and  C_4
REMARK    4  A    between atoms: C_4  and  C_5
REMARK    5  A    between atoms: C_5  and  C_6
REMARK    6  A    between atoms: C_6  and  N_7
REMARK    7  A    between atoms: N_7  and  C_8
REMARK    8  A    between atoms: N_7  and  C_14
REMARK    9  A    between atoms: C_8  and  C_9
REMARK   10  A    between atoms: C_9  and  C_10
REMARK   11  A    between atoms: C_10  and  C_11
REMARK   12  A    between atoms: C_11  and  C_12
REMARK   13  A    between atoms: C_12  and  C_13
REMARK   14  A    between atoms: C_14  and  C_15
REMARK   15  A    between atoms: C_15  and  C_16
REMARK   16  A    between atoms: C_16  and  C_17
REMARK   17  A    between atoms: C_17  and  N_18
REMARK   18  A    between atoms: N_18  and  C_19
REMARK   19  A    between atoms: C_31  and  O_32
REMARK   20  A    between atoms: O_32  and  C_33
REMARK                            x       y       z     vdW  Elec       q    Type
REMARK                         _______ _______ _______ _____ _____    ______ ____
ROOT
ATOM      1  N   UNL     1       1.549  10.529  17.935  0.00  0.00    +0.000 N 
ATOM      2  H   UNL     1       1.795  10.932  17.035  0.00  0.00    +0.000 HD
ENDROOT
BRANCH   1   3
ATOM      3  C   UNL     1       0.454  11.260  18.512  0.00  0.00    +0.000 A 
ATOM      4  C   UNL     1      -0.959  11.019  18.253  0.00  0.00    +0.000 A 
ATOM      5  C   UNL     1      -1.580  10.075  17.359  0.00  0.00    +0.000 A 
ATOM      6  C   UNL     1      -2.948   9.970  17.150  0.00  0.00    +0.000 A 
ATOM      7  C   UNL     1      -3.783  10.816  17.840  0.00  0.00    +0.000 A 
ATOM      8 CL   UNL     1      -5.476  10.729  17.584  0.00  0.00    +0.000 Cl
ATOM      9  C   UNL     1      -3.240  11.732  18.735  0.00  0.00    +0.000 A 
ATOM     10  C   UNL     1      -1.867  11.844  18.952  0.00  0.00    +0.000 A 
ATOM     11  N   UNL     1      -1.497  12.771  19.839  0.00  0.00    +0.000 NA
ATOM     12  C   UNL     1      -0.202  12.970  20.105  0.00  0.00    +0.000 A 
ATOM     13  C   UNL     1       0.116  13.923  21.065  0.00  0.00    +0.000 A 
ATOM     14  C   UNL     1       1.435  14.219  21.424  0.00  0.00    +0.000 A 
ATOM     15  C   UNL     1       2.474  13.550  20.799  0.00  0.00    +0.000 A 
ATOM     16  C   UNL     1       2.168  12.586  19.833  0.00  0.00    +0.000 A 
ATOM     17  C   UNL     1       0.830  12.264  19.468  0.00  0.00    +0.000 A 
BRANCH  15  18
ATOM     18  O   UNL     1       3.809  13.729  21.032  0.00  0.00    +0.000 OA
ATOM     19  C   UNL     1       4.174  14.686  22.018  0.00  0.00    +0.000 C 
ENDBRANCH  15  18
ENDBRANCH   1   3
BRANCH   1  20
ATOM     20  C   UNL     1       1.463   9.087  17.870  0.00  0.00    +0.000 C 
BRANCH  20  21
ATOM     21  C   UNL     1       2.730   8.325  18.191  0.00  0.00    +0.000 C 
BRANCH  21  22
ATOM     22  C   UNL     1       2.452   6.814  18.038  0.00  0.00    +0.000 C 
BRANCH  22  23
ATOM     23  C   UNL     1       3.705   5.910  18.097  0.00  0.00    +0.000 C 
BRANCH  23  24
ATOM     24  N   UNL     1       3.627   4.692  17.257  0.00  0.00    +0.000 NA
BRANCH  24  25
ATOM     25  C   UNL     1       3.686   3.472  18.097  0.00  0.00    +0.000 C 
BRANCH  25  26
ATOM     26  C   UNL     1       2.625   2.390  17.799  0.00  0.00    +0.000 C 
BRANCH  26  27
ATOM     27  C   UNL     1       1.731   2.002  18.982  0.00  0.00    +0.000 C 
BRANCH  27  28
ATOM     28  C   UNL     1       0.905   3.148  19.567  0.00  0.00    +0.000 C 
BRANCH  28  29
ATOM     29  C   UNL     1       1.549   3.769  20.805  0.00  0.00    +0.000 C 
ATOM     30  C   UNL     1       1.942   2.709  21.818  0.00  0.00    +0.000 C 
ENDBRANCH  28  29
ENDBRANCH  27  28
ENDBRANCH  26  27
ENDBRANCH  25  26
ENDBRANCH  24  25
BRANCH  24  31
ATOM     31  C   UNL     1       4.751   4.716  16.288  0.00  0.00    +0.000 C 
BRANCH  31  32
ATOM     32  C   UNL     1       5.518   6.037  16.120  0.00  0.00    +0.000 C 
BRANCH  32  33
ATOM     33  C   UNL     1       6.987   6.000  16.555  0.00  0.00    +0.000 C 
BRANCH  33  34
ATOM     34  C   UNL     1       7.408   4.623  17.070  0.00  0.00    +0.000 C 
BRANCH  34  36
ATOM     35  C   UNL     1       7.600   5.967  19.173  0.00  0.00    +0.000 C 
ATOM     36  C   UNL     1       8.008   4.679  18.471  0.00  0.00    +0.000 C 
ENDBRANCH  34  36
ENDBRANCH  33  34
ENDBRANCH  32  33
ENDBRANCH  31  32
ENDBRANCH  24  31
ENDBRANCH  23  24
ENDBRANCH  22  23
ENDBRANCH  21  22
ENDBRANCH  20  21
ENDBRANCH   1  20
TORSDOF 17
ENDMDL
MODEL 5
REMARK VINA RESULT:      -6.9      2.903      5.739
REMARK  Name = 
REMARK  20 active torsions:
REMARK  status: ('A' for Active; 'I' for Inactive)
REMARK    1  A    between atoms: C_1  and  C_2
REMARK    2  A    between atoms: C_2  and  C_3
REMARK    3  A    between atoms: C_3  and  C_4
REMARK    4  A    between atoms: C_4  and  C_5
REMARK    5  A    between atoms: C_5  and  C_6
REMARK    6  A    between atoms: C_6  and  N_7
REMARK    7  A    between atoms: N_7  and  C_8
REMARK    8  A    between atoms: N_7  and  C_14
REMARK    9  A    between atoms: C_8  and  C_9
REMARK   10  A    between atoms: C_9  and  C_10
REMARK   11  A    between atoms: C_10  and  C_11
REMARK   12  A    between atoms: C_11  and  C_12
REMARK   13  A    between atoms: C_12  and  C_13
REMARK   14  A    between atoms: C_14  and  C_15
REMARK   15  A    between atoms: C_15  and  C_16
REMARK   16  A    between atoms: C_16  and  C_17
REMARK   17  A    between atoms: C_17  and  N_18
REMARK   18  A    between atoms: N_18  and  C_19
REMARK   19  A    between atoms: C_31  and  O_32
REMARK   20  A    between atoms: O_32  and  C_33
REMARK                            x       y       z     vdW  Elec       q    Type
REMARK                         _______ _______ _______ _____ _____    ______ ____
ROOT
ATOM      1  N   UNL     1       1.206   9.885  19.221  0.00  0.00    +0.000 N 
ATOM      2  H   UNL     1       1.986  10.110  19.833  0.00  0.00    +0.000 HD
ENDROOT
BRANCH   1   3
ATOM      3  C   UNL     1       0.226  10.935  19.275  0.00  0.00    +0.000 A 
ATOM      4  C   UNL     1      -1.152  10.836  18.813  0.00  0.00    +0.000 A 
ATOM      5  C   UNL     1      -1.827   9.738  18.170  0.00  0.00    +0.000 A 
ATOM      6  C   UNL     1      -3.139   9.776  17.719  0.00  0.00    +0.000 A 
ATOM      7  C   UNL     1      -3.860  10.933  17.894  0.00  0.00    +0.000 A 
ATOM      8 CL   UNL     1      -5.475  11.020  17.323  0.00  0.00    +0.000 Cl
ATOM      9  C   UNL     1      -3.266  12.018  18.529  0.00  0.00    +0.000 A 
ATOM     10  C   UNL     1      -1.949  11.989  18.987  0.00  0.00    +0.000 A 
ATOM     11  N   UNL     1      -1.518  13.108  19.575  0.00  0.00    +0.000 NA
ATOM     12  C   UNL     1      -0.264  13.189  20.032  0.00  0.00    +0.000 A 
ATOM     13  C   UNL     1       0.112  14.366  20.667  0.00  0.00    +0.000 A 
ATOM     14  C   UNL     1       1.397  14.567  21.182  0.00  0.00    +0.000 A 
ATOM     15  C   UNL     1       2.343  13.564  21.052  0.00  0.00    +0.000 A 
ATOM     16  C   UNL     1       1.977  12.373  20.418  0.00  0.00    +0.000 A 
ATOM     17  C   UNL     1       0.670  12.149  19.902  0.00  0.00    +0.000 A 
BRANCH  15  18
ATOM     18  O   UNL     1       3.635  13.608  21.495  0.00  0.00    +0.000 OA
ATOM     19  C   UNL     1       4.366  14.805  21.253  0.00  0.00    +0.000 C 
ENDBRANCH  15  18
ENDBRANCH   1   3
BRANCH   1  20
ATOM     20  C   UNL     1       1.656   9.421  17.928  0.00  0.00    +0.000 C 
BRANCH  20  21
ATOM     21  C   UNL     1       2.751   8.377  17.935  0.00  0.00    +0.000 C 
BRANCH  21  22
ATOM     22  C   UNL     1       2.361   7.256  18.923  0.00  0.00    +0.000 C 
BRANCH  22  23
ATOM     23  C   UNL     1       3.363   6.081  19.007  0.00  0.00    +0.000 C 
BRANCH  23  24
ATOM     24  N   UNL     1       3.974   5.698  17.714  0.00  0.00    +0.000 NA
BRANCH  24  25
ATOM     25  C   UNL     1       3.334   4.473  17.175  0.00  0.00    +0.000 C 
BRANCH  25  26
ATOM     26  C   UNL     1       3.962   3.131  17.611  0.00  0.00    +0.000 C 
BRANCH  26  27
ATOM     27  C   UNL     1       2.963   2.036  18.006  0.00  0.00    +0.000 C 
BRANCH  27  28
ATOM     28  C   UNL     1       1.610   2.548  18.498  0.00  0.00    +0.000 C 
BRANCH  28  29
ATOM     29  C   UNL     1       1.491   2.535  20.021  0.00  0.00    +0.000 C 
ATOM     30  C   UNL     1       0.980   3.863  20.550  0.00  0.00    +0.000 C 
ENDBRANCH  28  29
ENDBRANCH  27  28
ENDBRANCH  26  27
ENDBRANCH  25  26
ENDBRANCH  24  25
BRANCH  24  31
ATOM     31  C   UNL     1       5.427   5.481  17.925  0.00  0.00    +0.000 C 
BRANCH  31  32
ATOM     32  C   UNL     1       6.383   5.941  16.813  0.00  0.00    +0.000 C 
BRANCH  32  33
ATOM     33  C   UNL     1       6.795   4.854  15.815  0.00  0.00    +0.000 C 
BRANCH  33  34
ATOM     34  C   UNL     1       6.075   4.992  14.473  0.00  0.00    +0.000 C 
BRANCH  34  36
ATOM     35  C   UNL     1       5.163   3.613  12.594  0.00  0.00    +0.000 C 
ATOM     36  C   UNL     1       6.336   3.812  13.543  0.00  0.00    +0.000 C 
ENDBRANCH  34  36
ENDBRANCH  33  34
ENDBRANCH  32  33
ENDBRANCH  31  32
ENDBRANCH  24  31
ENDBRANCH  23  24
ENDBRANCH  22  23
ENDBRANCH  21  22
ENDBRANCH  20  21
ENDBRANCH   1  20
TORSDOF 17
ENDMDL
MODEL 6
REMARK VINA RESULT:      -6.9      3.375      4.727
REMARK  Name = 
REMARK  20 active torsions:
REMARK  status: ('A' for Active; 'I' for Inactive)
REMARK    1  A    between atoms: C_1  and  C_2
REMARK    2  A    between atoms: C_2  and  C_3
REMARK    3  A    between atoms: C_3  and  C_4
REMARK    4  A    between atoms: C_4  and  C_5
REMARK    5  A    between atoms: C_5  and  C_6
REMARK    6  A    between atoms: C_6  and  N_7
REMARK    7  A    between atoms: N_7  and  C_8
REMARK    8  A    between atoms: N_7  and  C_14
REMARK    9  A    between atoms: C_8  and  C_9
REMARK   10  A    between atoms: C_9  and  C_10
REMARK   11  A    between atoms: C_10  and  C_11
REMARK   12  A    between atoms: C_11  and  C_12
REMARK   13  A    between atoms: C_12  and  C_13
REMARK   14  A    between atoms: C_14  and  C_15
REMARK   15  A    between atoms: C_15  and  C_16
REMARK   16  A    between atoms: C_16  and  C_17
REMARK   17  A    between atoms: C_17  and  N_18
REMARK   18  A    between atoms: N_18  and  C_19
REMARK   19  A    between atoms: C_31  and  O_32
REMARK   20  A    between atoms: O_32  and  C_33
REMARK                            x       y       z     vdW  Elec       q    Type
REMARK                         _______ _______ _______ _____ _____    ______ ____
ROOT
ATOM      1  N   UNL     1      -0.111  10.893  19.620  0.00  0.00    +0.000 N 
ATOM      2  H   UNL     1      -0.970  10.620  20.089  0.00  0.00    +0.000 HD
ENDROOT
BRANCH   1   3
ATOM      3  C   UNL     1       0.370  12.133  20.165  0.00  0.00    +0.000 A 
ATOM      4  C   UNL     1       1.451  12.939  19.615  0.00  0.00    +0.000 A 
ATOM      5  C   UNL     1       2.301  12.685  18.481  0.00  0.00    +0.000 A 
ATOM      6  C   UNL     1       3.346  13.505  18.079  0.00  0.00    +0.000 A 
ATOM      7  C   UNL     1       3.597  14.648  18.800  0.00  0.00    +0.000 A 
ATOM      8 CL   UNL     1       4.897  15.669  18.344  0.00  0.00    +0.000 Cl
ATOM      9  C   UNL     1       2.793  14.957  19.892  0.00  0.00    +0.000 A 
ATOM     10  C   UNL     1       1.741  14.139  20.302  0.00  0.00    +0.000 A 
ATOM     11  N   UNL     1       1.060  14.567  21.369  0.00  0.00    +0.000 NA
ATOM     12  C   UNL     1       0.044  13.845  21.854  0.00  0.00    +0.000 A 
ATOM     13  C   UNL     1      -0.647  14.363  22.942  0.00  0.00    +0.000 A 
ATOM     14  C   UNL     1      -1.724  13.697  23.536  0.00  0.00    +0.000 A 
ATOM     15  C   UNL     1      -2.121  12.468  23.035  0.00  0.00    +0.000 A 
ATOM     16  C   UNL     1      -1.436  11.937  21.938  0.00  0.00    +0.000 A 
ATOM     17  C   UNL     1      -0.347  12.610  21.314  0.00  0.00    +0.000 A 
BRANCH  15  18
ATOM     18  O   UNL     1      -3.145  11.694  23.504  0.00  0.00    +0.000 OA
ATOM     19  C   UNL     1      -4.088  12.316  24.368  0.00  0.00    +0.000 C 
ENDBRANCH  15  18
ENDBRANCH   1   3
BRANCH   1  20
ATOM     20  C   UNL     1       0.809   9.784  19.501  0.00  0.00    +0.000 C 
BRANCH  20  21
ATOM     21  C   UNL     1       1.095   9.298  18.097  0.00  0.00    +0.000 C 
BRANCH  21  22
ATOM     22  C   UNL     1       2.217   8.238  18.157  0.00  0.00    +0.000 C 
BRANCH  22  23
ATOM     23  C   UNL     1       2.249   7.394  19.453  0.00  0.00    +0.000 C 
BRANCH  23  24
ATOM     24  N   UNL     1       2.616   5.973  19.254  0.00  0.00    +0.000 NA
BRANCH  24  25
ATOM     25  C   UNL     1       4.088   5.820  19.161  0.00  0.00    +0.000 C 
BRANCH  25  26
ATOM     26  C   UNL     1       4.690   5.889  17.741  0.00  0.00    +0.000 C 
BRANCH  26  27
ATOM     27  C   UNL     1       6.033   5.170  17.561  0.00  0.00    +0.000 C 
BRANCH  27  28
ATOM     28  C   UNL     1       7.177   6.059  17.074  0.00  0.00    +0.000 C 
BRANCH  28  29
ATOM     29  C   UNL     1       7.743   6.952  18.177  0.00  0.00    +0.000 C 
ATOM     30  C   UNL     1       7.896   8.387  17.705  0.00  0.00    +0.000 C 
ENDBRANCH  28  29
ENDBRANCH  27  28
ENDBRANCH  26  27
ENDBRANCH  25  26
ENDBRANCH  24  25
BRANCH  24  31
ATOM     31  C   UNL     1       1.959   5.486  18.016  0.00  0.00    +0.000 C 
BRANCH  31  32
ATOM     32  C   UNL     1       1.873   3.966  17.808  0.00  0.00    +0.000 C 
BRANCH  32  33
ATOM     33  C   UNL     1       1.021   3.213  18.835  0.00  0.00    +0.000 C 
BRANCH  33  34
ATOM     34  C   UNL     1       1.795   2.086  19.519  0.00  0.00    +0.000 C 
BRANCH  34  36
ATOM     35  C   UNL     1       2.051   3.453  21.600  0.00  0.00    +0.000 C 
ATOM     36  C   UNL     1       2.776   2.600  20.568  0.00  0.00    +0.000 C 
ENDBRANCH  34  36
ENDBRANCH  33  34
ENDBRANCH  32  33
ENDBRANCH  31  32
ENDBRANCH  24  31
ENDBRANCH  23  24
ENDBRANCH  22  23
ENDBRANCH  21  22
ENDBRANCH  20  21
ENDBRANCH   1  20
TORSDOF 17
ENDMDL
MODEL 7
REMARK VINA RESULT:      -6.9      1.340      1.863
REMARK  Name = 
REMARK  20 active torsions:
REMARK  status: ('A' for Active; 'I' for Inactive)
REMARK    1  A    between atoms: C_1  and  C_2
REMARK    2  A    between atoms: C_2  and  C_3
REMARK    3  A    between atoms: C_3  and  C_4
REMARK    4  A    between atoms: C_4  and  C_5
REMARK    5  A    between atoms: C_5  and  C_6
REMARK    6  A    between atoms: C_6  and  N_7
REMARK    7  A    between atoms: N_7  and  C_8
REMARK    8  A    between atoms: N_7  and  C_14
REMARK    9  A    between atoms: C_8  and  C_9
REMARK   10  A    between atoms: C_9  and  C_10
REMARK   11  A    between atoms: C_10  and  C_11
REMARK   12  A    between atoms: C_11  and  C_12
REMARK   13  A    between atoms: C_12  and  C_13
REMARK   14  A    between atoms: C_14  and  C_15
REMARK   15  A    between atoms: C_15  and  C_16
REMARK   16  A    between atoms: C_16  and  C_17
REMARK   17  A    between atoms: C_17  and  N_18
REMARK   18  A    between atoms: N_18  and  C_19
REMARK   19  A    between atoms: C_31  and  O_32
REMARK   20  A    between atoms: O_32  and  C_33
REMARK                            x       y       z     vdW  Elec       q    Type
REMARK                         _______ _______ _______ _____ _____    ______ ____
ROOT
ATOM      1  N   UNL     1       0.167   9.728  17.593  0.00  0.00    +0.000 N 
ATOM      2  H   UNL     1      -0.138   8.768  17.456  0.00  0.00    +0.000 HD
ENDROOT
BRANCH   1   3
ATOM      3  C   UNL     1      -0.906  10.507  18.145  0.00  0.00    +0.000 A 
ATOM      4  C   UNL     1      -0.880  11.199  19.427  0.00  0.00    +0.000 A 
ATOM      5  C   UNL     1       0.150  11.231  20.433  0.00  0.00    +0.000 A 
ATOM      6  C   UNL     1       0.043  11.885  21.652  0.00  0.00    +0.000 A 
ATOM      7  C   UNL     1      -1.121  12.560  21.932  0.00  0.00    +0.000 A 
ATOM      8 CL   UNL     1      -1.296  13.357  23.441  0.00  0.00    +0.000 Cl
ATOM      9  C   UNL     1      -2.142  12.584  20.988  0.00  0.00    +0.000 A 
ATOM     10  C   UNL     1      -2.042  11.930  19.761  0.00  0.00    +0.000 A 
ATOM     11  N   UNL     1      -3.104  12.041  18.959  0.00  0.00    +0.000 NA
ATOM     12  C   UNL     1      -3.116  11.436  17.767  0.00  0.00    +0.000 A 
ATOM     13  C   UNL     1      -4.235  11.621  16.966  0.00  0.00    +0.000 A 
ATOM     14  C   UNL     1      -4.362  11.035  15.702  0.00  0.00    +0.000 A 
ATOM     15  C   UNL     1      -3.342  10.229  15.224  0.00  0.00    +0.000 A 
ATOM     16  C   UNL     1      -2.209  10.037  16.019  0.00  0.00    +0.000 A 
ATOM     17  C   UNL     1      -2.060  10.638  17.301  0.00  0.00    +0.000 A 
BRANCH  15  18
ATOM     18  O   UNL     1      -3.317   9.585  14.018  0.00  0.00    +0.000 OA
ATOM     19  C   UNL     1      -4.324   9.929  13.075  0.00  0.00    +0.000 C 
ENDBRANCH  15  18
ENDBRANCH   1   3
BRANCH   1  20
ATOM     20  C   UNL     1       1.467   9.790  18.224  0.00  0.00    +0.000 C 
BRANCH  20  21
ATOM     21  C   UNL     1       2.045   8.476  18.699  0.00  0.00    +0.000 C 
BRANCH  21  22
ATOM     22  C   UNL     1       2.950   7.901  17.587  0.00  0.00    +0.000 C 
BRANCH  22  23
ATOM     23  C   UNL     1       4.218   7.171  18.088  0.00  0.00    +0.000 C 
BRANCH  23  24
ATOM     24  N   UNL     1       3.997   5.767  18.505  0.00  0.00    +0.000 NA
BRANCH  24  25
ATOM     25  C   UNL     1       5.291   5.065  18.686  0.00  0.00    +0.000 C 
BRANCH  25  26
ATOM     26  C   UNL     1       5.796   4.247  17.477  0.00  0.00    +0.000 C 
BRANCH  26  27
ATOM     27  C   UNL     1       7.156   4.678  16.914  0.00  0.00    +0.000 C 
BRANCH  27  28
ATOM     28  C   UNL     1       7.118   5.214  15.483  0.00  0.00    +0.000 C 
BRANCH  28  29
ATOM     29  C   UNL     1       5.815   4.879  14.760  0.00  0.00    +0.000 C 
ATOM     30  C   UNL     1       6.032   3.834  13.680  0.00  0.00    +0.000 C 
ENDBRANCH  28  29
ENDBRANCH  27  28
ENDBRANCH  26  27
ENDBRANCH  25  26
ENDBRANCH  24  25
BRANCH  24  31
ATOM     31  C   UNL     1       3.175   5.093  17.469  0.00  0.00    +0.000 C 
BRANCH  31  32
ATOM     32  C   UNL     1       1.810   4.533  17.899  0.00  0.00    +0.000 C 
BRANCH  32  33
ATOM     33  C   UNL     1       1.848   3.540  19.065  0.00  0.00    +0.000 C 
BRANCH  33  34
ATOM     34  C   UNL     1       1.988   2.092  18.593  0.00  0.00    +0.000 C 
BRANCH  34  36
ATOM     35  C   UNL     1       4.073   2.057  19.978  0.00  0.00    +0.000 C 
ATOM     36  C   UNL     1       3.422   1.580  18.687  0.00  0.00    +0.000 C 
ENDBRANCH  34  36
ENDBRANCH  33  34
ENDBRANCH  32  33
ENDBRANCH  31  32
ENDBRANCH  24  31
ENDBRANCH  23  24
ENDBRANCH  22  23
ENDBRANCH  21  22
ENDBRANCH  20  21
ENDBRANCH   1  20
TORSDOF 17
ENDMDL
MODEL 8
REMARK VINA RESULT:      -6.9      1.182      1.749
REMARK  Name = 
REMARK  20 active torsions:
REMARK  status: ('A' for Active; 'I' for Inactive)
REMARK    1  A    between atoms: C_1  and  C_2
REMARK    2  A    between atoms: C_2  and  C_3
REMARK    3  A    between atoms: C_3  and  C_4
REMARK    4  A    between atoms: C_4  and  C_5
REMARK    5  A    between atoms: C_5  and  C_6
REMARK    6  A    between atoms: C_6  and  N_7
REMARK    7  A    between atoms: N_7  and  C_8
REMARK    8  A    between atoms: N_7  and  C_14
REMARK    9  A    between atoms: C_8  and  C_9
REMARK   10  A    between atoms: C_9  and  C_10
REMARK   11  A    between atoms: C_10  and  C_11
REMARK   12  A    between atoms: C_11  and  C_12
REMARK   13  A    between atoms: C_12  and  C_13
REMARK   14  A    between atoms: C_14  and  C_15
REMARK   15  A    between atoms: C_15  and  C_16
REMARK   16  A    between atoms: C_16  and  C_17
REMARK   17  A    between atoms: C_17  and  N_18
REMARK   18  A    between atoms: N_18  and  C_19
REMARK   19  A    between atoms: C_31  and  O_32
REMARK   20  A    between atoms: O_32  and  C_33
REMARK                            x       y       z     vdW  Elec       q    Type
REMARK                         _______ _______ _______ _____ _____    ______ ____
ROOT
ATOM      1  N   UNL     1       0.209  11.389  19.422  0.00  0.00    +0.000 N 
ATOM      2  H   UNL     1       0.539  11.965  18.652  0.00  0.00    +0.000 HD
ENDROOT
BRANCH   1   3
ATOM      3  C   UNL     1      -1.132  11.766  19.774  0.00  0.00    +0.000 A 
ATOM      4  C   UNL     1      -1.531  12.428  21.008  0.00  0.00    +0.000 A 
ATOM      5  C   UNL     1      -0.735  12.801  22.149  0.00  0.00    +0.000 A 
ATOM      6  C   UNL     1      -1.237  13.383  23.304  0.00  0.00    +0.000 A 
ATOM      7  C   UNL     1      -2.587  13.632  23.380  0.00  0.00    +0.000 A 
ATOM      8 CL   UNL     1      -3.242  14.326  24.805  0.00  0.00    +0.000 Cl
ATOM      9  C   UNL     1      -3.402  13.313  22.299  0.00  0.00    +0.000 A 
ATOM     10  C   UNL     1      -2.906  12.729  21.134  0.00  0.00    +0.000 A 
ATOM     11  N   UNL     1      -3.810  12.480  20.183  0.00  0.00    +0.000 NA
ATOM     12  C   UNL     1      -3.440  11.905  19.034  0.00  0.00    +0.000 A 
ATOM     13  C   UNL     1      -4.421  11.706  18.072  0.00  0.00    +0.000 A 
ATOM     14  C   UNL     1      -4.153  11.111  16.834  0.00  0.00    +0.000 A 
ATOM     15  C   UNL     1      -2.864  10.690  16.550  0.00  0.00    +0.000 A 
ATOM     16  C   UNL     1      -1.866  10.888  17.509  0.00  0.00    +0.000 A 
ATOM     17  C   UNL     1      -2.121  11.504  18.766  0.00  0.00    +0.000 A 
BRANCH  15  18
ATOM     18  O   UNL     1      -2.444  10.091  15.396  0.00  0.00    +0.000 OA
ATOM     19  C   UNL     1      -3.317  10.154  14.275  0.00  0.00    +0.000 C 
ENDBRANCH  15  18
ENDBRANCH   1   3
BRANCH   1  20
ATOM     20  C   UNL     1       0.503   9.989  19.205  0.00  0.00    +0.000 C 
BRANCH  20  21
ATOM     21  C   UNL     1       1.374   9.664  18.012  0.00  0.00    +0.000 C 
BRANCH  21  22
ATOM     22  C   UNL     1       2.092   8.322  18.273  0.00  0.00    +0.000 C 
BRANCH  22  23
ATOM     23  C   UNL     1       3.335   8.063  17.389  0.00  0.00    +0.000 C 
BRANCH  23  24
ATOM     24  N   UNL     1       4.167   6.916  17.817  0.00  0.00    +0.000 NA
BRANCH  24  25
ATOM     25  C   UNL     1       4.693   6.182  16.640  0.00  0.00    +0.000 C 
BRANCH  25  26
ATOM     26  C   UNL     1       6.231   6.102  16.521  0.00  0.00    +0.000 C 
BRANCH  26  27
ATOM     27  C   UNL     1       6.792   4.714  16.190  0.00  0.00    +0.000 C 
BRANCH  27  28
ATOM     28  C   UNL     1       5.869   3.831  15.350  0.00  0.00    +0.000 C 
BRANCH  28  29
ATOM     29  C   UNL     1       5.651   4.376  13.940  0.00  0.00    +0.000 C 
ATOM     30  C   UNL     1       6.312   3.495  12.895  0.00  0.00    +0.000 C 
ENDBRANCH  28  29
ENDBRANCH  27  28
ENDBRANCH  26  27
ENDBRANCH  25  26
ENDBRANCH  24  25
BRANCH  24  31
ATOM     31  C   UNL     1       3.338   6.022  18.664  0.00  0.00    +0.000 C 
BRANCH  31  32
ATOM     32  C   UNL     1       3.083   4.595  18.154  0.00  0.00    +0.000 C 
BRANCH  32  33
ATOM     33  C   UNL     1       1.608   4.204  18.016  0.00  0.00    +0.000 C 
BRANCH  33  34
ATOM     34  C   UNL     1       1.356   2.743  18.391  0.00  0.00    +0.000 C 
BRANCH  34  36
ATOM     35  C   UNL     1       1.063   3.906  20.588  0.00  0.00    +0.000 C 
ATOM     36  C   UNL     1       1.004   2.568  19.865  0.00  0.00    +0.000 C 
ENDBRANCH  34  36
ENDBRANCH  33  34
ENDBRANCH  32  33
ENDBRANCH  31  32
ENDBRANCH  24  31
ENDBRANCH  23  24
ENDBRANCH  22  23
ENDBRANCH  21  22
ENDBRANCH  20  21
ENDBRANCH   1  20
TORSDOF 17
ENDMDL
MODEL 9
REMARK VINA RESULT:      -6.9      1.016      1.599
REMARK  Name = 
REMARK  20 active torsions:
REMARK  status: ('A' for Active; 'I' for Inactive)
REMARK    1  A    between atoms: C_1  and  C_2
REMARK    2  A    between atoms: C_2  and  C_3
REMARK    3  A    between atoms: C_3  and  C_4
REMARK    4  A    between atoms: C_4  and  C_5
REMARK    5  A    between atoms: C_5  and  C_6
REMARK    6  A    between atoms: C_6  and  N_7
REMARK    7  A    between atoms: N_7  and  C_8
REMARK    8  A    between atoms: N_7  and  C_14
REMARK    9  A    between atoms: C_8  and  C_9
REMARK   10  A    between atoms: C_9  and  C_10
REMARK   11  A    between atoms: C_10  and  C_11
REMARK   12  A    between atoms: C_11  and  C_12
REMARK   13  A    between atoms: C_12  and  C_13
REMARK   14  A    between atoms: C_14  and  C_15
REMARK   15  A    between atoms: C_15  and  C_16
REMARK   16  A    between atoms: C_16  and  C_17
REMARK   17  A    between atoms: C_17  and  N_18
REMARK   18  A    between atoms: N_18  and  C_19
REMARK   19  A    between atoms: C_31  and  O_32
REMARK   20  A    between atoms: O_32  and  C_33
REMARK                            x       y       z     vdW  Elec       q    Type
REMARK                         _______ _______ _______ _____ _____    ______ ____
ROOT
ATOM      1  N   UNL     1      -0.073  10.146  19.140  0.00  0.00    +0.000 N 
ATOM      2  H   UNL     1       0.444   9.975  19.998  0.00  0.00    +0.000 HD
ENDROOT
BRANCH   1   3
ATOM      3  C   UNL     1      -1.254  10.911  19.426  0.00  0.00    +0.000 A 
ATOM      4  C   UNL     1      -1.495  11.678  20.642  0.00  0.00    +0.000 A 
ATOM      5  C   UNL     1      -0.679  11.810  21.821  0.00  0.00    +0.000 A 
ATOM      6  C   UNL     1      -1.037  12.529  22.952  0.00  0.00    +0.000 A 
ATOM      7  C   UNL     1      -2.253  13.172  22.962  0.00  0.00    +0.000 A 
ATOM      8 CL   UNL     1      -2.736  14.048  24.355  0.00  0.00    +0.000 Cl
ATOM      9  C   UNL     1      -3.073  13.099  21.841  0.00  0.00    +0.000 A 
ATOM     10  C   UNL     1      -2.720  12.379  20.700  0.00  0.00    +0.000 A 
ATOM     11  N   UNL     1      -3.611  12.401  19.706  0.00  0.00    +0.000 NA
ATOM     12  C   UNL     1      -3.376  11.726  18.575  0.00  0.00    +0.000 A 
ATOM     13  C   UNL     1      -4.326  11.819  17.565  0.00  0.00    +0.000 A 
ATOM     14  C   UNL     1      -4.190  11.156  16.341  0.00  0.00    +0.000 A 
ATOM     15  C   UNL     1      -3.075  10.365  16.119  0.00  0.00    +0.000 A 
ATOM     16  C   UNL     1      -2.110  10.266  17.126  0.00  0.00    +0.000 A 
ATOM     17  C   UNL     1      -2.228  10.946  18.371  0.00  0.00    +0.000 A 
BRANCH  15  18
ATOM     18  O   UNL     1      -2.800   9.653  14.985  0.00  0.00    +0.000 OA
ATOM     19  C   UNL     1      -3.532   9.988  13.813  0.00  0.00    +0.000 C 
ENDBRANCH  15  18
ENDBRANCH   1   3
BRANCH   1  20
ATOM     20  C   UNL     1       0.797  10.585  18.071  0.00  0.00    +0.000 C 
BRANCH  20  21
ATOM     21  C   UNL     1       2.122   9.867  17.947  0.00  0.00    +0.000 C 
BRANCH  21  22
ATOM     22  C   UNL     1       1.949   8.417  18.449  0.00  0.00    +0.000 C 
BRANCH  22  23
ATOM     23  C   UNL     1       3.123   7.466  18.120  0.00  0.00    +0.000 C 
BRANCH  23  24
ATOM     24  N   UNL     1       3.017   6.121  18.730  0.00  0.00    +0.000 NA
BRANCH  24  25
ATOM     25  C   UNL     1       4.318   5.704  19.309  0.00  0.00    +0.000 C 
BRANCH  25  26
ATOM     26  C   UNL     1       5.203   4.809  18.416  0.00  0.00    +0.000 C 
BRANCH  26  27
ATOM     27  C   UNL     1       6.347   5.529  17.692  0.00  0.00    +0.000 C 
BRANCH  27  28
ATOM     28  C   UNL     1       7.196   4.638  16.785  0.00  0.00    +0.000 C 
BRANCH  28  29
ATOM     29  C   UNL     1       6.367   3.906  15.731  0.00  0.00    +0.000 C 
ATOM     30  C   UNL     1       5.792   4.870  14.709  0.00  0.00    +0.000 C 
ENDBRANCH  28  29
ENDBRANCH  27  28
ENDBRANCH  26  27
ENDBRANCH  25  26
ENDBRANCH  24  25
BRANCH  24  31
ATOM     31  C   UNL     1       2.578   5.163  17.685  0.00  0.00    +0.000 C 
BRANCH  31  32
ATOM     32  C   UNL     1       1.409   4.226  18.026  0.00  0.00    +0.000 C 
BRANCH  32  33
ATOM     33  C   UNL     1       1.268   3.869  19.509  0.00  0.00    +0.000 C 
BRANCH  33  34
ATOM     34  C   UNL     1       1.960   2.551  19.859  0.00  0.00    +0.000 C 
BRANCH  34  36
ATOM     35  C   UNL     1       3.719   1.433  18.473  0.00  0.00    +0.000 C 
ATOM     36  C   UNL     1       2.226   1.684  18.633  0.00  0.00    +0.000 C 
ENDBRANCH  34  36
ENDBRANCH  33  34
ENDBRANCH  32  33
ENDBRANCH  31  32
ENDBRANCH  24  31
ENDBRANCH  23  24
ENDBRANCH  22  23
ENDBRANCH  21  22
ENDBRANCH  20  21
ENDBRANCH   1  20
TORSDOF 17
ENDMDL
