MODEL 1
REMARK VINA RESULT:      -6.1      0.000      0.000
REMARK  Name = 
REMARK  9 active torsions:
REMARK  status: ('A' for Active; 'I' for Inactive)
REMARK    1  A    between atoms: C_1  and  O_2
REMARK    2  A    between atoms: O_2  and  C_3
REMARK    3  A    between atoms: C_3  and  C_4
REMARK    4  A    between atoms: C_4  and  C_5
REMARK    5  A    between atoms: C_4  and  O_6
REMARK    6  A    between atoms: O_6  and  C_7
REMARK    7  A    between atoms: C_19  and  C_20
REMARK    8  A    between atoms: C_20  and  O_21
REMARK    9  A    between atoms: CA_22  and  C_23
REMARK                            x       y       z     vdW  Elec       q    Type
REMARK                         _______ _______ _______ _____ _____    ______ ____
ROOT
ATOM      1  C   UNL     1       1.058   9.756  20.465  0.00  0.00    +0.000 A 
ATOM      2  N   UNL     1       1.847   8.707  20.128  0.00  0.00    +0.000 NA
ATOM      3  C   UNL     1       1.481   7.509  20.621  0.00  0.00    +0.000 A 
ATOM      4  N   UNL     1       2.126   6.408  20.080  0.00  0.00    +0.000 N 
ATOM      5  C   UNL     1       1.691   5.117  20.174  0.00  0.00    +0.000 C 
ATOM      6  O   UNL     1       0.775   4.752  20.917  0.00  0.00    +0.000 OA
ATOM      7  N   UNL     1       2.351   4.174  19.372  0.00  0.00    +0.000 N 
ATOM      8  C   UNL     1       1.885   2.794  19.479  0.00  0.00    +0.000 C 
ATOM      9  C   UNL     1       3.005   1.801  19.289  0.00  0.00    +0.000 C 
ATOM     10  C   UNL     1       3.631   1.987  17.918  0.00  0.00    +0.000 C 
ATOM     11  C   UNL     1       3.896   3.440  17.623  0.00  0.00    +0.000 A 
ATOM     12  C   UNL     1       4.773   3.773  16.578  0.00  0.00    +0.000 A 
ATOM     13  C   UNL     1       5.035   5.110  16.260  0.00  0.00    +0.000 A 
ATOM     14  CA  UNL     1       4.375   6.065  17.025  0.00  0.00    +0.000 A 
ATOM     15  N   UNL     1       3.520   5.772  18.041  0.00  0.00    +0.000 NA
ATOM     16  C   UNL     1       3.277   4.475  18.333  0.00  0.00    +0.000 A 
ATOM     17  N   UNL     1       0.476   7.334  21.486  0.00  0.00    +0.000 NA
ATOM     18  C   UNL     1      -0.290   8.397  21.776  0.00  0.00    +0.000 A 
ATOM     19  C   UNL     1      -0.066   9.645  21.259  0.00  0.00    +0.000 A 
ATOM     20 CL   UNL     1      -1.189  10.912  21.516  0.00  0.00    +0.000 Cl
ATOM     21  H   UNL     1       2.816   6.617  19.376  0.00  0.00    +0.000 HD
ENDROOT
BRANCH  14  22
ATOM     22  C   UNL     1       4.509   7.531  16.807  0.00  0.00    +0.000 C 
ATOM     23  O   UNL     1       3.636   8.347  17.075  0.00  0.00    +0.000 OA
ENDBRANCH  14  22
BRANCH   1  24
ATOM     24  O   UNL     1       1.417  11.030  20.056  0.00  0.00    +0.000 OA
BRANCH  24  25
ATOM     25  C   UNL     1       1.193  11.318  18.668  0.00  0.00    +0.000 C 
ATOM     26  C   UNL     1       0.003  12.273  18.570  0.00  0.00    +0.000 C 
BRANCH  25  27
ATOM     27  C   UNL     1       2.435  12.026  18.087  0.00  0.00    +0.000 C 
BRANCH  27  29
ATOM     28  C   UNL     1       3.473  14.125  18.346  0.00  0.00    +0.000 C 
ATOM     29  O   UNL     1       2.256  13.445  18.053  0.00  0.00    +0.000 OA
ENDBRANCH  27  29
ENDBRANCH  25  27
ENDBRANCH  24  25
ENDBRANCH   1  24
BRANCH  13  30
ATOM     30  C   UNL     1       5.973   5.446  15.140  0.00  0.00    +0.000 C 
BRANCH  30  31
ATOM     31  O   UNL     1       7.275   5.661  15.656  0.00  0.00    +0.000 OA
ATOM     32  H   UNL     1       7.761   4.823  15.495  0.00  0.00    +0.000 HD
ENDBRANCH  30  31
ENDBRANCH  13  30
TORSDOF 7
ENDMDL
MODEL 2
REMARK VINA RESULT:      -6.0      1.245      1.512
REMARK  Name = 
REMARK  9 active torsions:
REMARK  status: ('A' for Active; 'I' for Inactive)
REMARK    1  A    between atoms: C_1  and  O_2
REMARK    2  A    between atoms: O_2  and  C_3
REMARK    3  A    between atoms: C_3  and  C_4
REMARK    4  A    between atoms: C_4  and  C_5
REMARK    5  A    between atoms: C_4  and  O_6
REMARK    6  A    between atoms: O_6  and  C_7
REMARK    7  A    between atoms: C_19  and  C_20
REMARK    8  A    between atoms: C_20  and  O_21
REMARK    9  A    between atoms: CA_22  and  C_23
REMARK                            x       y       z     vdW  Elec       q    Type
REMARK                         _______ _______ _______ _____ _____    ______ ____
ROOT
ATOM      1  C   UNL     1       0.914  10.114  19.495  0.00  0.00    +0.000 A 
ATOM      2  N   UNL     1       1.810   9.103  19.386  0.00  0.00    +0.000 NA
ATOM      3  C   UNL     1       1.626   8.058  20.214  0.00  0.00    +0.000 A 
ATOM      4  N   UNL     1       2.375   6.925  19.935  0.00  0.00    +0.000 N 
ATOM      5  C   UNL     1       2.114   5.672  20.412  0.00  0.00    +0.000 C 
ATOM      6  O   UNL     1       1.293   5.432  21.302  0.00  0.00    +0.000 OA
ATOM      7  N   UNL     1       2.843   4.620  19.839  0.00  0.00    +0.000 N 
ATOM      8  C   UNL     1       2.562   3.282  20.354  0.00  0.00    +0.000 C 
ATOM      9  C   UNL     1       3.788   2.401  20.342  0.00  0.00    +0.000 C 
ATOM     10  C   UNL     1       4.310   2.265  18.923  0.00  0.00    +0.000 C 
ATOM     11  C   UNL     1       4.372   3.598  18.225  0.00  0.00    +0.000 A 
ATOM     12  C   UNL     1       5.142   3.720  17.057  0.00  0.00    +0.000 A 
ATOM     13  C   UNL     1       5.216   4.936  16.369  0.00  0.00    +0.000 A 
ATOM     14  CA  UNL     1       4.482   5.990  16.903  0.00  0.00    +0.000 A 
ATOM     15  N   UNL     1       3.726   5.901  18.031  0.00  0.00    +0.000 NA
ATOM     16  C   UNL     1       3.667   4.718  18.681  0.00  0.00    +0.000 A 
ATOM     17  N   UNL     1       0.700   8.023  21.178  0.00  0.00    +0.000 NA
ATOM     18  C   UNL     1      -0.179   9.036  21.237  0.00  0.00    +0.000 A 
ATOM     19  C   UNL     1      -0.143  10.108  20.385  0.00  0.00    +0.000 A 
ATOM     20 CL   UNL     1      -1.402  11.269  20.387  0.00  0.00    +0.000 Cl
ATOM     21  H   UNL     1       2.994   7.003  19.144  0.00  0.00    +0.000 HD
ENDROOT
BRANCH  14  22
ATOM     22  C   UNL     1       4.416   7.343  16.287  0.00  0.00    +0.000 C 
ATOM     23  O   UNL     1       3.566   8.181  16.561  0.00  0.00    +0.000 OA
ENDBRANCH  14  22
BRANCH   1  24
ATOM     24  O   UNL     1       1.085  11.255  18.729  0.00  0.00    +0.000 OA
BRANCH  24  25
ATOM     25  C   UNL     1       2.019  12.212  19.250  0.00  0.00    +0.000 C 
ATOM     26  C   UNL     1       2.824  12.773  18.076  0.00  0.00    +0.000 C 
BRANCH  25  27
ATOM     27  C   UNL     1       1.247  13.373  19.909  0.00  0.00    +0.000 C 
BRANCH  27  29
ATOM     28  C   UNL     1       0.408  14.184  21.957  0.00  0.00    +0.000 C 
ATOM     29  O   UNL     1       1.370  13.336  21.334  0.00  0.00    +0.000 OA
ENDBRANCH  27  29
ENDBRANCH  25  27
ENDBRANCH  24  25
ENDBRANCH   1  24
BRANCH  13  30
ATOM     30  C   UNL     1       6.041   5.046  15.123  0.00  0.00    +0.000 C 
BRANCH  30  31
ATOM     31  O   UNL     1       7.318   5.574  15.441  0.00  0.00    +0.000 OA
ATOM     32  H   UNL     1       7.851   5.477  14.622  0.00  0.00    +0.000 HD
ENDBRANCH  30  31
ENDBRANCH  13  30
TORSDOF 7
ENDMDL
MODEL 3
REMARK VINA RESULT:      -5.9      5.621      8.427
REMARK  Name = 
REMARK  9 active torsions:
REMARK  status: ('A' for Active; 'I' for Inactive)
REMARK    1  A    between atoms: C_1  and  O_2
REMARK    2  A    between atoms: O_2  and  C_3
REMARK    3  A    between atoms: C_3  and  C_4
REMARK    4  A    between atoms: C_4  and  C_5
REMARK    5  A    between atoms: C_4  and  O_6
REMARK    6  A    between atoms: O_6  and  C_7
REMARK    7  A    between atoms: C_19  and  C_20
REMARK    8  A    between atoms: C_20  and  O_21
REMARK    9  A    between atoms: CA_22  and  C_23
REMARK                            x       y       z     vdW  Elec       q    Type
REMARK                         _______ _______ _______ _____ _____    ______ ____
ROOT
ATOM      1  C   UNL     1      -4.483  13.836  23.239  0.00  0.00    +0.000 A 
ATOM      2  N   UNL     1      -4.109  12.934  22.299  0.00  0.00    +0.000 NA
ATOM      3  C   UNL     1      -4.902  12.849  21.214  0.00  0.00    +0.000 A 
ATOM      4  N   UNL     1      -4.394  12.123  20.147  0.00  0.00    +0.000 N 
ATOM      5  C   UNL     1      -4.853  12.185  18.863  0.00  0.00    +0.000 C 
ATOM      6  O   UNL     1      -5.901  12.749  18.534  0.00  0.00    +0.000 OA
ATOM      7  N   UNL     1      -4.068  11.554  17.887  0.00  0.00    +0.000 N 
ATOM      8  C   UNL     1      -4.565  11.620  16.514  0.00  0.00    +0.000 C 
ATOM      9  C   UNL     1      -4.214  10.384  15.724  0.00  0.00    +0.000 C 
ATOM     10  C   UNL     1      -2.706  10.215  15.676  0.00  0.00    +0.000 C 
ATOM     11  C   UNL     1      -2.084  10.405  17.035  0.00  0.00    +0.000 A 
ATOM     12  C   UNL     1      -0.773   9.950  17.252  0.00  0.00    +0.000 A 
ATOM     13  C   UNL     1      -0.151  10.120  18.494  0.00  0.00    +0.000 A 
ATOM     14  CA  UNL     1      -0.900  10.764  19.473  0.00  0.00    +0.000 A 
ATOM     15  N   UNL     1      -2.169  11.216  19.291  0.00  0.00    +0.000 NA
ATOM     16  C   UNL     1      -2.753  11.044  18.084  0.00  0.00    +0.000 A 
ATOM     17  N   UNL     1      -6.057  13.509  21.079  0.00  0.00    +0.000 NA
ATOM     18  C   UNL     1      -6.377  14.406  22.024  0.00  0.00    +0.000 A 
ATOM     19  C   UNL     1      -5.599  14.643  23.126  0.00  0.00    +0.000 A 
ATOM     20 CL   UNL     1      -5.963  15.931  24.194  0.00  0.00    +0.000 Cl
ATOM     21  H   UNL     1      -3.482  11.720  20.298  0.00  0.00    +0.000 HD
ENDROOT
BRANCH  14  22
ATOM     22  C   UNL     1      -0.389  11.058  20.840  0.00  0.00    +0.000 C 
ATOM     23  O   UNL     1      -0.978  11.753  21.657  0.00  0.00    +0.000 OA
ENDBRANCH  14  22
BRANCH   1  24
ATOM     24  O   UNL     1      -3.758  13.925  24.415  0.00  0.00    +0.000 OA
BRANCH  24  25
ATOM     25  C   UNL     1      -2.747  14.943  24.441  0.00  0.00    +0.000 C 
ATOM     26  C   UNL     1      -2.488  15.314  25.902  0.00  0.00    +0.000 C 
BRANCH  25  27
ATOM     27  C   UNL     1      -1.441  14.380  23.842  0.00  0.00    +0.000 C 
BRANCH  27  29
ATOM     28  C   UNL     1       0.301  14.989  22.378  0.00  0.00    +0.000 C 
ATOM     29  O   UNL     1      -1.101  15.043  22.621  0.00  0.00    +0.000 OA
ENDBRANCH  27  29
ENDBRANCH  25  27
ENDBRANCH  24  25
ENDBRANCH   1  24
BRANCH  13  30
ATOM     30  C   UNL     1       1.249   9.630  18.707  0.00  0.00    +0.000 C 
BRANCH  30  31
ATOM     31  O   UNL     1       1.975   9.720  17.493  0.00  0.00    +0.000 OA
ATOM     32  H   UNL     1       2.005  10.677  17.277  0.00  0.00    +0.000 HD
ENDBRANCH  30  31
ENDBRANCH  13  30
TORSDOF 7
ENDMDL
MODEL 4
REMARK VINA RESULT:      -5.9      1.885      4.604
REMARK  Name = 
REMARK  9 active torsions:
REMARK  status: ('A' for Active; 'I' for Inactive)
REMARK    1  A    between atoms: C_1  and  O_2
REMARK    2  A    between atoms: O_2  and  C_3
REMARK    3  A    between atoms: C_3  and  C_4
REMARK    4  A    between atoms: C_4  and  C_5
REMARK    5  A    between atoms: C_4  and  O_6
REMARK    6  A    between atoms: O_6  and  C_7
REMARK    7  A    between atoms: C_19  and  C_20
REMARK    8  A    between atoms: C_20  and  O_21
REMARK    9  A    between atoms: CA_22  and  C_23
REMARK                            x       y       z     vdW  Elec       q    Type
REMARK                         _______ _______ _______ _____ _____    ______ ____
ROOT
ATOM      1  C   UNL     1       0.732  10.166  19.753  0.00  0.00    +0.000 A 
ATOM      2  N   UNL     1       1.048   8.934  19.283  0.00  0.00    +0.000 NA
ATOM      3  C   UNL     1       1.905   8.899  18.245  0.00  0.00    +0.000 A 
ATOM      4  N   UNL     1       2.424   7.653  17.929  0.00  0.00    +0.000 N 
ATOM      5  C   UNL     1       3.533   7.433  17.164  0.00  0.00    +0.000 C 
ATOM      6  O   UNL     1       4.096   8.310  16.502  0.00  0.00    +0.000 OA
ATOM      7  N   UNL     1       4.031   6.123  17.147  0.00  0.00    +0.000 N 
ATOM      8  C   UNL     1       5.217   5.892  16.324  0.00  0.00    +0.000 C 
ATOM      9  C   UNL     1       5.227   4.510  15.719  0.00  0.00    +0.000 C 
ATOM     10  C   UNL     1       5.201   3.465  16.821  0.00  0.00    +0.000 C 
ATOM     11  C   UNL     1       4.167   3.788  17.867  0.00  0.00    +0.000 A 
ATOM     12  C   UNL     1       3.761   2.781  18.757  0.00  0.00    +0.000 A 
ATOM     13  C   UNL     1       2.814   3.042  19.753  0.00  0.00    +0.000 A 
ATOM     14  CA  UNL     1       2.321   4.341  19.807  0.00  0.00    +0.000 A 
ATOM     15  N   UNL     1       2.696   5.337  18.960  0.00  0.00    +0.000 NA
ATOM     16  C   UNL     1       3.613   5.066  18.005  0.00  0.00    +0.000 A 
ATOM     17  N   UNL     1       2.353   9.988  17.611  0.00  0.00    +0.000 NA
ATOM     18  C   UNL     1       2.032  11.186  18.122  0.00  0.00    +0.000 A 
ATOM     19  C   UNL     1       1.242  11.339  19.230  0.00  0.00    +0.000 A 
ATOM     20 CL   UNL     1       1.026  12.881  19.944  0.00  0.00    +0.000 Cl
ATOM     21  H   UNL     1       2.096   6.893  18.505  0.00  0.00    +0.000 HD
ENDROOT
BRANCH  14  22
ATOM     22  C   UNL     1       1.334   4.805  20.820  0.00  0.00    +0.000 C 
ATOM     23  O   UNL     1       1.111   5.983  21.070  0.00  0.00    +0.000 OA
ENDBRANCH  14  22
BRANCH   1  24
ATOM     24  O   UNL     1      -0.201  10.283  20.769  0.00  0.00    +0.000 OA
BRANCH  24  25
ATOM     25  C   UNL     1      -0.033   9.374  21.867  0.00  0.00    +0.000 C 
ATOM     26  C   UNL     1       1.457   9.309  22.202  0.00  0.00    +0.000 C 
BRANCH  25  27
ATOM     27  C   UNL     1      -0.786   9.919  23.099  0.00  0.00    +0.000 C 
BRANCH  27  29
ATOM     28  C   UNL     1      -1.935  11.975  23.149  0.00  0.00    +0.000 C 
ATOM     29  O   UNL     1      -0.661  11.341  23.198  0.00  0.00    +0.000 OA
ENDBRANCH  27  29
ENDBRANCH  25  27
ENDBRANCH  24  25
ENDBRANCH   1  24
BRANCH  13  30
ATOM     30  C   UNL     1       2.395   1.954  20.695  0.00  0.00    +0.000 C 
BRANCH  30  31
ATOM     31  O   UNL     1       2.917   2.215  21.987  0.00  0.00    +0.000 OA
ATOM     32  H   UNL     1       2.687   3.150  22.177  0.00  0.00    +0.000 HD
ENDBRANCH  30  31
ENDBRANCH  13  30
TORSDOF 7
ENDMDL
MODEL 5
REMARK VINA RESULT:      -5.8      0.820      1.452
REMARK  Name = 
REMARK  9 active torsions:
REMARK  status: ('A' for Active; 'I' for Inactive)
REMARK    1  A    between atoms: C_1  and  O_2
REMARK    2  A    between atoms: O_2  and  C_3
REMARK    3  A    between atoms: C_3  and  C_4
REMARK    4  A    between atoms: C_4  and  C_5
REMARK    5  A    between atoms: C_4  and  O_6
REMARK    6  A    between atoms: O_6  and  C_7
REMARK    7  A    between atoms: C_19  and  C_20
REMARK    8  A    between atoms: C_20  and  O_21
REMARK    9  A    between atoms: CA_22  and  C_23
REMARK                            x       y       z     vdW  Elec       q    Type
REMARK                         _______ _______ _______ _____ _____    ______ ____
ROOT
ATOM      1  C   UNL     1       1.079   9.714  20.510  0.00  0.00    +0.000 A 
ATOM      2  N   UNL     1       1.862   8.662  20.165  0.00  0.00    +0.000 NA
ATOM      3  C   UNL     1       1.489   7.463  20.649  0.00  0.00    +0.000 A 
ATOM      4  N   UNL     1       2.127   6.362  20.099  0.00  0.00    +0.000 N 
ATOM      5  C   UNL     1       1.685   5.073  20.184  0.00  0.00    +0.000 C 
ATOM      6  O   UNL     1       0.766   4.707  20.923  0.00  0.00    +0.000 OA
ATOM      7  N   UNL     1       2.340   4.133  19.375  0.00  0.00    +0.000 N 
ATOM      8  C   UNL     1       1.865   2.754  19.470  0.00  0.00    +0.000 C 
ATOM      9  C   UNL     1       2.980   1.756  19.274  0.00  0.00    +0.000 C 
ATOM     10  C   UNL     1       3.608   1.949  17.905  0.00  0.00    +0.000 C 
ATOM     11  C   UNL     1       3.882   3.403  17.621  0.00  0.00    +0.000 A 
ATOM     12  C   UNL     1       4.762   3.739  16.580  0.00  0.00    +0.000 A 
ATOM     13  C   UNL     1       5.032   5.076  16.272  0.00  0.00    +0.000 A 
ATOM     14  CA  UNL     1       4.377   6.029  17.044  0.00  0.00    +0.000 A 
ATOM     15  N   UNL     1       3.519   5.733  18.057  0.00  0.00    +0.000 NA
ATOM     16  C   UNL     1       3.269   4.436  18.339  0.00  0.00    +0.000 A 
ATOM     17  N   UNL     1       0.482   7.287  21.512  0.00  0.00    +0.000 NA
ATOM     18  C   UNL     1      -0.278   8.352  21.809  0.00  0.00    +0.000 A 
ATOM     19  C   UNL     1      -0.047   9.602  21.302  0.00  0.00    +0.000 A 
ATOM     20 CL   UNL     1      -1.162  10.875  21.568  0.00  0.00    +0.000 Cl
ATOM     21  H   UNL     1       2.819   6.573  19.397  0.00  0.00    +0.000 HD
ENDROOT
BRANCH  14  22
ATOM     22  C   UNL     1       4.520   7.496  16.837  0.00  0.00    +0.000 C 
ATOM     23  O   UNL     1       3.708   8.326  17.227  0.00  0.00    +0.000 OA
ENDBRANCH  14  22
BRANCH   1  24
ATOM     24  O   UNL     1       1.446  10.988  20.111  0.00  0.00    +0.000 OA
BRANCH  24  25
ATOM     25  C   UNL     1       1.012  11.372  18.798  0.00  0.00    +0.000 C 
ATOM     26  C   UNL     1       2.247  11.785  17.996  0.00  0.00    +0.000 C 
BRANCH  25  27
ATOM     27  C   UNL     1       0.362  10.159  18.100  0.00  0.00    +0.000 C 
BRANCH  27  29
ATOM     28  C   UNL     1      -1.400  11.723  18.177  0.00  0.00    +0.000 C 
ATOM     29  O   UNL     1      -1.030  10.384  17.858  0.00  0.00    +0.000 OA
ENDBRANCH  27  29
ENDBRANCH  25  27
ENDBRANCH  24  25
ENDBRANCH   1  24
BRANCH  13  30
ATOM     30  C   UNL     1       5.973   5.415  15.155  0.00  0.00    +0.000 C 
BRANCH  30  31
ATOM     31  O   UNL     1       7.287   5.564  15.666  0.00  0.00    +0.000 OA
ATOM     32  H   UNL     1       7.827   4.894  15.194  0.00  0.00    +0.000 HD
ENDBRANCH  30  31
ENDBRANCH  13  30
TORSDOF 7
ENDMDL
MODEL 6
REMARK VINA RESULT:      -5.8      6.476     11.692
REMARK  Name = 
REMARK  9 active torsions:
REMARK  status: ('A' for Active; 'I' for Inactive)
REMARK    1  A    between atoms: C_1  and  O_2
REMARK    2  A    between atoms: O_2  and  C_3
REMARK    3  A    between atoms: C_3  and  C_4
REMARK    4  A    between atoms: C_4  and  C_5
REMARK    5  A    between atoms: C_4  and  O_6
REMARK    6  A    between atoms: O_6  and  C_7
REMARK    7  A    between atoms: C_19  and  C_20
REMARK    8  A    between atoms: C_20  and  O_21
REMARK    9  A    between atoms: CA_22  and  C_23
REMARK                            x       y       z     vdW  Elec       q    Type
REMARK                         _______ _______ _______ _____ _____    ______ ____
ROOT
ATOM      1  C   UNL     1      -0.391  11.544  20.093  0.00  0.00    +0.000 A 
ATOM      2  N   UNL     1      -1.038  12.173  21.104  0.00  0.00    +0.000 NA
ATOM      3  C   UNL     1      -0.313  13.067  21.804  0.00  0.00    +0.000 A 
ATOM      4  N   UNL     1      -1.028  13.888  22.662  0.00  0.00    +0.000 N 
ATOM      5  C   UNL     1      -0.569  15.057  23.198  0.00  0.00    +0.000 C 
ATOM      6  O   UNL     1       0.608  15.426  23.137  0.00  0.00    +0.000 OA
ATOM      7  N   UNL     1      -1.514  15.858  23.855  0.00  0.00    +0.000 N 
ATOM      8  C   UNL     1      -1.017  17.106  24.429  0.00  0.00    +0.000 C 
ATOM      9  C   UNL     1      -1.754  17.483  25.691  0.00  0.00    +0.000 C 
ATOM     10  C   UNL     1      -3.233  17.652  25.392  0.00  0.00    +0.000 C 
ATOM     11  C   UNL     1      -3.763  16.516  24.557  0.00  0.00    +0.000 A 
ATOM     12  C   UNL     1      -5.151  16.319  24.479  0.00  0.00    +0.000 A 
ATOM     13  C   UNL     1      -5.687  15.285  23.704  0.00  0.00    +0.000 A 
ATOM     14  CA  UNL     1      -4.772  14.490  23.022  0.00  0.00    +0.000 A 
ATOM     15  N   UNL     1      -3.424  14.658  23.078  0.00  0.00    +0.000 NA
ATOM     16  C   UNL     1      -2.924  15.663  23.832  0.00  0.00    +0.000 A 
ATOM     17  N   UNL     1       0.996  13.272  21.623  0.00  0.00    +0.000 NA
ATOM     18  C   UNL     1       1.591  12.643  20.598  0.00  0.00    +0.000 A 
ATOM     19  C   UNL     1       0.929  11.782  19.763  0.00  0.00    +0.000 A 
ATOM     20 CL   UNL     1       1.695  11.161  18.363  0.00  0.00    +0.000 Cl
ATOM     21  H   UNL     1      -2.023  13.724  22.684  0.00  0.00    +0.000 HD
ENDROOT
BRANCH  14  22
ATOM     22  C   UNL     1      -5.163  13.368  22.127  0.00  0.00    +0.000 C 
ATOM     23  O   UNL     1      -5.454  12.245  22.521  0.00  0.00    +0.000 OA
ENDBRANCH  14  22
BRANCH   1  24
ATOM     24  O   UNL     1      -1.050  10.557  19.380  0.00  0.00    +0.000 OA
BRANCH  24  25
ATOM     25  C   UNL     1      -1.673  10.989  18.161  0.00  0.00    +0.000 C 
ATOM     26  C   UNL     1      -1.618   9.829  17.166  0.00  0.00    +0.000 C 
BRANCH  25  27
ATOM     27  C   UNL     1      -3.153  11.326  18.435  0.00  0.00    +0.000 C 
BRANCH  27  29
ATOM     28  C   UNL     1      -5.237  11.531  17.355  0.00  0.00    +0.000 C 
ATOM     29  O   UNL     1      -3.829  11.714  17.235  0.00  0.00    +0.000 OA
ENDBRANCH  27  29
ENDBRANCH  25  27
ENDBRANCH  24  25
ENDBRANCH   1  24
BRANCH  13  30
ATOM     30  C   UNL     1      -7.172  15.093  23.630  0.00  0.00    +0.000 C 
BRANCH  30  31
ATOM     31  O   UNL     1      -7.577  14.138  24.597  0.00  0.00    +0.000 OA
ATOM     32  H   UNL     1      -6.996  13.359  24.454  0.00  0.00    +0.000 HD
ENDBRANCH  30  31
ENDBRANCH  13  30
TORSDOF 7
ENDMDL
MODEL 7
REMARK VINA RESULT:      -5.7      5.991     10.496
REMARK  Name = 
REMARK  9 active torsions:
REMARK  status: ('A' for Active; 'I' for Inactive)
REMARK    1  A    between atoms: C_1  and  O_2
REMARK    2  A    between atoms: O_2  and  C_3
REMARK    3  A    between atoms: C_3  and  C_4
REMARK    4  A    between atoms: C_4  and  C_5
REMARK    5  A    between atoms: C_4  and  O_6
REMARK    6  A    between atoms: O_6  and  C_7
REMARK    7  A    between atoms: C_19  and  C_20
REMARK    8  A    between atoms: C_20  and  O_21
REMARK    9  A    between atoms: CA_22  and  C_23
REMARK                            x       y       z     vdW  Elec       q    Type
REMARK                         _______ _______ _______ _____ _____    ______ ____
ROOT
ATOM      1  C   UNL     1       0.129  11.352  19.010  0.00  0.00    +0.000 A 
ATOM      2  N   UNL     1      -0.910  12.150  19.359  0.00  0.00    +0.000 NA
ATOM      3  C   UNL     1      -2.103  11.837  18.820  0.00  0.00    +0.000 A 
ATOM      4  N   UNL     1      -3.203  12.482  19.365  0.00  0.00    +0.000 N 
ATOM      5  C   UNL     1      -4.501  12.085  19.219  0.00  0.00    +0.000 C 
ATOM      6  O   UNL     1      -4.868  11.213  18.425  0.00  0.00    +0.000 OA
ATOM      7  N   UNL     1      -5.447  12.730  20.028  0.00  0.00    +0.000 N 
ATOM      8  C   UNL     1      -6.835  12.303  19.867  0.00  0.00    +0.000 C 
ATOM      9  C   UNL     1      -7.806  13.437  20.086  0.00  0.00    +0.000 C 
ATOM     10  C   UNL     1      -7.640  13.994  21.488  0.00  0.00    +0.000 C 
ATOM     11  C   UNL     1      -6.189  14.209  21.831  0.00  0.00    +0.000 A 
ATOM     12  C   UNL     1      -5.861  15.028  22.923  0.00  0.00    +0.000 A 
ATOM     13  C   UNL     1      -4.527  15.242  23.286  0.00  0.00    +0.000 A 
ATOM     14  CA  UNL     1      -3.569  14.595  22.513  0.00  0.00    +0.000 A 
ATOM     15  N   UNL     1      -3.857  13.795  21.451  0.00  0.00    +0.000 NA
ATOM     16  C   UNL     1      -5.151  13.599  21.117  0.00  0.00    +0.000 A 
ATOM     17  N   UNL     1      -2.280  10.878  17.905  0.00  0.00    +0.000 NA
ATOM     18  C   UNL     1      -1.229  10.100  17.604  0.00  0.00    +0.000 A 
ATOM     19  C   UNL     1       0.010  10.269  18.161  0.00  0.00    +0.000 A 
ATOM     20 CL   UNL     1       1.257   9.128  17.882  0.00  0.00    +0.000 Cl
ATOM     21  H   UNL     1      -2.995  13.134  20.106  0.00  0.00    +0.000 HD
ENDROOT
BRANCH  14  22
ATOM     22  C   UNL     1      -2.106  14.682  22.772  0.00  0.00    +0.000 C 
ATOM     23  O   UNL     1      -1.530  14.071  23.664  0.00  0.00    +0.000 OA
ENDBRANCH  14  22
BRANCH   1  24
ATOM     24  O   UNL     1       1.400  11.659  19.466  0.00  0.00    +0.000 OA
BRANCH  24  25
ATOM     25  C   UNL     1       1.766  13.045  19.383  0.00  0.00    +0.000 C 
ATOM     26  C   UNL     1       2.408  13.443  20.713  0.00  0.00    +0.000 C 
BRANCH  25  27
ATOM     27  C   UNL     1       2.810  13.231  18.263  0.00  0.00    +0.000 C 
BRANCH  27  29
ATOM     28  C   UNL     1       4.457  14.887  17.953  0.00  0.00    +0.000 C 
ATOM     29  O   UNL     1       3.060  14.617  18.010  0.00  0.00    +0.000 OA
ENDBRANCH  27  29
ENDBRANCH  25  27
ENDBRANCH  24  25
ENDBRANCH   1  24
BRANCH  13  30
ATOM     30  C   UNL     1      -4.198  16.118  24.456  0.00  0.00    +0.000 C 
BRANCH  30  31
ATOM     31  O   UNL     1      -3.677  15.327  25.512  0.00  0.00    +0.000 OA
ATOM     32  H   UNL     1      -4.102  15.670  26.328  0.00  0.00    +0.000 HD
ENDBRANCH  30  31
ENDBRANCH  13  30
TORSDOF 7
ENDMDL
MODEL 8
REMARK VINA RESULT:      -5.7      7.691      9.089
REMARK  Name = 
REMARK  9 active torsions:
REMARK  status: ('A' for Active; 'I' for Inactive)
REMARK    1  A    between atoms: C_1  and  O_2
REMARK    2  A    between atoms: O_2  and  C_3
REMARK    3  A    between atoms: C_3  and  C_4
REMARK    4  A    between atoms: C_4  and  C_5
REMARK    5  A    between atoms: C_4  and  O_6
REMARK    6  A    between atoms: O_6  and  C_7
REMARK    7  A    between atoms: C_19  and  C_20
REMARK    8  A    between atoms: C_20  and  O_21
REMARK    9  A    between atoms: CA_22  and  C_23
REMARK                            x       y       z     vdW  Elec       q    Type
REMARK                         _______ _______ _______ _____ _____    ______ ____
ROOT
ATOM      1  C   UNL     1      -0.513  14.760  23.043  0.00  0.00    +0.000 A 
ATOM      2  N   UNL     1      -1.257  13.867  22.345  0.00  0.00    +0.000 NA
ATOM      3  C   UNL     1      -2.527  13.705  22.759  0.00  0.00    +0.000 A 
ATOM      4  N   UNL     1      -3.358  12.995  21.905  0.00  0.00    +0.000 N 
ATOM      5  C   UNL     1      -4.722  12.999  21.951  0.00  0.00    +0.000 C 
ATOM      6  O   UNL     1      -5.378  13.481  22.879  0.00  0.00    +0.000 OA
ATOM      7  N   UNL     1      -5.386  12.405  20.868  0.00  0.00    +0.000 N 
ATOM      8  C   UNL     1      -6.846  12.409  20.923  0.00  0.00    +0.000 C 
ATOM      9  C   UNL     1      -7.441  11.184  20.272  0.00  0.00    +0.000 C 
ATOM     10  C   UNL     1      -7.020  11.121  18.815  0.00  0.00    +0.000 C 
ATOM     11  C   UNL     1      -5.546  11.381  18.652  0.00  0.00    +0.000 A 
ATOM     12  C   UNL     1      -4.920  11.024  17.447  0.00  0.00    +0.000 A 
ATOM     13  C   UNL     1      -3.556  11.261  17.247  0.00  0.00    +0.000 A 
ATOM     14  CA  UNL     1      -2.879  11.870  18.298  0.00  0.00    +0.000 A 
ATOM     15  N   UNL     1      -3.458  12.229  19.475  0.00  0.00    +0.000 NA
ATOM     16  C   UNL     1      -4.777  11.993  19.649  0.00  0.00    +0.000 A 
ATOM     17  N   UNL     1      -3.034  14.280  23.855  0.00  0.00    +0.000 NA
ATOM     18  C   UNL     1      -2.269  15.171  24.504  0.00  0.00    +0.000 A 
ATOM     19  C   UNL     1      -0.993  15.484  24.116  0.00  0.00    +0.000 A 
ATOM     20 CL   UNL     1      -0.140  16.764  24.869  0.00  0.00    +0.000 Cl
ATOM     21  H   UNL     1      -2.920  12.661  21.061  0.00  0.00    +0.000 HD
ENDROOT
BRANCH  14  22
ATOM     22  C   UNL     1      -1.435  12.227  18.249  0.00  0.00    +0.000 C 
ATOM     23  O   UNL     1      -0.524  11.416  18.360  0.00  0.00    +0.000 OA
ENDBRANCH  14  22
BRANCH   1  24
ATOM     24  O   UNL     1       0.824  14.923  22.721  0.00  0.00    +0.000 OA
BRANCH  24  25
ATOM     25  C   UNL     1       1.138  14.830  21.323  0.00  0.00    +0.000 C 
ATOM     26  C   UNL     1       1.130  16.245  20.743  0.00  0.00    +0.000 C 
BRANCH  25  27
ATOM     27  C   UNL     1       2.554  14.243  21.156  0.00  0.00    +0.000 C 
BRANCH  27  29
ATOM     28  C   UNL     1       4.617  14.809  22.144  0.00  0.00    +0.000 C 
ATOM     29  O   UNL     1       3.298  14.323  22.375  0.00  0.00    +0.000 OA
ENDBRANCH  27  29
ENDBRANCH  25  27
ENDBRANCH  24  25
ENDBRANCH   1  24
BRANCH  13  30
ATOM     30  C   UNL     1      -2.907  10.875  15.953  0.00  0.00    +0.000 C 
BRANCH  30  31
ATOM     31  O   UNL     1      -2.117   9.713  16.143  0.00  0.00    +0.000 OA
ATOM     32  H   UNL     1      -1.321   9.846  15.584  0.00  0.00    +0.000 HD
ENDBRANCH  30  31
ENDBRANCH  13  30
TORSDOF 7
ENDMDL
MODEL 9
REMARK VINA RESULT:      -5.7      5.975      8.799
REMARK  Name = 
REMARK  9 active torsions:
REMARK  status: ('A' for Active; 'I' for Inactive)
REMARK    1  A    between atoms: C_1  and  O_2
REMARK    2  A    between atoms: O_2  and  C_3
REMARK    3  A    between atoms: C_3  and  C_4
REMARK    4  A    between atoms: C_4  and  C_5
REMARK    5  A    between atoms: C_4  and  O_6
REMARK    6  A    between atoms: O_6  and  C_7
REMARK    7  A    between atoms: C_19  and  C_20
REMARK    8  A    between atoms: C_20  and  O_21
REMARK    9  A    between atoms: CA_22  and  C_23
REMARK                            x       y       z     vdW  Elec       q    Type
REMARK                         _______ _______ _______ _____ _____    ______ ____
ROOT
ATOM      1  C   UNL     1      -4.545  14.446  23.301  0.00  0.00    +0.000 A 
ATOM      2  N   UNL     1      -4.154  13.467  22.448  0.00  0.00    +0.000 NA
ATOM      3  C   UNL     1      -4.922  13.293  21.356  0.00  0.00    +0.000 A 
ATOM      4  N   UNL     1      -4.393  12.479  20.366  0.00  0.00    +0.000 N 
ATOM      5  C   UNL     1      -4.822  12.435  19.071  0.00  0.00    +0.000 C 
ATOM      6  O   UNL     1      -5.859  12.973  18.671  0.00  0.00    +0.000 OA
ATOM      7  N   UNL     1      -4.018  11.722  18.170  0.00  0.00    +0.000 N 
ATOM      8  C   UNL     1      -4.483  11.675  16.785  0.00  0.00    +0.000 C 
ATOM      9  C   UNL     1      -4.120  10.376  16.109  0.00  0.00    +0.000 C 
ATOM     10  C   UNL     1      -2.612  10.199  16.111  0.00  0.00    +0.000 C 
ATOM     11  C   UNL     1      -2.020  10.500  17.463  0.00  0.00    +0.000 A 
ATOM     12  C   UNL     1      -0.717  10.061  17.748  0.00  0.00    +0.000 A 
ATOM     13  C   UNL     1      -0.123  10.332  18.986  0.00  0.00    +0.000 A 
ATOM     14  CA  UNL     1      -0.891  11.058  19.890  0.00  0.00    +0.000 A 
ATOM     15  N   UNL     1      -2.154  11.497  19.640  0.00  0.00    +0.000 NA
ATOM     16  C   UNL     1      -2.711  11.227  18.439  0.00  0.00    +0.000 A 
ATOM     17  N   UNL     1      -6.070  13.943  21.140  0.00  0.00    +0.000 NA
ATOM     18  C   UNL     1      -6.408  14.917  21.999  0.00  0.00    +0.000 A 
ATOM     19  C   UNL     1      -5.653  15.243  23.094  0.00  0.00    +0.000 A 
ATOM     20 CL   UNL     1      -6.036  16.617  24.042  0.00  0.00    +0.000 Cl
ATOM     21  H   UNL     1      -3.486  12.088  20.571  0.00  0.00    +0.000 HD
ENDROOT
BRANCH  14  22
ATOM     22  C   UNL     1      -0.410  11.464  21.238  0.00  0.00    +0.000 C 
ATOM     23  O   UNL     1      -1.149  11.742  22.175  0.00  0.00    +0.000 OA
ENDBRANCH  14  22
BRANCH   1  24
ATOM     24  O   UNL     1      -3.847  14.631  24.482  0.00  0.00    +0.000 OA
BRANCH  24  25
ATOM     25  C   UNL     1      -2.463  14.979  24.333  0.00  0.00    +0.000 C 
ATOM     26  C   UNL     1      -2.387  16.285  23.541  0.00  0.00    +0.000 C 
BRANCH  25  27
ATOM     27  C   UNL     1      -1.843  15.217  25.726  0.00  0.00    +0.000 C 
BRANCH  27  29
ATOM     28  C   UNL     1      -0.110  16.493  26.684  0.00  0.00    +0.000 C 
ATOM     29  O   UNL     1      -0.472  15.614  25.624  0.00  0.00    +0.000 OA
ENDBRANCH  27  29
ENDBRANCH  25  27
ENDBRANCH  24  25
ENDBRANCH   1  24
BRANCH  13  30
ATOM     30  C   UNL     1       1.269   9.858  19.271  0.00  0.00    +0.000 C 
BRANCH  30  31
ATOM     31  O   UNL     1       1.755   9.113  18.167  0.00  0.00    +0.000 OA
ATOM     32  H   UNL     1       2.709   8.968  18.350  0.00  0.00    +0.000 HD
ENDBRANCH  30  31
ENDBRANCH  13  30
TORSDOF 7
ENDMDL
