MODEL 1
REMARK VINA RESULT:      -7.1      0.000      0.000
REMARK  Name = 
REMARK  2 active torsions:
REMARK  status: ('A' for Active; 'I' for Inactive)
REMARK    1  A    between atoms: C_1  and  C_2
REMARK    2  A    between atoms: C_7  and  C_9
REMARK                            x       y       z     vdW  Elec       q    Type
REMARK                         _______ _______ _______ _____ _____    ______ ____
ROOT
ATOM      1  C   UNL     1       7.664   5.016  11.885  0.00  0.00    +0.000 C 
ATOM      2  C   UNL     1       7.258   4.908  13.308  0.00  0.00    +0.000 A 
ATOM      3  N   UNL     1       7.882   5.503  14.301  0.00  0.00    +0.000 NA
ATOM      4  N   UNL     1       7.263   5.273  15.510  0.00  0.00    +0.000 NA
ATOM      5  C   UNL     1       6.207   4.506  15.390  0.00  0.00    +0.000 A 
ATOM      6  N   UNL     1       5.321   4.085  16.351  0.00  0.00    +0.000 N 
ATOM      7  C   UNL     1       5.343   4.675  17.596  0.00  0.00    +0.000 C 
ATOM      8  O   UNL     1       6.064   5.606  17.941  0.00  0.00    +0.000 OA
ATOM      9  S   UNL     1       5.895   3.971  13.796  0.00  0.00    +0.000 S 
ATOM     10  H   UNL     1       4.601   3.440  16.069  0.00  0.00    +0.000 HD
ENDROOT
BRANCH   7  11
ATOM     11  C   UNL     1       4.369   4.179  18.605  0.00  0.00    +0.000 A 
ATOM     12  C   UNL     1       4.362   2.860  19.072  0.00  0.00    +0.000 A 
ATOM     13  C   UNL     1       3.487   2.496  20.102  0.00  0.00    +0.000 A 
ATOM     14  C   UNL     1       2.620   3.438  20.670  0.00  0.00    +0.000 A 
ATOM     15 CL   UNL     1       1.599   2.918  21.962  0.00  0.00    +0.000 Cl
ATOM     16  C   UNL     1       2.619   4.753  20.198  0.00  0.00    +0.000 A 
ATOM     17 CL   UNL     1       1.584   5.973  20.848  0.00  0.00    +0.000 Cl
ATOM     18  C   UNL     1       3.491   5.118  19.171  0.00  0.00    +0.000 A 
ENDBRANCH   7  11
TORSDOF 1
ENDMDL
MODEL 2
REMARK VINA RESULT:      -6.5      0.935      1.730
REMARK  Name = 
REMARK  2 active torsions:
REMARK  status: ('A' for Active; 'I' for Inactive)
REMARK    1  A    between atoms: C_1  and  C_2
REMARK    2  A    between atoms: C_7  and  C_9
REMARK                            x       y       z     vdW  Elec       q    Type
REMARK                         _______ _______ _______ _____ _____    ______ ____
ROOT
ATOM      1  C   UNL     1       7.625   4.718  11.551  0.00  0.00    +0.000 C 
ATOM      2  C   UNL     1       7.213   4.775  12.976  0.00  0.00    +0.000 A 
ATOM      3  N   UNL     1       7.803   5.520  13.885  0.00  0.00    +0.000 NA
ATOM      4  N   UNL     1       7.186   5.420  15.112  0.00  0.00    +0.000 NA
ATOM      5  C   UNL     1       6.166   4.597  15.090  0.00  0.00    +0.000 A 
ATOM      6  N   UNL     1       5.292   4.263  16.096  0.00  0.00    +0.000 N 
ATOM      7  C   UNL     1       5.278   5.008  17.255  0.00  0.00    +0.000 C 
ATOM      8  O   UNL     1       5.955   6.008  17.479  0.00  0.00    +0.000 OA
ATOM      9  S   UNL     1       5.889   3.849  13.578  0.00  0.00    +0.000 S 
ATOM     10  H   UNL     1       4.603   3.556  15.898  0.00  0.00    +0.000 HD
ENDROOT
BRANCH   7  11
ATOM     11  C   UNL     1       4.320   4.602  18.318  0.00  0.00    +0.000 A 
ATOM     12  C   UNL     1       3.041   5.156  18.440  0.00  0.00    +0.000 A 
ATOM     13  C   UNL     1       2.156   4.646  19.397  0.00  0.00    +0.000 A 
ATOM     14  C   UNL     1       2.537   3.587  20.231  0.00  0.00    +0.000 A 
ATOM     15 CL   UNL     1       1.374   2.990  21.359  0.00  0.00    +0.000 Cl
ATOM     16  C   UNL     1       3.817   3.040  20.116  0.00  0.00    +0.000 A 
ATOM     17 CL   UNL     1       4.361   1.731  21.103  0.00  0.00    +0.000 Cl
ATOM     18  C   UNL     1       4.701   3.547  19.163  0.00  0.00    +0.000 A 
ENDBRANCH   7  11
TORSDOF 1
ENDMDL
MODEL 3
REMARK VINA RESULT:      -6.5      5.815      7.790
REMARK  Name = 
REMARK  2 active torsions:
REMARK  status: ('A' for Active; 'I' for Inactive)
REMARK    1  A    between atoms: C_1  and  C_2
REMARK    2  A    between atoms: C_7  and  C_9
REMARK                            x       y       z     vdW  Elec       q    Type
REMARK                         _______ _______ _______ _____ _____    ______ ____
ROOT
ATOM      1  C   UNL     1      -0.894  12.285  22.748  0.00  0.00    +0.000 C 
ATOM      2  C   UNL     1      -0.338  11.170  21.942  0.00  0.00    +0.000 A 
ATOM      3  N   UNL     1      -0.128  11.229  20.645  0.00  0.00    +0.000 NA
ATOM      4  N   UNL     1       0.441  10.072  20.162  0.00  0.00    +0.000 NA
ATOM      5  C   UNL     1       0.629   9.180  21.104  0.00  0.00    +0.000 A 
ATOM      6  N   UNL     1       1.196   7.931  21.021  0.00  0.00    +0.000 N 
ATOM      7  C   UNL     1       1.882   7.573  19.882  0.00  0.00    +0.000 C 
ATOM      8  O   UNL     1       2.093   8.293  18.910  0.00  0.00    +0.000 OA
ATOM      9  S   UNL     1       0.098   9.661  22.655  0.00  0.00    +0.000 S 
ATOM     10  H   UNL     1       1.193   7.364  21.853  0.00  0.00    +0.000 HD
ENDROOT
BRANCH   7  11
ATOM     11  C   UNL     1       2.471   6.208  19.838  0.00  0.00    +0.000 A 
ATOM     12  C   UNL     1       3.669   5.917  19.179  0.00  0.00    +0.000 A 
ATOM     13  C   UNL     1       4.217   4.632  19.274  0.00  0.00    +0.000 A 
ATOM     14  C   UNL     1       3.577   3.636  20.023  0.00  0.00    +0.000 A 
ATOM     15 CL   UNL     1       4.337   2.089  20.121  0.00  0.00    +0.000 Cl
ATOM     16  C   UNL     1       2.375   3.923  20.674  0.00  0.00    +0.000 A 
ATOM     17 CL   UNL     1       1.528   2.752  21.620  0.00  0.00    +0.000 Cl
ATOM     18  C   UNL     1       1.827   5.203  20.580  0.00  0.00    +0.000 A 
ENDBRANCH   7  11
TORSDOF 1
ENDMDL
MODEL 4
REMARK VINA RESULT:      -6.3      5.641      7.779
REMARK  Name = 
REMARK  2 active torsions:
REMARK  status: ('A' for Active; 'I' for Inactive)
REMARK    1  A    between atoms: C_1  and  C_2
REMARK    2  A    between atoms: C_7  and  C_9
REMARK                            x       y       z     vdW  Elec       q    Type
REMARK                         _______ _______ _______ _____ _____    ______ ____
ROOT
ATOM      1  C   UNL     1      -0.970  11.532  22.107  0.00  0.00    +0.000 C 
ATOM      2  C   UNL     1      -0.120  10.395  21.673  0.00  0.00    +0.000 A 
ATOM      3  N   UNL     1       0.158   9.353  22.425  0.00  0.00    +0.000 NA
ATOM      4  N   UNL     1       0.926   8.426  21.755  0.00  0.00    +0.000 NA
ATOM      5  C   UNL     1       1.209   8.804  20.533  0.00  0.00    +0.000 A 
ATOM      6  N   UNL     1       1.916   8.144  19.557  0.00  0.00    +0.000 N 
ATOM      7  C   UNL     1       2.217   6.811  19.725  0.00  0.00    +0.000 C 
ATOM      8  O   UNL     1       1.869   6.105  20.667  0.00  0.00    +0.000 OA
ATOM      9  S   UNL     1       0.591  10.339  20.103  0.00  0.00    +0.000 S 
ATOM     10  H   UNL     1       2.082   8.633  18.692  0.00  0.00    +0.000 HD
ENDROOT
BRANCH   7  11
ATOM     11  C   UNL     1       2.990   6.143  18.643  0.00  0.00    +0.000 A 
ATOM     12  C   UNL     1       3.813   6.841  17.754  0.00  0.00    +0.000 A 
ATOM     13  C   UNL     1       4.594   6.133  16.833  0.00  0.00    +0.000 A 
ATOM     14  C   UNL     1       4.561   4.733  16.795  0.00  0.00    +0.000 A 
ATOM     15 CL   UNL     1       5.582   3.933  15.656  0.00  0.00    +0.000 Cl
ATOM     16  C   UNL     1       3.732   4.034  17.677  0.00  0.00    +0.000 A 
ATOM     17 CL   UNL     1       3.637   2.310  17.695  0.00  0.00    +0.000 Cl
ATOM     18  C   UNL     1       2.952   4.739  18.595  0.00  0.00    +0.000 A 
ENDBRANCH   7  11
TORSDOF 1
ENDMDL
MODEL 5
REMARK VINA RESULT:      -6.3      2.083      2.670
REMARK  Name = 
REMARK  2 active torsions:
REMARK  status: ('A' for Active; 'I' for Inactive)
REMARK    1  A    between atoms: C_1  and  C_2
REMARK    2  A    between atoms: C_7  and  C_9
REMARK                            x       y       z     vdW  Elec       q    Type
REMARK                         _______ _______ _______ _____ _____    ______ ____
ROOT
ATOM      1  C   UNL     1       7.404   3.736  11.815  0.00  0.00    +0.000 C 
ATOM      2  C   UNL     1       6.983   4.347  13.101  0.00  0.00    +0.000 A 
ATOM      3  N   UNL     1       7.726   5.174  13.803  0.00  0.00    +0.000 NA
ATOM      4  N   UNL     1       7.070   5.627  14.926  0.00  0.00    +0.000 NA
ATOM      5  C   UNL     1       5.867   5.120  15.038  0.00  0.00    +0.000 A 
ATOM      6  N   UNL     1       4.907   5.353  15.994  0.00  0.00    +0.000 N 
ATOM      7  C   UNL     1       5.063   6.409  16.865  0.00  0.00    +0.000 C 
ATOM      8  O   UNL     1       5.978   7.227  16.851  0.00  0.00    +0.000 OA
ATOM      9  S   UNL     1       5.442   4.020  13.801  0.00  0.00    +0.000 S 
ATOM     10  H   UNL     1       4.059   4.813  15.942  0.00  0.00    +0.000 HD
ENDROOT
BRANCH   7  11
ATOM     11  C   UNL     1       4.001   6.615  17.886  0.00  0.00    +0.000 A 
ATOM     12  C   UNL     1       3.854   5.793  19.007  0.00  0.00    +0.000 A 
ATOM     13  C   UNL     1       2.901   6.115  19.981  0.00  0.00    +0.000 A 
ATOM     14  C   UNL     1       2.094   7.252  19.843  0.00  0.00    +0.000 A 
ATOM     15 CL   UNL     1       0.969   7.601  21.106  0.00  0.00    +0.000 Cl
ATOM     16  C   UNL     1       2.233   8.069  18.718  0.00  0.00    +0.000 A 
ATOM     17 CL   UNL     1       1.281   9.489  18.477  0.00  0.00    +0.000 Cl
ATOM     18  C   UNL     1       3.183   7.750  17.747  0.00  0.00    +0.000 A 
ENDBRANCH   7  11
TORSDOF 1
ENDMDL
MODEL 6
REMARK VINA RESULT:      -6.3      4.102      5.085
REMARK  Name = 
REMARK  2 active torsions:
REMARK  status: ('A' for Active; 'I' for Inactive)
REMARK    1  A    between atoms: C_1  and  C_2
REMARK    2  A    between atoms: C_7  and  C_9
REMARK                            x       y       z     vdW  Elec       q    Type
REMARK                         _______ _______ _______ _____ _____    ______ ____
ROOT
ATOM      1  C   UNL     1       6.305   3.965  15.438  0.00  0.00    +0.000 C 
ATOM      2  C   UNL     1       5.526   5.052  16.081  0.00  0.00    +0.000 A 
ATOM      3  N   UNL     1       5.373   6.253  15.569  0.00  0.00    +0.000 NA
ATOM      4  N   UNL     1       4.562   7.047  16.350  0.00  0.00    +0.000 NA
ATOM      5  C   UNL     1       4.144   6.424  17.425  0.00  0.00    +0.000 A 
ATOM      6  N   UNL     1       3.303   6.867  18.418  0.00  0.00    +0.000 N 
ATOM      7  C   UNL     1       2.585   8.026  18.229  0.00  0.00    +0.000 C 
ATOM      8  O   UNL     1       2.575   8.712  17.211  0.00  0.00    +0.000 OA
ATOM      9  S   UNL     1       4.730   4.828  17.594  0.00  0.00    +0.000 S 
ATOM     10  H   UNL     1       3.150   6.255  19.203  0.00  0.00    +0.000 HD
ENDROOT
BRANCH   7  11
ATOM     11  C   UNL     1       1.694   8.468  19.336  0.00  0.00    +0.000 A 
ATOM     12  C   UNL     1       1.670   7.843  20.587  0.00  0.00    +0.000 A 
ATOM     13  C   UNL     1       0.886   8.382  21.614  0.00  0.00    +0.000 A 
ATOM     14  C   UNL     1       0.128   9.541  21.401  0.00  0.00    +0.000 A 
ATOM     15 CL   UNL     1      -0.783  10.164  22.730  0.00  0.00    +0.000 Cl
ATOM     16  C   UNL     1       0.144  10.160  20.148  0.00  0.00    +0.000 A 
ATOM     17 CL   UNL     1      -0.759  11.592  19.808  0.00  0.00    +0.000 Cl
ATOM     18  C   UNL     1       0.924   9.624  19.124  0.00  0.00    +0.000 A 
ENDBRANCH   7  11
TORSDOF 1
ENDMDL
MODEL 7
REMARK VINA RESULT:      -6.3      5.849      7.898
REMARK  Name = 
REMARK  2 active torsions:
REMARK  status: ('A' for Active; 'I' for Inactive)
REMARK    1  A    between atoms: C_1  and  C_2
REMARK    2  A    between atoms: C_7  and  C_9
REMARK                            x       y       z     vdW  Elec       q    Type
REMARK                         _______ _______ _______ _____ _____    ______ ____
ROOT
ATOM      1  C   UNL     1      -0.813  11.224  22.855  0.00  0.00    +0.000 C 
ATOM      2  C   UNL     1      -0.231  10.537  21.676  0.00  0.00    +0.000 A 
ATOM      3  N   UNL     1      -0.388  10.942  20.434  0.00  0.00    +0.000 NA
ATOM      4  N   UNL     1       0.301  10.148  19.543  0.00  0.00    +0.000 NA
ATOM      5  C   UNL     1       0.940   9.171  20.139  0.00  0.00    +0.000 A 
ATOM      6  N   UNL     1       1.752   8.203  19.599  0.00  0.00    +0.000 N 
ATOM      7  C   UNL     1       2.184   8.331  18.297  0.00  0.00    +0.000 C 
ATOM      8  O   UNL     1       1.952   9.277  17.550  0.00  0.00    +0.000 OA
ATOM      9  S   UNL     1       0.730   9.113  21.834  0.00  0.00    +0.000 S 
ATOM     10  H   UNL     1       2.104   7.493  20.220  0.00  0.00    +0.000 HD
ENDROOT
BRANCH   7  11
ATOM     11  C   UNL     1       3.056   7.254  17.756  0.00  0.00    +0.000 A 
ATOM     12  C   UNL     1       4.301   7.505  17.171  0.00  0.00    +0.000 A 
ATOM     13  C   UNL     1       5.112   6.432  16.785  0.00  0.00    +0.000 A 
ATOM     14  C   UNL     1       4.690   5.110  16.980  0.00  0.00    +0.000 A 
ATOM     15 CL   UNL     1       5.766   3.843  16.510  0.00  0.00    +0.000 Cl
ATOM     16  C   UNL     1       3.442   4.858  17.555  0.00  0.00    +0.000 A 
ATOM     17 CL   UNL     1       2.852   3.259  17.831  0.00  0.00    +0.000 Cl
ATOM     18  C   UNL     1       2.632   5.927  17.940  0.00  0.00    +0.000 A 
ENDBRANCH   7  11
TORSDOF 1
ENDMDL
MODEL 8
REMARK VINA RESULT:      -6.3      3.961      5.325
REMARK  Name = 
REMARK  2 active torsions:
REMARK  status: ('A' for Active; 'I' for Inactive)
REMARK    1  A    between atoms: C_1  and  C_2
REMARK    2  A    between atoms: C_7  and  C_9
REMARK                            x       y       z     vdW  Elec       q    Type
REMARK                         _______ _______ _______ _____ _____    ______ ____
ROOT
ATOM      1  C   UNL     1       6.624   4.147  15.527  0.00  0.00    +0.000 C 
ATOM      2  C   UNL     1       5.536   4.724  16.355  0.00  0.00    +0.000 A 
ATOM      3  N   UNL     1       4.802   4.029  17.196  0.00  0.00    +0.000 NA
ATOM      4  N   UNL     1       3.900   4.823  17.870  0.00  0.00    +0.000 NA
ATOM      5  C   UNL     1       3.976   6.080  17.507  0.00  0.00    +0.000 A 
ATOM      6  N   UNL     1       3.273   7.166  17.969  0.00  0.00    +0.000 N 
ATOM      7  C   UNL     1       2.523   7.046  19.119  0.00  0.00    +0.000 C 
ATOM      8  O   UNL     1       2.448   6.050  19.831  0.00  0.00    +0.000 OA
ATOM      9  S   UNL     1       5.131   6.399  16.287  0.00  0.00    +0.000 S 
ATOM     10  H   UNL     1       3.431   8.050  17.514  0.00  0.00    +0.000 HD
ENDROOT
BRANCH   7  11
ATOM     11  C   UNL     1       1.774   8.248  19.575  0.00  0.00    +0.000 A 
ATOM     12  C   UNL     1       1.423   9.296  18.718  0.00  0.00    +0.000 A 
ATOM     13  C   UNL     1       0.624  10.341  19.195  0.00  0.00    +0.000 A 
ATOM     14  C   UNL     1       0.171  10.347  20.521  0.00  0.00    +0.000 A 
ATOM     15 CL   UNL     1      -0.843  11.652  21.021  0.00  0.00    +0.000 Cl
ATOM     16  C   UNL     1       0.528   9.305  21.380  0.00  0.00    +0.000 A 
ATOM     17 CL   UNL     1       0.007   9.237  23.025  0.00  0.00    +0.000 Cl
ATOM     18  C   UNL     1       1.326   8.262  20.907  0.00  0.00    +0.000 A 
ENDBRANCH   7  11
TORSDOF 1
ENDMDL
MODEL 9
REMARK VINA RESULT:      -6.2      4.280      7.099
REMARK  Name = 
REMARK  2 active torsions:
REMARK  status: ('A' for Active; 'I' for Inactive)
REMARK    1  A    between atoms: C_1  and  C_2
REMARK    2  A    between atoms: C_7  and  C_9
REMARK                            x       y       z     vdW  Elec       q    Type
REMARK                         _______ _______ _______ _____ _____    ______ ____
ROOT
ATOM      1  C   UNL     1       1.464   2.529  21.655  0.00  0.00    +0.000 C 
ATOM      2  C   UNL     1       2.200   3.224  20.570  0.00  0.00    +0.000 A 
ATOM      3  N   UNL     1       2.608   4.473  20.637  0.00  0.00    +0.000 NA
ATOM      4  N   UNL     1       3.309   4.847  19.511  0.00  0.00    +0.000 NA
ATOM      5  C   UNL     1       3.395   3.877  18.634  0.00  0.00    +0.000 A 
ATOM      6  N   UNL     1       4.034   3.854  17.419  0.00  0.00    +0.000 N 
ATOM      7  C   UNL     1       4.910   4.868  17.096  0.00  0.00    +0.000 C 
ATOM      8  O   UNL     1       5.231   5.803  17.824  0.00  0.00    +0.000 OA
ATOM      9  S   UNL     1       2.600   2.434  19.090  0.00  0.00    +0.000 S 
ATOM     10  H   UNL     1       3.932   3.026  16.855  0.00  0.00    +0.000 HD
ENDROOT
BRANCH   7  11
ATOM     11  C   UNL     1       5.572   4.802  15.765  0.00  0.00    +0.000 A 
ATOM     12  C   UNL     1       6.907   5.164  15.562  0.00  0.00    +0.000 A 
ATOM     13  C   UNL     1       7.492   4.971  14.305  0.00  0.00    +0.000 A 
ATOM     14  C   UNL     1       6.753   4.419  13.250  0.00  0.00    +0.000 A 
ATOM     15 CL   UNL     1       7.559   4.179  11.741  0.00  0.00    +0.000 Cl
ATOM     16  C   UNL     1       5.416   4.066  13.450  0.00  0.00    +0.000 A 
ATOM     17 CL   UNL     1       4.441   3.377  12.202  0.00  0.00    +0.000 Cl
ATOM     18  C   UNL     1       4.832   4.258  14.702  0.00  0.00    +0.000 A 
ENDBRANCH   7  11
TORSDOF 1
ENDMDL
