MODEL 1
REMARK VINA RESULT:      -7.5      0.000      0.000
REMARK  Name = 
REMARK  5 active torsions:
REMARK  status: ('A' for Active; 'I' for Inactive)
REMARK    1  A    between atoms: C_1  and  C_2
REMARK    2  A    between atoms: C_2  and  C_3
REMARK    3  A    between atoms: N_8  and  C_9
REMARK    4  A    between atoms: C_9  and  C_10
REMARK    5  A    between atoms: C_9  and  C_11
REMARK                            x       y       z     vdW  Elec       q    Type
REMARK                         _______ _______ _______ _____ _____    ______ ____
ROOT
ATOM      1  C   UNL     1       2.907   3.536  20.266  0.00  0.00    +0.000 A 
ATOM      2  N   UNL     1       3.463   2.414  19.833  0.00  0.00    +0.000 NA
ATOM      3  N   UNL     1       4.040   2.648  18.612  0.00  0.00    +0.000 NA
ATOM      4  C   UNL     1       3.820   3.907  18.321  0.00  0.00    +0.000 A 
ATOM      5  C   UNL     1       4.287   4.611  17.151  0.00  0.00    +0.000 A 
ATOM      6  N   UNL     1       5.033   3.977  16.179  0.00  0.00    +0.000 N 
ATOM      7  N   UNL     1       3.998   5.880  17.038  0.00  0.00    +0.000 NA
ATOM      8  C   UNL     1       3.226   6.525  18.027  0.00  0.00    +0.000 A 
ATOM      9  C   UNL     1       2.918   7.869  17.816  0.00  0.00    +0.000 A 
ATOM     10  C   UNL     1       2.172   8.563  18.756  0.00  0.00    +0.000 A 
ATOM     11  F   UNL     1       1.883   9.855  18.547  0.00  0.00    +0.000 F 
ATOM     12  C   UNL     1       1.721   7.940  19.913  0.00  0.00    +0.000 A 
ATOM     13  C   UNL     1       2.011   6.591  20.144  0.00  0.00    +0.000 A 
ATOM     14  C   UNL     1       2.761   5.885  19.201  0.00  0.00    +0.000 A 
ATOM     15  N   UNL     1       3.106   4.523  19.316  0.00  0.00    +0.000 N 
ATOM     16  H   UNL     1       5.238   3.001  16.373  0.00  0.00    +0.000 HD
ENDROOT
BRANCH   6  17
ATOM     17  C   UNL     1       5.991   4.691  15.348  0.00  0.00    +0.000 C 
ATOM     18  C   UNL     1       7.331   4.780  16.075  0.00  0.00    +0.000 C 
ATOM     19  C   UNL     1       6.150   3.981  14.009  0.00  0.00    +0.000 C 
ENDBRANCH   6  17
BRANCH   1  21
ATOM     20  C   UNL     1       1.332   2.474  21.904  0.00  0.00    +0.000 C 
ATOM     21  C   UNL     1       2.203   3.681  21.571  0.00  0.00    +0.000 C 
ENDBRANCH   1  21
TORSDOF 2
ENDMDL
MODEL 2
REMARK VINA RESULT:      -7.1      2.422      4.950
REMARK  Name = 
REMARK  5 active torsions:
REMARK  status: ('A' for Active; 'I' for Inactive)
REMARK    1  A    between atoms: C_1  and  C_2
REMARK    2  A    between atoms: C_2  and  C_3
REMARK    3  A    between atoms: N_8  and  C_9
REMARK    4  A    between atoms: C_9  and  C_10
REMARK    5  A    between atoms: C_9  and  C_11
REMARK                            x       y       z     vdW  Elec       q    Type
REMARK                         _______ _______ _______ _____ _____    ______ ____
ROOT
ATOM      1  C   UNL     1       2.821   4.226  20.038  0.00  0.00    +0.000 A 
ATOM      2  N   UNL     1       1.966   4.797  20.873  0.00  0.00    +0.000 NA
ATOM      3  N   UNL     1       1.772   6.098  20.489  0.00  0.00    +0.000 NA
ATOM      4  C   UNL     1       2.516   6.297  19.429  0.00  0.00    +0.000 A 
ATOM      5  C   UNL     1       2.593   7.511  18.651  0.00  0.00    +0.000 A 
ATOM      6  N   UNL     1       1.861   8.630  18.988  0.00  0.00    +0.000 N 
ATOM      7  N   UNL     1       3.370   7.522  17.600  0.00  0.00    +0.000 NA
ATOM      8  C   UNL     1       4.126   6.381  17.263  0.00  0.00    +0.000 A 
ATOM      9  C   UNL     1       4.968   6.482  16.154  0.00  0.00    +0.000 A 
ATOM     10  C   UNL     1       5.730   5.392  15.763  0.00  0.00    +0.000 A 
ATOM     11  F   UNL     1       6.533   5.497  14.696  0.00  0.00    +0.000 F 
ATOM     12  C   UNL     1       5.671   4.191  16.460  0.00  0.00    +0.000 A 
ATOM     13  C   UNL     1       4.841   4.068  17.579  0.00  0.00    +0.000 A 
ATOM     14  C   UNL     1       4.071   5.162  17.980  0.00  0.00    +0.000 A 
ATOM     15  N   UNL     1       3.208   5.162  19.095  0.00  0.00    +0.000 N 
ATOM     16  H   UNL     1       1.259   8.513  19.799  0.00  0.00    +0.000 HD
ENDROOT
BRANCH   6  17
ATOM     17  C   UNL     1       1.436   9.607  17.996  0.00  0.00    +0.000 C 
ATOM     18  C   UNL     1      -0.076   9.805  18.091  0.00  0.00    +0.000 C 
ATOM     19  C   UNL     1       2.167  10.925  18.216  0.00  0.00    +0.000 C 
ENDBRANCH   6  17
BRANCH   1  21
ATOM     20  C   UNL     1       2.438   1.884  19.225  0.00  0.00    +0.000 C 
ATOM     21  C   UNL     1       3.261   2.805  20.120  0.00  0.00    +0.000 C 
ENDBRANCH   1  21
TORSDOF 2
ENDMDL
MODEL 3
REMARK VINA RESULT:      -6.8      2.341      5.147
REMARK  Name = 
REMARK  5 active torsions:
REMARK  status: ('A' for Active; 'I' for Inactive)
REMARK    1  A    between atoms: C_1  and  C_2
REMARK    2  A    between atoms: C_2  and  C_3
REMARK    3  A    between atoms: N_8  and  C_9
REMARK    4  A    between atoms: C_9  and  C_10
REMARK    5  A    between atoms: C_9  and  C_11
REMARK                            x       y       z     vdW  Elec       q    Type
REMARK                         _______ _______ _______ _____ _____    ______ ____
ROOT
ATOM      1  C   UNL     1       2.041   2.883  19.222  0.00  0.00    +0.000 A 
ATOM      2  N   UNL     1       1.269   2.824  20.296  0.00  0.00    +0.000 NA
ATOM      3  N   UNL     1       1.164   4.078  20.838  0.00  0.00    +0.000 NA
ATOM      4  C   UNL     1       1.879   4.878  20.086  0.00  0.00    +0.000 A 
ATOM      5  C   UNL     1       2.022   6.306  20.248  0.00  0.00    +0.000 A 
ATOM      6  N   UNL     1       1.395   6.981  21.275  0.00  0.00    +0.000 N 
ATOM      7  N   UNL     1       2.755   6.955  19.382  0.00  0.00    +0.000 NA
ATOM      8  C   UNL     1       3.404   6.262  18.339  0.00  0.00    +0.000 A 
ATOM      9  C   UNL     1       4.207   7.014  17.481  0.00  0.00    +0.000 A 
ATOM     10  C   UNL     1       4.863   6.395  16.428  0.00  0.00    +0.000 A 
ATOM     11  F   UNL     1       5.629   7.125  15.606  0.00  0.00    +0.000 F 
ATOM     12  C   UNL     1       4.736   5.028  16.211  0.00  0.00    +0.000 A 
ATOM     13  C   UNL     1       3.943   4.252  17.063  0.00  0.00    +0.000 A 
ATOM     14  C   UNL     1       3.280   4.868  18.126  0.00  0.00    +0.000 A 
ATOM     15  N   UNL     1       2.465   4.191  19.055  0.00  0.00    +0.000 N 
ATOM     16  H   UNL     1       0.818   6.397  21.874  0.00  0.00    +0.000 HD
ENDROOT
BRANCH   6  17
ATOM     17  C   UNL     1       1.010   8.380  21.162  0.00  0.00    +0.000 C 
ATOM     18  C   UNL     1      -0.509   8.500  21.252  0.00  0.00    +0.000 C 
ATOM     19  C   UNL     1       1.682   9.195  22.260  0.00  0.00    +0.000 C 
ENDBRANCH   6  17
BRANCH   1  21
ATOM     20  C   UNL     1       3.755   1.148  18.636  0.00  0.00    +0.000 C 
ATOM     21  C   UNL     1       2.370   1.720  18.351  0.00  0.00    +0.000 C 
ENDBRANCH   1  21
TORSDOF 2
ENDMDL
MODEL 4
REMARK VINA RESULT:      -6.8      2.678      6.207
REMARK  Name = 
REMARK  5 active torsions:
REMARK  status: ('A' for Active; 'I' for Inactive)
REMARK    1  A    between atoms: C_1  and  C_2
REMARK    2  A    between atoms: C_2  and  C_3
REMARK    3  A    between atoms: N_8  and  C_9
REMARK    4  A    between atoms: C_9  and  C_10
REMARK    5  A    between atoms: C_9  and  C_11
REMARK                            x       y       z     vdW  Elec       q    Type
REMARK                         _______ _______ _______ _____ _____    ______ ____
ROOT
ATOM      1  C   UNL     1       4.354   5.904  17.414  0.00  0.00    +0.000 A 
ATOM      2  N   UNL     1       4.229   7.140  16.954  0.00  0.00    +0.000 NA
ATOM      3  N   UNL     1       3.333   7.818  17.739  0.00  0.00    +0.000 NA
ATOM      4  C   UNL     1       2.924   6.980  18.660  0.00  0.00    +0.000 A 
ATOM      5  C   UNL     1       2.010   7.272  19.739  0.00  0.00    +0.000 A 
ATOM      6  N   UNL     1       1.448   8.522  19.888  0.00  0.00    +0.000 N 
ATOM      7  N   UNL     1       1.736   6.318  20.590  0.00  0.00    +0.000 NA
ATOM      8  C   UNL     1       2.303   5.037  20.430  0.00  0.00    +0.000 A 
ATOM      9  C   UNL     1       1.927   4.057  21.350  0.00  0.00    +0.000 A 
ATOM     10  C   UNL     1       2.459   2.780  21.255  0.00  0.00    +0.000 A 
ATOM     11  F   UNL     1       2.095   1.846  22.144  0.00  0.00    +0.000 F 
ATOM     12  C   UNL     1       3.364   2.455  20.251  0.00  0.00    +0.000 A 
ATOM     13  C   UNL     1       3.750   3.418  19.313  0.00  0.00    +0.000 A 
ATOM     14  C   UNL     1       3.218   4.706  19.402  0.00  0.00    +0.000 A 
ATOM     15  N   UNL     1       3.521   5.755  18.510  0.00  0.00    +0.000 N 
ATOM     16  H   UNL     1       1.750   9.206  19.200  0.00  0.00    +0.000 HD
ENDROOT
BRANCH   6  17
ATOM     17  C   UNL     1       1.040   9.039  21.186  0.00  0.00    +0.000 C 
ATOM     18  C   UNL     1       1.014  10.566  21.142  0.00  0.00    +0.000 C 
ATOM     19  C   UNL     1      -0.330   8.487  21.560  0.00  0.00    +0.000 C 
ENDBRANCH   6  17
BRANCH   1  21
ATOM     20  C   UNL     1       5.533   5.102  15.351  0.00  0.00    +0.000 C 
ATOM     21  C   UNL     1       5.259   4.873  16.834  0.00  0.00    +0.000 C 
ENDBRANCH   1  21
TORSDOF 2
ENDMDL
MODEL 5
REMARK VINA RESULT:      -6.8      2.508      5.509
REMARK  Name = 
REMARK  5 active torsions:
REMARK  status: ('A' for Active; 'I' for Inactive)
REMARK    1  A    between atoms: C_1  and  C_2
REMARK    2  A    between atoms: C_2  and  C_3
REMARK    3  A    between atoms: N_8  and  C_9
REMARK    4  A    between atoms: C_9  and  C_10
REMARK    5  A    between atoms: C_9  and  C_11
REMARK                            x       y       z     vdW  Elec       q    Type
REMARK                         _______ _______ _______ _____ _____    ______ ____
ROOT
ATOM      1  C   UNL     1       5.463   5.512  16.993  0.00  0.00    +0.000 A 
ATOM      2  N   UNL     1       5.575   6.516  16.136  0.00  0.00    +0.000 NA
ATOM      3  N   UNL     1       4.574   7.420  16.378  0.00  0.00    +0.000 NA
ATOM      4  C   UNL     1       3.867   6.947  17.375  0.00  0.00    +0.000 A 
ATOM      5  C   UNL     1       2.737   7.589  18.005  0.00  0.00    +0.000 A 
ATOM      6  N   UNL     1       2.273   8.814  17.574  0.00  0.00    +0.000 N 
ATOM      7  N   UNL     1       2.167   6.983  19.013  0.00  0.00    +0.000 NA
ATOM      8  C   UNL     1       2.636   5.726  19.445  0.00  0.00    +0.000 A 
ATOM      9  C   UNL     1       1.948   5.119  20.497  0.00  0.00    +0.000 A 
ATOM     10  C   UNL     1       2.366   3.887  20.976  0.00  0.00    +0.000 A 
ATOM     11  F   UNL     1       1.702   3.313  21.988  0.00  0.00    +0.000 F 
ATOM     12  C   UNL     1       3.464   3.239  20.424  0.00  0.00    +0.000 A 
ATOM     13  C   UNL     1       4.165   3.824  19.364  0.00  0.00    +0.000 A 
ATOM     14  C   UNL     1       3.750   5.065  18.875  0.00  0.00    +0.000 A 
ATOM     15  N   UNL     1       4.367   5.746  17.806  0.00  0.00    +0.000 N 
ATOM     16  H   UNL     1       2.803   9.222  16.810  0.00  0.00    +0.000 HD
ENDROOT
BRANCH   6  17
ATOM     17  C   UNL     1       1.595   9.743  18.466  0.00  0.00    +0.000 C 
ATOM     18  C   UNL     1       2.183  11.142  18.289  0.00  0.00    +0.000 C 
ATOM     19  C   UNL     1       0.099   9.747  18.176  0.00  0.00    +0.000 C 
ENDBRANCH   6  17
BRANCH   1  21
ATOM     20  C   UNL     1       7.669   4.654  17.824  0.00  0.00    +0.000 C 
ATOM     21  C   UNL     1       6.388   4.346  17.055  0.00  0.00    +0.000 C 
ENDBRANCH   1  21
TORSDOF 2
ENDMDL
MODEL 6
REMARK VINA RESULT:      -6.6      2.735      5.807
REMARK  Name = 
REMARK  5 active torsions:
REMARK  status: ('A' for Active; 'I' for Inactive)
REMARK    1  A    between atoms: C_1  and  C_2
REMARK    2  A    between atoms: C_2  and  C_3
REMARK    3  A    between atoms: N_8  and  C_9
REMARK    4  A    between atoms: C_9  and  C_10
REMARK    5  A    between atoms: C_9  and  C_11
REMARK                            x       y       z     vdW  Elec       q    Type
REMARK                         _______ _______ _______ _____ _____    ______ ____
ROOT
ATOM      1  C   UNL     1       5.805   5.608  16.894  0.00  0.00    +0.000 A 
ATOM      2  N   UNL     1       6.113   6.889  16.758  0.00  0.00    +0.000 NA
ATOM      3  N   UNL     1       5.025   7.647  17.102  0.00  0.00    +0.000 NA
ATOM      4  C   UNL     1       4.071   6.813  17.437  0.00  0.00    +0.000 A 
ATOM      5  C   UNL     1       2.755   7.165  17.917  0.00  0.00    +0.000 A 
ATOM      6  N   UNL     1       2.367   8.481  18.055  0.00  0.00    +0.000 N 
ATOM      7  N   UNL     1       1.936   6.197  18.235  0.00  0.00    +0.000 NA
ATOM      8  C   UNL     1       2.331   4.852  18.082  0.00  0.00    +0.000 A 
ATOM      9  C   UNL     1       1.387   3.874  18.398  0.00  0.00    +0.000 A 
ATOM     10  C   UNL     1       1.716   2.532  18.281  0.00  0.00    +0.000 A 
ATOM     11  F   UNL     1       0.805   1.600  18.589  0.00  0.00    +0.000 F 
ATOM     12  C   UNL     1       2.978   2.140  17.850  0.00  0.00    +0.000 A 
ATOM     13  C   UNL     1       3.938   3.102  17.520  0.00  0.00    +0.000 A 
ATOM     14  C   UNL     1       3.614   4.456  17.635  0.00  0.00    +0.000 A 
ATOM     15  N   UNL     1       4.491   5.514  17.322  0.00  0.00    +0.000 N 
ATOM     16  H   UNL     1       3.084   9.160  17.819  0.00  0.00    +0.000 HD
ENDROOT
BRANCH   6  17
ATOM     17  C   UNL     1       1.372   8.897  19.033  0.00  0.00    +0.000 C 
ATOM     18  C   UNL     1       1.798   8.432  20.424  0.00  0.00    +0.000 C 
ATOM     19  C   UNL     1       1.208  10.411  18.997  0.00  0.00    +0.000 C 
ENDBRANCH   6  17
BRANCH   1  21
ATOM     20  C   UNL     1       6.676   3.982  15.195  0.00  0.00    +0.000 C 
ATOM     21  C   UNL     1       6.742   4.480  16.635  0.00  0.00    +0.000 C 
ENDBRANCH   1  21
TORSDOF 2
ENDMDL
MODEL 7
REMARK VINA RESULT:      -6.4      3.354      5.932
REMARK  Name = 
REMARK  5 active torsions:
REMARK  status: ('A' for Active; 'I' for Inactive)
REMARK    1  A    between atoms: C_1  and  C_2
REMARK    2  A    between atoms: C_2  and  C_3
REMARK    3  A    between atoms: N_8  and  C_9
REMARK    4  A    between atoms: C_9  and  C_10
REMARK    5  A    between atoms: C_9  and  C_11
REMARK                            x       y       z     vdW  Elec       q    Type
REMARK                         _______ _______ _______ _____ _____    ______ ____
ROOT
ATOM      1  C   UNL     1       6.833   5.965  18.584  0.00  0.00    +0.000 A 
ATOM      2  N   UNL     1       6.186   5.964  19.740  0.00  0.00    +0.000 NA
ATOM      3  N   UNL     1       5.020   5.258  19.596  0.00  0.00    +0.000 NA
ATOM      4  C   UNL     1       4.975   4.848  18.352  0.00  0.00    +0.000 A 
ATOM      5  C   UNL     1       3.949   4.024  17.758  0.00  0.00    +0.000 A 
ATOM      6  N   UNL     1       2.862   3.590  18.487  0.00  0.00    +0.000 N 
ATOM      7  N   UNL     1       4.081   3.682  16.504  0.00  0.00    +0.000 NA
ATOM      8  C   UNL     1       5.188   4.136  15.756  0.00  0.00    +0.000 A 
ATOM      9  C   UNL     1       5.238   3.769  14.411  0.00  0.00    +0.000 A 
ATOM     10  C   UNL     1       6.306   4.172  13.624  0.00  0.00    +0.000 A 
ATOM     11  F   UNL     1       6.348   3.813  12.334  0.00  0.00    +0.000 F 
ATOM     12  C   UNL     1       7.334   4.943  14.154  0.00  0.00    +0.000 A 
ATOM     13  C   UNL     1       7.302   5.329  15.498  0.00  0.00    +0.000 A 
ATOM     14  C   UNL     1       6.229   4.927  16.296  0.00  0.00    +0.000 A 
ATOM     15  N   UNL     1       6.081   5.263  17.657  0.00  0.00    +0.000 N 
ATOM     16  H   UNL     1       2.865   3.876  19.462  0.00  0.00    +0.000 HD
ENDROOT
BRANCH   6  17
ATOM     17  C   UNL     1       2.161   2.353  18.174  0.00  0.00    +0.000 C 
ATOM     18  C   UNL     1       2.987   1.163  18.656  0.00  0.00    +0.000 C 
ATOM     19  C   UNL     1       0.784   2.354  18.826  0.00  0.00    +0.000 C 
ENDBRANCH   6  17
BRANCH   1  21
ATOM     20  C   UNL     1       8.025   8.066  17.908  0.00  0.00    +0.000 C 
ATOM     21  C   UNL     1       8.154   6.613  18.355  0.00  0.00    +0.000 C 
ENDBRANCH   1  21
TORSDOF 2
ENDMDL
MODEL 8
REMARK VINA RESULT:      -6.4      3.747      5.545
REMARK  Name = 
REMARK  5 active torsions:
REMARK  status: ('A' for Active; 'I' for Inactive)
REMARK    1  A    between atoms: C_1  and  C_2
REMARK    2  A    between atoms: C_2  and  C_3
REMARK    3  A    between atoms: N_8  and  C_9
REMARK    4  A    between atoms: C_9  and  C_10
REMARK    5  A    between atoms: C_9  and  C_11
REMARK                            x       y       z     vdW  Elec       q    Type
REMARK                         _______ _______ _______ _____ _____    ______ ____
ROOT
ATOM      1  C   UNL     1       4.961   3.873  18.415  0.00  0.00    +0.000 A 
ATOM      2  N   UNL     1       5.135   4.384  19.625  0.00  0.00    +0.000 NA
ATOM      3  N   UNL     1       6.069   5.384  19.555  0.00  0.00    +0.000 NA
ATOM      4  C   UNL     1       6.450   5.462  18.304  0.00  0.00    +0.000 A 
ATOM      5  C   UNL     1       7.388   6.410  17.750  0.00  0.00    +0.000 A 
ATOM      6  N   UNL     1       8.007   7.356  18.541  0.00  0.00    +0.000 N 
ATOM      7  N   UNL     1       7.630   6.361  16.467  0.00  0.00    +0.000 NA
ATOM      8  C   UNL     1       7.004   5.387  15.662  0.00  0.00    +0.000 A 
ATOM      9  C   UNL     1       7.346   5.367  14.309  0.00  0.00    +0.000 A 
ATOM     10  C   UNL     1       6.759   4.441  13.461  0.00  0.00    +0.000 A 
ATOM     11  F   UNL     1       7.090   4.430  12.163  0.00  0.00    +0.000 F 
ATOM     12  C   UNL     1       5.829   3.524  13.938  0.00  0.00    +0.000 A 
ATOM     13  C   UNL     1       5.476   3.520  15.291  0.00  0.00    +0.000 A 
ATOM     14  C   UNL     1       6.064   4.449  16.151  0.00  0.00    +0.000 A 
ATOM     15  N   UNL     1       5.798   4.534  17.533  0.00  0.00    +0.000 N 
ATOM     16  H   UNL     1       7.727   7.338  19.518  0.00  0.00    +0.000 HD
ENDROOT
BRANCH   6  17
ATOM     17  C   UNL     1       8.451   8.637  18.013  0.00  0.00    +0.000 C 
ATOM     18  C   UNL     1       7.259   9.387  17.422  0.00  0.00    +0.000 C 
ATOM     19  C   UNL     1       9.109   9.456  19.117  0.00  0.00    +0.000 C 
ENDBRANCH   6  17
BRANCH   1  21
ATOM     20  C   UNL     1       2.643   3.303  17.645  0.00  0.00    +0.000 C 
ATOM     21  C   UNL     1       4.005   2.778  18.089  0.00  0.00    +0.000 C 
ENDBRANCH   1  21
TORSDOF 2
ENDMDL
MODEL 9
REMARK VINA RESULT:      -6.4      0.820      1.003
REMARK  Name = 
REMARK  5 active torsions:
REMARK  status: ('A' for Active; 'I' for Inactive)
REMARK    1  A    between atoms: C_1  and  C_2
REMARK    2  A    between atoms: C_2  and  C_3
REMARK    3  A    between atoms: N_8  and  C_9
REMARK    4  A    between atoms: C_9  and  C_10
REMARK    5  A    between atoms: C_9  and  C_11
REMARK                            x       y       z     vdW  Elec       q    Type
REMARK                         _______ _______ _______ _____ _____    ______ ____
ROOT
ATOM      1  C   UNL     1       3.221   3.123  20.327  0.00  0.00    +0.000 A 
ATOM      2  N   UNL     1       3.917   2.169  19.727  0.00  0.00    +0.000 NA
ATOM      3  N   UNL     1       4.437   2.665  18.560  0.00  0.00    +0.000 NA
ATOM      4  C   UNL     1       4.044   3.912  18.468  0.00  0.00    +0.000 A 
ATOM      5  C   UNL     1       4.393   4.846  17.424  0.00  0.00    +0.000 A 
ATOM      6  N   UNL     1       5.202   4.479  16.370  0.00  0.00    +0.000 N 
ATOM      7  N   UNL     1       3.932   6.066  17.509  0.00  0.00    +0.000 NA
ATOM      8  C   UNL     1       3.096   6.438  18.582  0.00  0.00    +0.000 A 
ATOM      9  C   UNL     1       2.605   7.744  18.581  0.00  0.00    +0.000 A 
ATOM     10  C   UNL     1       1.787   8.176  19.614  0.00  0.00    +0.000 A 
ATOM     11  F   UNL     1       1.323   9.433  19.607  0.00  0.00    +0.000 F 
ATOM     12  C   UNL     1       1.444   7.325  20.658  0.00  0.00    +0.000 A 
ATOM     13  C   UNL     1       1.917   6.009  20.677  0.00  0.00    +0.000 A 
ATOM     14  C   UNL     1       2.741   5.567  19.639  0.00  0.00    +0.000 A 
ATOM     15  N   UNL     1       3.269   4.263  19.543  0.00  0.00    +0.000 N 
ATOM     16  H   UNL     1       5.541   3.521  16.411  0.00  0.00    +0.000 HD
ENDROOT
BRANCH   6  17
ATOM     17  C   UNL     1       6.041   5.437  15.665  0.00  0.00    +0.000 C 
ATOM     18  C   UNL     1       6.814   4.721  14.559  0.00  0.00    +0.000 C 
ATOM     19  C   UNL     1       5.182   6.554  15.086  0.00  0.00    +0.000 C 
ENDBRANCH   6  17
BRANCH   1  21
ATOM     20  C   UNL     1       1.042   2.644  21.474  0.00  0.00    +0.000 C 
ATOM     21  C   UNL     1       2.524   2.967  21.634  0.00  0.00    +0.000 C 
ENDBRANCH   1  21
TORSDOF 2
ENDMDL
