MODEL 1
REMARK VINA RESULT:      -6.5      0.000      0.000
REMARK  Name = 
REMARK  2 active torsions:
REMARK  status: ('A' for Active; 'I' for Inactive)
REMARK    1  A    between atoms: C_5  and  C_6
REMARK    2  A    between atoms: C_8  and  C_9
REMARK                            x       y       z     vdW  Elec       q    Type
REMARK                         _______ _______ _______ _____ _____    ______ ____
ROOT
ATOM      1  C   UNL     1       4.772   5.114  17.025  0.00  0.00    +0.000 A 
ATOM      2  C   UNL     1       4.324   4.154  17.921  0.00  0.00    +0.000 A 
ATOM      3  C   UNL     1       3.444   4.677  18.919  0.00  0.00    +0.000 A 
ATOM      4  C   UNL     1       3.259   6.033  18.758  0.00  0.00    +0.000 A 
ATOM      5  S   UNL     1       4.125   6.654  17.424  0.00  0.00    +0.000 S 
ENDROOT
BRANCH   1  10
ATOM      6  C   UNL     1       6.069   3.980  13.666  0.00  0.00    +0.000 A 
ATOM      7  C   UNL     1       7.285   4.641  13.654  0.00  0.00    +0.000 A 
ATOM      8  N   UNL     1       7.718   5.422  14.663  0.00  0.00    +0.000 NA
ATOM      9  C   UNL     1       6.890   5.553  15.732  0.00  0.00    +0.000 A 
ATOM     10  C   UNL     1       5.641   4.942  15.851  0.00  0.00    +0.000 A 
ATOM     11  C   UNL     1       5.243   4.134  14.778  0.00  0.00    +0.000 A 
ENDBRANCH   1  10
BRANCH   3  12
ATOM     12  C   UNL     1       2.792   3.878  20.009  0.00  0.00    +0.000 A 
ATOM     13  C   UNL     1       3.439   3.057  20.912  0.00  0.00    +0.000 A 
ATOM     14  N   UNL     1       2.631   2.407  21.829  0.00  0.00    +0.000 NA
ATOM     15  C   UNL     1       1.380   2.745  21.611  0.00  0.00    +0.000 A 
ATOM     16  S   UNL     1       1.107   3.848  20.329  0.00  0.00    +0.000 S 
ENDBRANCH   3  12
TORSDOF 2
ENDMDL
MODEL 2
REMARK VINA RESULT:      -6.5      1.738      1.943
REMARK  Name = 
REMARK  2 active torsions:
REMARK  status: ('A' for Active; 'I' for Inactive)
REMARK    1  A    between atoms: C_5  and  C_6
REMARK    2  A    between atoms: C_8  and  C_9
REMARK                            x       y       z     vdW  Elec       q    Type
REMARK                         _______ _______ _______ _____ _____    ______ ____
ROOT
ATOM      1  C   UNL     1       5.731   4.322  16.152  0.00  0.00    +0.000 A 
ATOM      2  C   UNL     1       4.440   4.014  16.554  0.00  0.00    +0.000 A 
ATOM      3  C   UNL     1       4.254   4.088  17.969  0.00  0.00    +0.000 A 
ATOM      4  C   UNL     1       5.424   4.440  18.607  0.00  0.00    +0.000 A 
ATOM      5  S   UNL     1       6.713   4.683  17.513  0.00  0.00    +0.000 S 
ENDROOT
BRANCH   1  10
ATOM      6  C   UNL     1       6.296   3.652  12.479  0.00  0.00    +0.000 A 
ATOM      7  C   UNL     1       7.308   4.562  12.232  0.00  0.00    +0.000 A 
ATOM      8  N   UNL     1       7.826   5.374  13.175  0.00  0.00    +0.000 NA
ATOM      9  C   UNL     1       7.301   5.272  14.423  0.00  0.00    +0.000 A 
ATOM     10  C   UNL     1       6.276   4.397  14.787  0.00  0.00    +0.000 A 
ATOM     11  C   UNL     1       5.779   3.571  13.771  0.00  0.00    +0.000 A 
ENDBRANCH   1  10
BRANCH   3  12
ATOM     12  C   UNL     1       2.967   3.824  18.693  0.00  0.00    +0.000 A 
ATOM     13  C   UNL     1       2.109   2.764  18.466  0.00  0.00    +0.000 A 
ATOM     14  N   UNL     1       0.969   2.728  19.250  0.00  0.00    +0.000 NA
ATOM     15  C   UNL     1       0.976   3.759  20.064  0.00  0.00    +0.000 A 
ATOM     16  S   UNL     1       2.329   4.804  19.948  0.00  0.00    +0.000 S 
ENDBRANCH   3  12
TORSDOF 2
ENDMDL
MODEL 3
REMARK VINA RESULT:      -6.4      1.731      1.928
REMARK  Name = 
REMARK  2 active torsions:
REMARK  status: ('A' for Active; 'I' for Inactive)
REMARK    1  A    between atoms: C_5  and  C_6
REMARK    2  A    between atoms: C_8  and  C_9
REMARK                            x       y       z     vdW  Elec       q    Type
REMARK                         _______ _______ _______ _____ _____    ______ ____
ROOT
ATOM      1  C   UNL     1       5.703   4.342  16.159  0.00  0.00    +0.000 A 
ATOM      2  C   UNL     1       4.423   4.001  16.570  0.00  0.00    +0.000 A 
ATOM      3  C   UNL     1       4.234   4.109  17.983  0.00  0.00    +0.000 A 
ATOM      4  C   UNL     1       5.391   4.519  18.610  0.00  0.00    +0.000 A 
ATOM      5  S   UNL     1       6.671   4.775  17.509  0.00  0.00    +0.000 S 
ENDROOT
BRANCH   1  10
ATOM      6  C   UNL     1       6.243   3.637  12.489  0.00  0.00    +0.000 A 
ATOM      7  C   UNL     1       7.275   4.524  12.234  0.00  0.00    +0.000 A 
ATOM      8  N   UNL     1       7.813   5.329  13.171  0.00  0.00    +0.000 NA
ATOM      9  C   UNL     1       7.289   5.247  14.421  0.00  0.00    +0.000 A 
ATOM     10  C   UNL     1       6.246   4.397  14.793  0.00  0.00    +0.000 A 
ATOM     11  C   UNL     1       5.728   3.576  13.783  0.00  0.00    +0.000 A 
ENDBRANCH   1  10
BRANCH   3  12
ATOM     12  C   UNL     1       2.957   3.821  18.715  0.00  0.00    +0.000 A 
ATOM     13  C   UNL     1       2.305   4.680  19.581  0.00  0.00    +0.000 A 
ATOM     14  N   UNL     1       1.141   4.197  20.152  0.00  0.00    +0.000 NA
ATOM     15  C   UNL     1       0.922   2.979  19.713  0.00  0.00    +0.000 A 
ATOM     16  S   UNL     1       2.069   2.358  18.601  0.00  0.00    +0.000 S 
ENDBRANCH   3  12
TORSDOF 2
ENDMDL
MODEL 4
REMARK VINA RESULT:      -6.3      1.289      1.321
REMARK  Name = 
REMARK  2 active torsions:
REMARK  status: ('A' for Active; 'I' for Inactive)
REMARK    1  A    between atoms: C_5  and  C_6
REMARK    2  A    between atoms: C_8  and  C_9
REMARK                            x       y       z     vdW  Elec       q    Type
REMARK                         _______ _______ _______ _____ _____    ______ ____
ROOT
ATOM      1  C   UNL     1       5.715   4.480  16.746  0.00  0.00    +0.000 A 
ATOM      2  C   UNL     1       4.530   3.912  17.191  0.00  0.00    +0.000 A 
ATOM      3  C   UNL     1       4.300   4.102  18.589  0.00  0.00    +0.000 A 
ATOM      4  C   UNL     1       5.334   4.803  19.172  0.00  0.00    +0.000 A 
ATOM      5  S   UNL     1       6.548   5.227  18.049  0.00  0.00    +0.000 S 
ENDROOT
BRANCH   1  10
ATOM      6  C   UNL     1       6.234   3.774  13.074  0.00  0.00    +0.000 A 
ATOM      7  C   UNL     1       7.280   4.643  12.818  0.00  0.00    +0.000 A 
ATOM      8  N   UNL     1       7.835   5.437  13.755  0.00  0.00    +0.000 NA
ATOM      9  C   UNL     1       7.312   5.361  15.006  0.00  0.00    +0.000 A 
ATOM     10  C   UNL     1       6.255   4.529  15.379  0.00  0.00    +0.000 A 
ATOM     11  C   UNL     1       5.721   3.719  14.369  0.00  0.00    +0.000 A 
ENDBRANCH   1  10
BRANCH   3  12
ATOM     12  C   UNL     1       3.101   3.615  19.348  0.00  0.00    +0.000 A 
ATOM     13  C   UNL     1       3.123   2.924  20.544  0.00  0.00    +0.000 A 
ATOM     14  N   UNL     1       1.890   2.565  21.060  0.00  0.00    +0.000 NA
ATOM     15  C   UNL     1       0.947   2.989  20.249  0.00  0.00    +0.000 A 
ATOM     16  S   UNL     1       1.473   3.838  18.857  0.00  0.00    +0.000 S 
ENDBRANCH   3  12
TORSDOF 2
ENDMDL
MODEL 5
REMARK VINA RESULT:      -6.3      1.452      1.667
REMARK  Name = 
REMARK  2 active torsions:
REMARK  status: ('A' for Active; 'I' for Inactive)
REMARK    1  A    between atoms: C_5  and  C_6
REMARK    2  A    between atoms: C_8  and  C_9
REMARK                            x       y       z     vdW  Elec       q    Type
REMARK                         _______ _______ _______ _____ _____    ______ ____
ROOT
ATOM      1  C   UNL     1       5.147   4.913  15.906  0.00  0.00    +0.000 A 
ATOM      2  C   UNL     1       4.387   4.009  16.634  0.00  0.00    +0.000 A 
ATOM      3  C   UNL     1       3.763   4.588  17.782  0.00  0.00    +0.000 A 
ATOM      4  C   UNL     1       4.081   5.923  17.900  0.00  0.00    +0.000 A 
ATOM      5  S   UNL     1       5.105   6.462  16.645  0.00  0.00    +0.000 S 
ENDROOT
BRANCH   1  10
ATOM      6  C   UNL     1       6.111   3.604  12.498  0.00  0.00    +0.000 A 
ATOM      7  C   UNL     1       7.289   4.305  12.307  0.00  0.00    +0.000 A 
ATOM      8  N   UNL     1       7.797   5.167  13.210  0.00  0.00    +0.000 NA
ATOM      9  C   UNL     1       7.088   5.340  14.356  0.00  0.00    +0.000 A 
ATOM     10  C   UNL     1       5.887   4.693  14.654  0.00  0.00    +0.000 A 
ATOM     11  C   UNL     1       5.408   3.802  13.685  0.00  0.00    +0.000 A 
ENDBRANCH   1  10
BRANCH   3  12
ATOM     12  C   UNL     1       2.872   3.863  18.747  0.00  0.00    +0.000 A 
ATOM     13  C   UNL     1       1.520   4.085  18.930  0.00  0.00    +0.000 A 
ATOM     14  N   UNL     1       0.901   3.301  19.887  0.00  0.00    +0.000 NA
ATOM     15  C   UNL     1       1.789   2.492  20.419  0.00  0.00    +0.000 A 
ATOM     16  S   UNL     1       3.384   2.613  19.805  0.00  0.00    +0.000 S 
ENDBRANCH   3  12
TORSDOF 2
ENDMDL
MODEL 6
REMARK VINA RESULT:      -6.2      2.898      3.820
REMARK  Name = 
REMARK  2 active torsions:
REMARK  status: ('A' for Active; 'I' for Inactive)
REMARK    1  A    between atoms: C_5  and  C_6
REMARK    2  A    between atoms: C_8  and  C_9
REMARK                            x       y       z     vdW  Elec       q    Type
REMARK                         _______ _______ _______ _____ _____    ______ ____
ROOT
ATOM      1  C   UNL     1       4.221   5.759  17.686  0.00  0.00    +0.000 A 
ATOM      2  C   UNL     1       3.556   6.967  17.838  0.00  0.00    +0.000 A 
ATOM      3  C   UNL     1       2.686   6.996  18.971  0.00  0.00    +0.000 A 
ATOM      4  C   UNL     1       2.706   5.793  19.644  0.00  0.00    +0.000 A 
ATOM      5  S   UNL     1       3.761   4.661  18.923  0.00  0.00    +0.000 S 
ENDROOT
BRANCH   1  10
ATOM      6  C   UNL     1       5.918   3.990  14.814  0.00  0.00    +0.000 A 
ATOM      7  C   UNL     1       7.108   4.695  14.780  0.00  0.00    +0.000 A 
ATOM      8  N   UNL     1       7.403   5.700  15.629  0.00  0.00    +0.000 NA
ATOM      9  C   UNL     1       6.458   6.017  16.550  0.00  0.00    +0.000 A 
ATOM     10  C   UNL     1       5.221   5.381  16.674  0.00  0.00    +0.000 A 
ATOM     11  C   UNL     1       4.969   4.339  15.773  0.00  0.00    +0.000 A 
ENDBRANCH   1  10
BRANCH   3  12
ATOM     12  C   UNL     1       1.850   8.166  19.398  0.00  0.00    +0.000 A 
ATOM     13  C   UNL     1       1.335   8.379  20.663  0.00  0.00    +0.000 A 
ATOM     14  N   UNL     1       0.581   9.528  20.825  0.00  0.00    +0.000 NA
ATOM     15  C   UNL     1       0.534  10.174  19.682  0.00  0.00    +0.000 A 
ATOM     16  S   UNL     1       1.385   9.463  18.376  0.00  0.00    +0.000 S 
ENDBRANCH   3  12
TORSDOF 2
ENDMDL
MODEL 7
REMARK VINA RESULT:      -6.2      3.389      4.267
REMARK  Name = 
REMARK  2 active torsions:
REMARK  status: ('A' for Active; 'I' for Inactive)
REMARK    1  A    between atoms: C_5  and  C_6
REMARK    2  A    between atoms: C_8  and  C_9
REMARK                            x       y       z     vdW  Elec       q    Type
REMARK                         _______ _______ _______ _____ _____    ______ ____
ROOT
ATOM      1  C   UNL     1       4.130   6.071  17.791  0.00  0.00    +0.000 A 
ATOM      2  C   UNL     1       3.419   7.261  17.744  0.00  0.00    +0.000 A 
ATOM      3  C   UNL     1       2.526   7.432  18.847  0.00  0.00    +0.000 A 
ATOM      4  C   UNL     1       2.575   6.350  19.698  0.00  0.00    +0.000 A 
ATOM      5  S   UNL     1       3.683   5.161  19.177  0.00  0.00    +0.000 S 
ENDROOT
BRANCH   1  10
ATOM      6  C   UNL     1       5.932   3.963  15.230  0.00  0.00    +0.000 A 
ATOM      7  C   UNL     1       7.112   4.681  15.129  0.00  0.00    +0.000 A 
ATOM      8  N   UNL     1       7.367   5.797  15.840  0.00  0.00    +0.000 NA
ATOM      9  C   UNL     1       6.392   6.217  16.687  0.00  0.00    +0.000 A 
ATOM     10  C   UNL     1       5.162   5.579  16.866  0.00  0.00    +0.000 A 
ATOM     11  C   UNL     1       4.952   4.420  16.109  0.00  0.00    +0.000 A 
ENDBRANCH   1  10
BRANCH   3  12
ATOM     12  C   UNL     1       1.641   8.622  19.074  0.00  0.00    +0.000 A 
ATOM     13  C   UNL     1       1.251   9.539  18.116  0.00  0.00    +0.000 A 
ATOM     14  N   UNL     1       0.436  10.567  18.557  0.00  0.00    +0.000 NA
ATOM     15  C   UNL     1       0.216  10.417  19.843  0.00  0.00    +0.000 A 
ATOM     16  S   UNL     1       0.947   9.055  20.582  0.00  0.00    +0.000 S 
ENDBRANCH   3  12
TORSDOF 2
ENDMDL
MODEL 8
REMARK VINA RESULT:      -6.2      4.451      5.727
REMARK  Name = 
REMARK  2 active torsions:
REMARK  status: ('A' for Active; 'I' for Inactive)
REMARK    1  A    between atoms: C_5  and  C_6
REMARK    2  A    between atoms: C_8  and  C_9
REMARK                            x       y       z     vdW  Elec       q    Type
REMARK                         _______ _______ _______ _____ _____    ______ ____
ROOT
ATOM      1  C   UNL     1       2.343   7.268  19.097  0.00  0.00    +0.000 A 
ATOM      2  C   UNL     1       1.753   7.684  20.281  0.00  0.00    +0.000 A 
ATOM      3  C   UNL     1       1.187   8.995  20.203  0.00  0.00    +0.000 A 
ATOM      4  C   UNL     1       1.379   9.545  18.954  0.00  0.00    +0.000 A 
ATOM      5  S   UNL     1       2.217   8.493  17.901  0.00  0.00    +0.000 S 
ENDROOT
BRANCH   1  10
ATOM      6  C   UNL     1       2.973   3.847  17.629  0.00  0.00    +0.000 A 
ATOM      7  C   UNL     1       4.190   3.562  18.222  0.00  0.00    +0.000 A 
ATOM      8  N   UNL     1       4.818   4.399  19.073  0.00  0.00    +0.000 NA
ATOM      9  C   UNL     1       4.200   5.579  19.335  0.00  0.00    +0.000 A 
ATOM     10  C   UNL     1       2.977   5.976  18.790  0.00  0.00    +0.000 A 
ATOM     11  C   UNL     1       2.364   5.067  17.920  0.00  0.00    +0.000 A 
ENDBRANCH   1  10
BRANCH   3  12
ATOM     12  C   UNL     1       0.472   9.702  21.315  0.00  0.00    +0.000 A 
ATOM     13  C   UNL     1       0.514   9.362  22.654  0.00  0.00    +0.000 A 
ATOM     14  N   UNL     1      -0.236  10.155  23.505  0.00  0.00    +0.000 NA
ATOM     15  C   UNL     1      -0.837  11.087  22.803  0.00  0.00    +0.000 A 
ATOM     16  S   UNL     1      -0.534  11.078  21.116  0.00  0.00    +0.000 S 
ENDBRANCH   3  12
TORSDOF 2
ENDMDL
MODEL 9
REMARK VINA RESULT:      -6.1      3.236      6.828
REMARK  Name = 
REMARK  2 active torsions:
REMARK  status: ('A' for Active; 'I' for Inactive)
REMARK    1  A    between atoms: C_5  and  C_6
REMARK    2  A    between atoms: C_8  and  C_9
REMARK                            x       y       z     vdW  Elec       q    Type
REMARK                         _______ _______ _______ _____ _____    ______ ____
ROOT
ATOM      1  C   UNL     1       2.801   7.129  18.701  0.00  0.00    +0.000 A 
ATOM      2  C   UNL     1       3.749   7.068  17.691  0.00  0.00    +0.000 A 
ATOM      3  C   UNL     1       4.442   5.819  17.639  0.00  0.00    +0.000 A 
ATOM      4  C   UNL     1       4.006   4.967  18.630  0.00  0.00    +0.000 A 
ATOM      5  S   UNL     1       2.779   5.662  19.593  0.00  0.00    +0.000 S 
ENDROOT
BRANCH   1  10
ATOM      6  C   UNL     1       0.549  10.139  18.346  0.00  0.00    +0.000 A 
ATOM      7  C   UNL     1       0.122  10.263  19.656  0.00  0.00    +0.000 A 
ATOM      8  N   UNL     1       0.519   9.444  20.650  0.00  0.00    +0.000 NA
ATOM      9  C   UNL     1       1.380   8.449  20.312  0.00  0.00    +0.000 A 
ATOM     10  C   UNL     1       1.872   8.223  19.025  0.00  0.00    +0.000 A 
ATOM     11  C   UNL     1       1.433   9.108  18.032  0.00  0.00    +0.000 A 
ENDBRANCH   1  10
BRANCH   3  12
ATOM     12  C   UNL     1       5.508   5.455  16.648  0.00  0.00    +0.000 A 
ATOM     13  C   UNL     1       6.752   6.048  16.538  0.00  0.00    +0.000 A 
ATOM     14  N   UNL     1       7.573   5.554  15.539  0.00  0.00    +0.000 NA
ATOM     15  C   UNL     1       6.943   4.593  14.904  0.00  0.00    +0.000 A 
ATOM     16  S   UNL     1       5.367   4.222  15.464  0.00  0.00    +0.000 S 
ENDBRANCH   3  12
TORSDOF 2
ENDMDL
