MODEL 1
REMARK VINA RESULT:      -8.2      0.000      0.000
REMARK  Name = 
REMARK  6 active torsions:
REMARK  status: ('A' for Active; 'I' for Inactive)
REMARK    1  A    between atoms: C_1  and  O_2
REMARK    2  A    between atoms: O_2  and  C_3
REMARK    3  A    between atoms: C_3  and  C_5
REMARK    4  A    between atoms: C_8  and  N_9
REMARK    5  A    between atoms: C_10  and  C_12
REMARK    6  A    between atoms: C_16  and  N_17
REMARK                            x       y       z     vdW  Elec       q    Type
REMARK                         _______ _______ _______ _____ _____    ______ ____
ROOT
ATOM      1  N   UNL     1       1.607   8.353  20.846  0.00  0.00    +0.000 N 
ATOM      2  C   UNL     1       1.776   8.256  19.468  0.00  0.00    +0.000 C 
ATOM      3  O   UNL     1       1.340   9.121  18.701  0.00  0.00    +0.000 OA
ATOM      4  H   UNL     1       2.189   7.771  21.436  0.00  0.00    +0.000 HD
ENDROOT
BRANCH   2   5
ATOM      5  C   UNL     1       2.520   7.148  18.880  0.00  0.00    +0.000 A 
ATOM      6  C   UNL     1       3.442   7.374  17.879  0.00  0.00    +0.000 A 
ATOM      7  C   UNL     1       4.068   6.214  17.367  0.00  0.00    +0.000 A 
ATOM      8  C   UNL     1       5.040   6.110  16.349  0.00  0.00    +0.000 A 
ATOM      9  C   UNL     1       5.501   4.853  15.956  0.00  0.00    +0.000 A 
ATOM     10  C   UNL     1       5.008   3.698  16.567  0.00  0.00    +0.000 A 
ATOM     11  C   UNL     1       4.055   3.791  17.600  0.00  0.00    +0.000 A 
ATOM     12  C   UNL     1       3.587   5.065  17.997  0.00  0.00    +0.000 A 
ATOM     13  S   UNL     1       2.416   5.487  19.228  0.00  0.00    +0.000 S 
BRANCH   9  14
ATOM     14  N   UNL     1       6.505   4.773  14.886  0.00  0.00    +0.000 N 
ATOM     15  O   UNL     1       6.264   4.031  13.922  0.00  0.00    +0.000 OA
ATOM     16  O   UNL     1       7.531   5.453  15.010  0.00  0.00    +0.000 OA
ENDBRANCH   9  14
ENDBRANCH   2   5
BRANCH   1  20
ATOM     17  C   UNL     1      -0.808  11.438  22.539  0.00  0.00    +0.000 A 
ATOM     18  C   UNL     1      -0.798  10.165  23.105  0.00  0.00    +0.000 A 
ATOM     19  C   UNL     1       0.027   9.168  22.575  0.00  0.00    +0.000 A 
ATOM     20  C   UNL     1       0.840   9.394  21.452  0.00  0.00    +0.000 A 
ATOM     21  C   UNL     1       0.868  10.687  20.921  0.00  0.00    +0.000 A 
ATOM     22  C   UNL     1       0.040  11.699  21.453  0.00  0.00    +0.000 A 
BRANCH  17  23
ATOM     23  C   UNL     1      -1.726  12.448  23.140  0.00  0.00    +0.000 C 
ATOM     24  O   UNL     1      -1.343  13.493  23.644  0.00  0.00    +0.000 OA
BRANCH  23  26
ATOM     25  C   UNL     1      -3.816  12.401  24.178  0.00  0.00    +0.000 C 
ATOM     26  O   UNL     1      -3.017  12.040  23.049  0.00  0.00    +0.000 OA
ENDBRANCH  23  26
ENDBRANCH  17  23
ENDBRANCH   1  20
TORSDOF 5
ENDMDL
MODEL 2
REMARK VINA RESULT:      -8.1      0.401      1.040
REMARK  Name = 
REMARK  6 active torsions:
REMARK  status: ('A' for Active; 'I' for Inactive)
REMARK    1  A    between atoms: C_1  and  O_2
REMARK    2  A    between atoms: O_2  and  C_3
REMARK    3  A    between atoms: C_3  and  C_5
REMARK    4  A    between atoms: C_8  and  N_9
REMARK    5  A    between atoms: C_10  and  C_12
REMARK    6  A    between atoms: C_16  and  N_17
REMARK                            x       y       z     vdW  Elec       q    Type
REMARK                         _______ _______ _______ _____ _____    ______ ____
ROOT
ATOM      1  N   UNL     1       1.585   8.338  20.583  0.00  0.00    +0.000 N 
ATOM      2  C   UNL     1       1.765   8.249  19.206  0.00  0.00    +0.000 C 
ATOM      3  O   UNL     1       1.295   9.094  18.436  0.00  0.00    +0.000 OA
ATOM      4  H   UNL     1       2.189   7.783  21.176  0.00  0.00    +0.000 HD
ENDROOT
BRANCH   2   5
ATOM      5  C   UNL     1       2.561   7.175  18.622  0.00  0.00    +0.000 A 
ATOM      6  C   UNL     1       3.493   7.446  17.641  0.00  0.00    +0.000 A 
ATOM      7  C   UNL     1       4.172   6.315  17.131  0.00  0.00    +0.000 A 
ATOM      8  C   UNL     1       5.166   6.258  16.131  0.00  0.00    +0.000 A 
ATOM      9  C   UNL     1       5.681   5.022  15.735  0.00  0.00    +0.000 A 
ATOM     10  C   UNL     1       5.220   3.844  16.325  0.00  0.00    +0.000 A 
ATOM     11  C   UNL     1       4.244   3.891  17.339  0.00  0.00    +0.000 A 
ATOM     12  C   UNL     1       3.721   5.142  17.740  0.00  0.00    +0.000 A 
ATOM     13  S   UNL     1       2.512   5.508  18.952  0.00  0.00    +0.000 S 
BRANCH   9  14
ATOM     14  N   UNL     1       6.707   4.990  14.684  0.00  0.00    +0.000 N 
ATOM     15  O   UNL     1       6.456   4.356  13.649  0.00  0.00    +0.000 OA
ATOM     16  O   UNL     1       7.763   5.601  14.894  0.00  0.00    +0.000 OA
ENDBRANCH   9  14
ENDBRANCH   2   5
BRANCH   1  20
ATOM     17  C   UNL     1      -0.734  11.365  22.502  0.00  0.00    +0.000 A 
ATOM     18  C   UNL     1       0.031  11.673  21.380  0.00  0.00    +0.000 A 
ATOM     19  C   UNL     1       0.756  10.670  20.727  0.00  0.00    +0.000 A 
ATOM     20  C   UNL     1       0.769   9.343  21.185  0.00  0.00    +0.000 A 
ATOM     21  C   UNL     1      -0.043   9.027  22.279  0.00  0.00    +0.000 A 
ATOM     22  C   UNL     1      -0.780  10.033  22.940  0.00  0.00    +0.000 A 
BRANCH  17  23
ATOM     23  C   UNL     1      -1.465  12.484  23.162  0.00  0.00    +0.000 C 
ATOM     24  O   UNL     1      -0.971  13.582  23.370  0.00  0.00    +0.000 OA
BRANCH  23  26
ATOM     25  C   UNL     1      -3.733  13.019  23.047  0.00  0.00    +0.000 C 
ATOM     26  O   UNL     1      -2.726  12.108  23.492  0.00  0.00    +0.000 OA
ENDBRANCH  23  26
ENDBRANCH  17  23
ENDBRANCH   1  20
TORSDOF 5
ENDMDL
MODEL 3
REMARK VINA RESULT:      -8.1      0.627      1.511
REMARK  Name = 
REMARK  6 active torsions:
REMARK  status: ('A' for Active; 'I' for Inactive)
REMARK    1  A    between atoms: C_1  and  O_2
REMARK    2  A    between atoms: O_2  and  C_3
REMARK    3  A    between atoms: C_3  and  C_5
REMARK    4  A    between atoms: C_8  and  N_9
REMARK    5  A    between atoms: C_10  and  C_12
REMARK    6  A    between atoms: C_16  and  N_17
REMARK                            x       y       z     vdW  Elec       q    Type
REMARK                         _______ _______ _______ _____ _____    ______ ____
ROOT
ATOM      1  N   UNL     1       1.526   8.170  20.582  0.00  0.00    +0.000 N 
ATOM      2  C   UNL     1       1.876   8.193  19.235  0.00  0.00    +0.000 C 
ATOM      3  O   UNL     1       1.583   9.147  18.506  0.00  0.00    +0.000 OA
ATOM      4  H   UNL     1       1.999   7.506  21.182  0.00  0.00    +0.000 HD
ENDROOT
BRANCH   2   5
ATOM      5  C   UNL     1       2.647   7.106  18.642  0.00  0.00    +0.000 A 
ATOM      6  C   UNL     1       3.581   7.363  17.660  0.00  0.00    +0.000 A 
ATOM      7  C   UNL     1       4.234   6.221  17.140  0.00  0.00    +0.000 A 
ATOM      8  C   UNL     1       5.224   6.149  16.137  0.00  0.00    +0.000 A 
ATOM      9  C   UNL     1       5.712   4.905  15.732  0.00  0.00    +0.000 A 
ATOM     10  C   UNL     1       5.228   3.733  16.317  0.00  0.00    +0.000 A 
ATOM     11  C   UNL     1       4.257   3.795  17.336  0.00  0.00    +0.000 A 
ATOM     12  C   UNL     1       3.762   5.054  17.745  0.00  0.00    +0.000 A 
ATOM     13  S   UNL     1       2.565   5.439  18.963  0.00  0.00    +0.000 S 
BRANCH   9  14
ATOM     14  N   UNL     1       6.733   4.858  14.677  0.00  0.00    +0.000 N 
ATOM     15  O   UNL     1       7.749   5.554  14.823  0.00  0.00    +0.000 OA
ATOM     16  O   UNL     1       6.520   4.123  13.705  0.00  0.00    +0.000 OA
ENDBRANCH   9  14
ENDBRANCH   2   5
BRANCH   1  20
ATOM     17  C   UNL     1      -0.732  11.255  22.480  0.00  0.00    +0.000 A 
ATOM     18  C   UNL     1      -0.112  11.491  21.256  0.00  0.00    +0.000 A 
ATOM     19  C   UNL     1       0.592  10.467  20.615  0.00  0.00    +0.000 A 
ATOM     20  C   UNL     1       0.727   9.190  21.183  0.00  0.00    +0.000 A 
ATOM     21  C   UNL     1       0.057   8.940  22.385  0.00  0.00    +0.000 A 
ATOM     22  C   UNL     1      -0.657   9.969  23.036  0.00  0.00    +0.000 A 
BRANCH  17  23
ATOM     23  C   UNL     1      -1.447  12.397  23.119  0.00  0.00    +0.000 C 
ATOM     24  O   UNL     1      -2.657  12.425  23.289  0.00  0.00    +0.000 OA
BRANCH  23  26
ATOM     25  C   UNL     1      -1.208  14.572  23.929  0.00  0.00    +0.000 C 
ATOM     26  O   UNL     1      -0.576  13.376  23.469  0.00  0.00    +0.000 OA
ENDBRANCH  23  26
ENDBRANCH  17  23
ENDBRANCH   1  20
TORSDOF 5
ENDMDL
MODEL 4
REMARK VINA RESULT:      -8.0      0.688      1.157
REMARK  Name = 
REMARK  6 active torsions:
REMARK  status: ('A' for Active; 'I' for Inactive)
REMARK    1  A    between atoms: C_1  and  O_2
REMARK    2  A    between atoms: O_2  and  C_3
REMARK    3  A    between atoms: C_3  and  C_5
REMARK    4  A    between atoms: C_8  and  N_9
REMARK    5  A    between atoms: C_10  and  C_12
REMARK    6  A    between atoms: C_16  and  N_17
REMARK                            x       y       z     vdW  Elec       q    Type
REMARK                         _______ _______ _______ _____ _____    ______ ____
ROOT
ATOM      1  N   UNL     1       1.464   8.121  20.528  0.00  0.00    +0.000 N 
ATOM      2  C   UNL     1       1.922   8.207  19.216  0.00  0.00    +0.000 C 
ATOM      3  O   UNL     1       1.729   9.216  18.528  0.00  0.00    +0.000 OA
ATOM      4  H   UNL     1       1.859   7.402  21.120  0.00  0.00    +0.000 HD
ENDROOT
BRANCH   2   5
ATOM      5  C   UNL     1       2.693   7.123  18.618  0.00  0.00    +0.000 A 
ATOM      6  C   UNL     1       3.617   7.382  17.627  0.00  0.00    +0.000 A 
ATOM      7  C   UNL     1       4.271   6.242  17.104  0.00  0.00    +0.000 A 
ATOM      8  C   UNL     1       5.252   6.172  16.092  0.00  0.00    +0.000 A 
ATOM      9  C   UNL     1       5.741   4.930  15.685  0.00  0.00    +0.000 A 
ATOM     10  C   UNL     1       5.268   3.757  16.277  0.00  0.00    +0.000 A 
ATOM     11  C   UNL     1       4.306   3.816  17.304  0.00  0.00    +0.000 A 
ATOM     12  C   UNL     1       3.809   5.074  17.715  0.00  0.00    +0.000 A 
ATOM     13  S   UNL     1       2.621   5.456  18.943  0.00  0.00    +0.000 S 
BRANCH   9  14
ATOM     14  N   UNL     1       6.754   4.885  14.621  0.00  0.00    +0.000 N 
ATOM     15  O   UNL     1       7.792   5.542  14.783  0.00  0.00    +0.000 OA
ATOM     16  O   UNL     1       6.510   4.191  13.626  0.00  0.00    +0.000 OA
ENDBRANCH   9  14
ENDBRANCH   2   5
BRANCH   1  20
ATOM     17  C   UNL     1      -1.074  11.082  22.261  0.00  0.00    +0.000 A 
ATOM     18  C   UNL     1      -0.544  10.064  23.050  0.00  0.00    +0.000 A 
ATOM     19  C   UNL     1       0.322   9.120  22.489  0.00  0.00    +0.000 A 
ATOM     20  C   UNL     1       0.662   9.140  21.127  0.00  0.00    +0.000 A 
ATOM     21  C   UNL     1       0.172  10.194  20.351  0.00  0.00    +0.000 A 
ATOM     22  C   UNL     1      -0.701  11.152  20.911  0.00  0.00    +0.000 A 
BRANCH  17  23
ATOM     23  C   UNL     1      -2.007  12.043  22.918  0.00  0.00    +0.000 C 
ATOM     24  O   UNL     1      -2.935  11.699  23.635  0.00  0.00    +0.000 OA
BRANCH  23  26
ATOM     25  C   UNL     1      -1.328  14.121  23.733  0.00  0.00    +0.000 C 
ATOM     26  O   UNL     1      -1.682  13.322  22.603  0.00  0.00    +0.000 OA
ENDBRANCH  23  26
ENDBRANCH  17  23
ENDBRANCH   1  20
TORSDOF 5
ENDMDL
MODEL 5
REMARK VINA RESULT:      -7.8      1.941     10.241
REMARK  Name = 
REMARK  6 active torsions:
REMARK  status: ('A' for Active; 'I' for Inactive)
REMARK    1  A    between atoms: C_1  and  O_2
REMARK    2  A    between atoms: O_2  and  C_3
REMARK    3  A    between atoms: C_3  and  C_5
REMARK    4  A    between atoms: C_8  and  N_9
REMARK    5  A    between atoms: C_10  and  C_12
REMARK    6  A    between atoms: C_16  and  N_17
REMARK                            x       y       z     vdW  Elec       q    Type
REMARK                         _______ _______ _______ _____ _____    ______ ____
ROOT
ATOM      1  N   UNL     1       3.084   6.847  18.905  0.00  0.00    +0.000 N 
ATOM      2  C   UNL     1       2.306   7.976  18.667  0.00  0.00    +0.000 C 
ATOM      3  O   UNL     1       2.256   8.504  17.551  0.00  0.00    +0.000 OA
ATOM      4  H   UNL     1       2.897   6.312  19.743  0.00  0.00    +0.000 HD
ENDROOT
BRANCH   2   5
ATOM      5  C   UNL     1       1.479   8.552  19.721  0.00  0.00    +0.000 A 
ATOM      6  C   UNL     1       0.803   9.737  19.515  0.00  0.00    +0.000 A 
ATOM      7  C   UNL     1       0.067  10.209  20.626  0.00  0.00    +0.000 A 
ATOM      8  C   UNL     1      -0.716  11.378  20.736  0.00  0.00    +0.000 A 
ATOM      9  C   UNL     1      -1.332  11.689  21.949  0.00  0.00    +0.000 A 
ATOM     10  C   UNL     1      -1.179  10.848  23.054  0.00  0.00    +0.000 A 
ATOM     11  C   UNL     1      -0.418   9.667  22.949  0.00  0.00    +0.000 A 
ATOM     12  C   UNL     1       0.207   9.353  21.720  0.00  0.00    +0.000 A 
ATOM     13  S   UNL     1       1.206   7.979  21.298  0.00  0.00    +0.000 S 
BRANCH   9  14
ATOM     14  N   UNL     1      -2.132  12.917  22.039  0.00  0.00    +0.000 N 
ATOM     15  O   UNL     1      -2.689  13.322  21.008  0.00  0.00    +0.000 OA
ATOM     16  O   UNL     1      -2.204  13.475  23.142  0.00  0.00    +0.000 OA
ENDBRANCH   9  14
ENDBRANCH   2   5
BRANCH   1  20
ATOM     17  C   UNL     1       5.545   5.220  15.819  0.00  0.00    +0.000 A 
ATOM     18  C   UNL     1       5.796   6.496  16.317  0.00  0.00    +0.000 A 
ATOM     19  C   UNL     1       5.016   7.010  17.358  0.00  0.00    +0.000 A 
ATOM     20  C   UNL     1       3.947   6.288  17.912  0.00  0.00    +0.000 A 
ATOM     21  C   UNL     1       3.733   4.987  17.448  0.00  0.00    +0.000 A 
ATOM     22  C   UNL     1       4.518   4.461  16.400  0.00  0.00    +0.000 A 
BRANCH  17  23
ATOM     23  C   UNL     1       6.401   4.742  14.696  0.00  0.00    +0.000 C 
ATOM     24  O   UNL     1       7.527   5.163  14.479  0.00  0.00    +0.000 OA
BRANCH  23  26
ATOM     25  C   UNL     1       6.294   3.614  12.656  0.00  0.00    +0.000 C 
ATOM     26  O   UNL     1       5.756   3.797  13.967  0.00  0.00    +0.000 OA
ENDBRANCH  23  26
ENDBRANCH  17  23
ENDBRANCH   1  20
TORSDOF 5
ENDMDL
MODEL 6
REMARK VINA RESULT:      -7.7      1.768      2.120
REMARK  Name = 
REMARK  6 active torsions:
REMARK  status: ('A' for Active; 'I' for Inactive)
REMARK    1  A    between atoms: C_1  and  O_2
REMARK    2  A    between atoms: O_2  and  C_3
REMARK    3  A    between atoms: C_3  and  C_5
REMARK    4  A    between atoms: C_8  and  N_9
REMARK    5  A    between atoms: C_10  and  C_12
REMARK    6  A    between atoms: C_16  and  N_17
REMARK                            x       y       z     vdW  Elec       q    Type
REMARK                         _______ _______ _______ _____ _____    ______ ____
ROOT
ATOM      1  N   UNL     1       1.395   9.274  18.324  0.00  0.00    +0.000 N 
ATOM      2  C   UNL     1       1.905   8.242  19.106  0.00  0.00    +0.000 C 
ATOM      3  O   UNL     1       1.698   8.190  20.324  0.00  0.00    +0.000 OA
ATOM      4  H   UNL     1       1.373   9.140  17.321  0.00  0.00    +0.000 HD
ENDROOT
BRANCH   2   5
ATOM      5  C   UNL     1       2.666   7.152  18.507  0.00  0.00    +0.000 A 
ATOM      6  C   UNL     1       3.621   7.408  17.544  0.00  0.00    +0.000 A 
ATOM      7  C   UNL     1       4.262   6.264  17.015  0.00  0.00    +0.000 A 
ATOM      8  C   UNL     1       5.266   6.191  16.026  0.00  0.00    +0.000 A 
ATOM      9  C   UNL     1       5.738   4.947  15.608  0.00  0.00    +0.000 A 
ATOM     10  C   UNL     1       5.225   3.774  16.164  0.00  0.00    +0.000 A 
ATOM     11  C   UNL     1       4.238   3.835  17.168  0.00  0.00    +0.000 A 
ATOM     12  C   UNL     1       3.759   5.096  17.591  0.00  0.00    +0.000 A 
ATOM     13  S   UNL     1       2.549   5.481  18.797  0.00  0.00    +0.000 S 
BRANCH   9  14
ATOM     14  N   UNL     1       6.776   4.899  14.569  0.00  0.00    +0.000 N 
ATOM     15  O   UNL     1       6.562   4.198  13.569  0.00  0.00    +0.000 OA
ATOM     16  O   UNL     1       7.803   5.564  14.753  0.00  0.00    +0.000 OA
ENDBRANCH   9  14
ENDBRANCH   2   5
BRANCH   1  20
ATOM     17  C   UNL     1      -0.704  12.511  20.149  0.00  0.00    +0.000 A 
ATOM     18  C   UNL     1       0.673  12.588  19.956  0.00  0.00    +0.000 A 
ATOM     19  C   UNL     1       1.352  11.545  19.319  0.00  0.00    +0.000 A 
ATOM     20  C   UNL     1       0.693  10.384  18.884  0.00  0.00    +0.000 A 
ATOM     21  C   UNL     1      -0.697  10.334  19.030  0.00  0.00    +0.000 A 
ATOM     22  C   UNL     1      -1.389  11.385  19.670  0.00  0.00    +0.000 A 
BRANCH  17  23
ATOM     23  C   UNL     1      -1.362  13.648  20.854  0.00  0.00    +0.000 C 
ATOM     24  O   UNL     1      -2.352  14.224  20.428  0.00  0.00    +0.000 OA
BRANCH  23  26
ATOM     25  C   UNL     1      -1.238  13.267  23.153  0.00  0.00    +0.000 C 
ATOM     26  O   UNL     1      -0.712  13.941  22.008  0.00  0.00    +0.000 OA
ENDBRANCH  23  26
ENDBRANCH  17  23
ENDBRANCH   1  20
TORSDOF 5
ENDMDL
MODEL 7
REMARK VINA RESULT:      -7.7      2.022      2.202
REMARK  Name = 
REMARK  6 active torsions:
REMARK  status: ('A' for Active; 'I' for Inactive)
REMARK    1  A    between atoms: C_1  and  O_2
REMARK    2  A    between atoms: O_2  and  C_3
REMARK    3  A    between atoms: C_3  and  C_5
REMARK    4  A    between atoms: C_8  and  N_9
REMARK    5  A    between atoms: C_10  and  C_12
REMARK    6  A    between atoms: C_16  and  N_17
REMARK                            x       y       z     vdW  Elec       q    Type
REMARK                         _______ _______ _______ _____ _____    ______ ____
ROOT
ATOM      1  N   UNL     1       1.406   9.211  18.232  0.00  0.00    +0.000 N 
ATOM      2  C   UNL     1       1.946   8.208  19.034  0.00  0.00    +0.000 C 
ATOM      3  O   UNL     1       1.752   8.180  20.254  0.00  0.00    +0.000 OA
ATOM      4  H   UNL     1       1.377   9.053  17.233  0.00  0.00    +0.000 HD
ENDROOT
BRANCH   2   5
ATOM      5  C   UNL     1       2.725   7.121  18.452  0.00  0.00    +0.000 A 
ATOM      6  C   UNL     1       3.653   7.374  17.462  0.00  0.00    +0.000 A 
ATOM      7  C   UNL     1       4.315   6.232  16.955  0.00  0.00    +0.000 A 
ATOM      8  C   UNL     1       5.300   6.156  15.948  0.00  0.00    +0.000 A 
ATOM      9  C   UNL     1       5.799   4.912  15.558  0.00  0.00    +0.000 A 
ATOM     10  C   UNL     1       5.329   3.743  16.161  0.00  0.00    +0.000 A 
ATOM     11  C   UNL     1       4.362   3.809  17.182  0.00  0.00    +0.000 A 
ATOM     12  C   UNL     1       3.856   5.069  17.577  0.00  0.00    +0.000 A 
ATOM     13  S   UNL     1       2.661   5.458  18.795  0.00  0.00    +0.000 S 
BRANCH   9  14
ATOM     14  N   UNL     1       6.816   4.860  14.499  0.00  0.00    +0.000 N 
ATOM     15  O   UNL     1       7.846   5.534  14.653  0.00  0.00    +0.000 OA
ATOM     16  O   UNL     1       6.586   4.144  13.516  0.00  0.00    +0.000 OA
ENDBRANCH   9  14
ENDBRANCH   2   5
BRANCH   1  20
ATOM     17  C   UNL     1      -0.757  12.588  19.693  0.00  0.00    +0.000 A 
ATOM     18  C   UNL     1      -1.418  11.390  19.434  0.00  0.00    +0.000 A 
ATOM     19  C   UNL     1      -0.701  10.272  18.997  0.00  0.00    +0.000 A 
ATOM     20  C   UNL     1       0.685  10.318  18.774  0.00  0.00    +0.000 A 
ATOM     21  C   UNL     1       1.353  11.506  19.087  0.00  0.00    +0.000 A 
ATOM     22  C   UNL     1       0.635  12.637  19.531  0.00  0.00    +0.000 A 
BRANCH  17  23
ATOM     23  C   UNL     1      -1.585  13.746  20.136  0.00  0.00    +0.000 C 
ATOM     24  O   UNL     1      -1.208  14.907  20.077  0.00  0.00    +0.000 OA
BRANCH  23  26
ATOM     25  C   UNL     1      -3.085  13.795  21.923  0.00  0.00    +0.000 C 
ATOM     26  O   UNL     1      -2.787  13.328  20.605  0.00  0.00    +0.000 OA
ENDBRANCH  23  26
ENDBRANCH  17  23
ENDBRANCH   1  20
TORSDOF 5
ENDMDL
MODEL 8
REMARK VINA RESULT:      -7.7      2.216      2.481
REMARK  Name = 
REMARK  6 active torsions:
REMARK  status: ('A' for Active; 'I' for Inactive)
REMARK    1  A    between atoms: C_1  and  O_2
REMARK    2  A    between atoms: O_2  and  C_3
REMARK    3  A    between atoms: C_3  and  C_5
REMARK    4  A    between atoms: C_8  and  N_9
REMARK    5  A    between atoms: C_10  and  C_12
REMARK    6  A    between atoms: C_16  and  N_17
REMARK                            x       y       z     vdW  Elec       q    Type
REMARK                         _______ _______ _______ _____ _____    ______ ____
ROOT
ATOM      1  N   UNL     1       1.589   8.981  17.955  0.00  0.00    +0.000 N 
ATOM      2  C   UNL     1       2.152   8.045  18.818  0.00  0.00    +0.000 C 
ATOM      3  O   UNL     1       1.765   7.927  19.986  0.00  0.00    +0.000 OA
ATOM      4  H   UNL     1       1.754   8.868  16.963  0.00  0.00    +0.000 HD
ENDROOT
BRANCH   2   5
ATOM      5  C   UNL     1       3.193   7.133  18.359  0.00  0.00    +0.000 A 
ATOM      6  C   UNL     1       3.705   7.237  17.082  0.00  0.00    +0.000 A 
ATOM      7  C   UNL     1       4.682   6.271  16.747  0.00  0.00    +0.000 A 
ATOM      8  C   UNL     1       5.384   6.108  15.534  0.00  0.00    +0.000 A 
ATOM      9  C   UNL     1       6.283   5.051  15.390  0.00  0.00    +0.000 A 
ATOM     10  C   UNL     1       6.495   4.156  16.441  0.00  0.00    +0.000 A 
ATOM     11  C   UNL     1       5.817   4.323  17.664  0.00  0.00    +0.000 A 
ATOM     12  C   UNL     1       4.904   5.393  17.810  0.00  0.00    +0.000 A 
ATOM     13  S   UNL     1       3.924   5.842  19.189  0.00  0.00    +0.000 S 
BRANCH   9  14
ATOM     14  N   UNL     1       6.992   4.897  14.112  0.00  0.00    +0.000 N 
ATOM     15  O   UNL     1       6.553   4.067  13.303  0.00  0.00    +0.000 OA
ATOM     16  O   UNL     1       7.987   5.608  13.919  0.00  0.00    +0.000 OA
ENDBRANCH   9  14
ENDBRANCH   2   5
BRANCH   1  20
ATOM     17  C   UNL     1      -1.399  11.689  19.355  0.00  0.00    +0.000 A 
ATOM     18  C   UNL     1      -0.080  11.818  19.781  0.00  0.00    +0.000 A 
ATOM     19  C   UNL     1       0.906  10.957  19.288  0.00  0.00    +0.000 A 
ATOM     20  C   UNL     1       0.607   9.925  18.384  0.00  0.00    +0.000 A 
ATOM     21  C   UNL     1      -0.708   9.832  17.917  0.00  0.00    +0.000 A 
ATOM     22  C   UNL     1      -1.707  10.700  18.409  0.00  0.00    +0.000 A 
BRANCH  17  23
ATOM     23  C   UNL     1      -2.403  12.625  19.937  0.00  0.00    +0.000 C 
ATOM     24  O   UNL     1      -2.121  13.505  20.737  0.00  0.00    +0.000 OA
BRANCH  23  26
ATOM     25  C   UNL     1      -4.698  12.887  20.268  0.00  0.00    +0.000 C 
ATOM     26  O   UNL     1      -3.644  12.358  19.460  0.00  0.00    +0.000 OA
ENDBRANCH  23  26
ENDBRANCH  17  23
ENDBRANCH   1  20
TORSDOF 5
ENDMDL
MODEL 9
REMARK VINA RESULT:      -7.6      1.929     10.257
REMARK  Name = 
REMARK  6 active torsions:
REMARK  status: ('A' for Active; 'I' for Inactive)
REMARK    1  A    between atoms: C_1  and  O_2
REMARK    2  A    between atoms: O_2  and  C_3
REMARK    3  A    between atoms: C_3  and  C_5
REMARK    4  A    between atoms: C_8  and  N_9
REMARK    5  A    between atoms: C_10  and  C_12
REMARK    6  A    between atoms: C_16  and  N_17
REMARK                            x       y       z     vdW  Elec       q    Type
REMARK                         _______ _______ _______ _____ _____    ______ ____
ROOT
ATOM      1  N   UNL     1       3.009   6.784  18.602  0.00  0.00    +0.000 N 
ATOM      2  C   UNL     1       2.300   7.974  18.467  0.00  0.00    +0.000 C 
ATOM      3  O   UNL     1       2.268   8.589  17.395  0.00  0.00    +0.000 OA
ATOM      4  H   UNL     1       2.801   6.198  19.401  0.00  0.00    +0.000 HD
ENDROOT
BRANCH   2   5
ATOM      5  C   UNL     1       1.526   8.516  19.577  0.00  0.00    +0.000 A 
ATOM      6  C   UNL     1       0.777   9.664  19.417  0.00  0.00    +0.000 A 
ATOM      7  C   UNL     1       0.102  10.107  20.578  0.00  0.00    +0.000 A 
ATOM      8  C   UNL     1      -0.730  11.235  20.741  0.00  0.00    +0.000 A 
ATOM      9  C   UNL     1      -1.268  11.524  21.995  0.00  0.00    +0.000 A 
ATOM     10  C   UNL     1      -0.991  10.701  23.089  0.00  0.00    +0.000 A 
ATOM     11  C   UNL     1      -0.181   9.560  22.933  0.00  0.00    +0.000 A 
ATOM     12  C   UNL     1       0.366   9.267  21.662  0.00  0.00    +0.000 A 
ATOM     13  S   UNL     1       1.399   7.942  21.172  0.00  0.00    +0.000 S 
BRANCH   9  14
ATOM     14  N   UNL     1      -2.122  12.712  22.140  0.00  0.00    +0.000 N 
ATOM     15  O   UNL     1      -3.117  12.623  22.874  0.00  0.00    +0.000 OA
ATOM     16  O   UNL     1      -1.794  13.732  21.520  0.00  0.00    +0.000 OA
ENDBRANCH   9  14
ENDBRANCH   2   5
BRANCH   1  20
ATOM     17  C   UNL     1       5.571   5.206  15.575  0.00  0.00    +0.000 A 
ATOM     18  C   UNL     1       4.780   4.352  16.339  0.00  0.00    +0.000 A 
ATOM     19  C   UNL     1       3.909   4.875  17.300  0.00  0.00    +0.000 A 
ATOM     20  C   UNL     1       3.821   6.253  17.554  0.00  0.00    +0.000 A 
ATOM     21  C   UNL     1       4.576   7.110  16.748  0.00  0.00    +0.000 A 
ATOM     22  C   UNL     1       5.455   6.589  15.773  0.00  0.00    +0.000 A 
BRANCH  17  23
ATOM     23  C   UNL     1       6.492   4.582  14.582  0.00  0.00    +0.000 C 
ATOM     24  O   UNL     1       6.244   3.541  13.993  0.00  0.00    +0.000 OA
BRANCH  23  26
ATOM     25  C   UNL     1       8.037   5.479  13.081  0.00  0.00    +0.000 C 
ATOM     26  O   UNL     1       7.620   5.322  14.439  0.00  0.00    +0.000 OA
ENDBRANCH  23  26
ENDBRANCH  17  23
ENDBRANCH   1  20
TORSDOF 5
ENDMDL
