MODEL 1
REMARK VINA RESULT:      -7.1      0.000      0.000
REMARK  Name = 
REMARK  6 active torsions:
REMARK  status: ('A' for Active; 'I' for Inactive)
REMARK    1  A    between atoms: C_1  and  C_2
REMARK    2  A    between atoms: C_2  and  C_3
REMARK    3  A    between atoms: C_3  and  C_4
REMARK    4  A    between atoms: C_13  and  O_14
REMARK    5  A    between atoms: C_15  and  O_16
REMARK    6  A    between atoms: O_16  and  C_17
REMARK                            x       y       z     vdW  Elec       q    Type
REMARK                         _______ _______ _______ _____ _____    ______ ____
ROOT
ATOM      1  C   UNL     1       5.179   3.598  13.677  0.00  0.00    +0.000 C 
ATOM      2  C   UNL     1       5.689   4.246  14.732  0.00  0.00    +0.000 C 
ATOM      3  O   UNL     1       6.749   5.137  14.650  0.00  0.00    +0.000 OA
ATOM      4  C   UNL     1       6.955   5.565  15.948  0.00  0.00    +0.000 C 
ATOM      5  O   UNL     1       7.765   6.419  16.284  0.00  0.00    +0.000 OA
ATOM      6  C   UNL     1       6.035   4.880  16.856  0.00  0.00    +0.000 C 
ATOM      7  C   UNL     1       5.263   4.129  16.082  0.00  0.00    +0.000 C 
ATOM      8  C   UNL     1       4.112   3.332  16.574  0.00  0.00    +0.000 C 
ATOM      9  C   UNL     1       3.695   3.668  18.012  0.00  0.00    +0.000 C 
ATOM     10  C   UNL     1       4.807   4.171  18.943  0.00  0.00    +0.000 C 
ATOM     11  C   UNL     1       5.926   5.064  18.323  0.00  0.00    +0.000 C 
ENDROOT
BRANCH  10  12
ATOM     12  O   UNL     1       5.347   2.995  19.569  0.00  0.00    +0.000 OA
ATOM     13  H   UNL     1       5.686   2.437  18.843  0.00  0.00    +0.000 HD
ENDBRANCH  10  12
BRANCH  11  14
ATOM     14  O   UNL     1       7.195   4.730  18.913  0.00  0.00    +0.000 OA
ATOM     15  C   UNL     1       7.794   5.808  19.627  0.00  0.00    +0.000 C 
ENDBRANCH  11  14
BRANCH   1  16
ATOM     16  C   UNL     1       5.648   3.736  12.252  0.00  0.00    +0.000 C 
BRANCH  16  18
ATOM     17  C   UNL     1       3.640   3.359  10.775  0.00  0.00    +0.000 C 
ATOM     18  C   UNL     1       4.917   2.753  11.335  0.00  0.00    +0.000 C 
ENDBRANCH  16  18
ENDBRANCH   1  16
TORSDOF 4
ENDMDL
MODEL 2
REMARK VINA RESULT:      -6.6      2.078      5.254
REMARK  Name = 
REMARK  6 active torsions:
REMARK  status: ('A' for Active; 'I' for Inactive)
REMARK    1  A    between atoms: C_1  and  C_2
REMARK    2  A    between atoms: C_2  and  C_3
REMARK    3  A    between atoms: C_3  and  C_4
REMARK    4  A    between atoms: C_13  and  O_14
REMARK    5  A    between atoms: C_15  and  O_16
REMARK    6  A    between atoms: O_16  and  C_17
REMARK                            x       y       z     vdW  Elec       q    Type
REMARK                         _______ _______ _______ _____ _____    ______ ____
ROOT
ATOM      1  C   UNL     1       3.480   2.817  18.967  0.00  0.00    +0.000 C 
ATOM      2  C   UNL     1       4.493   3.682  18.829  0.00  0.00    +0.000 C 
ATOM      3  O   UNL     1       5.261   4.144  19.888  0.00  0.00    +0.000 OA
ATOM      4  C   UNL     1       6.175   5.007  19.315  0.00  0.00    +0.000 C 
ATOM      5  O   UNL     1       7.082   5.568  19.917  0.00  0.00    +0.000 OA
ATOM      6  C   UNL     1       5.930   5.118  17.877  0.00  0.00    +0.000 C 
ATOM      7  C   UNL     1       4.939   4.275  17.618  0.00  0.00    +0.000 C 
ATOM      8  C   UNL     1       4.426   3.985  16.256  0.00  0.00    +0.000 C 
ATOM      9  C   UNL     1       5.322   4.516  15.130  0.00  0.00    +0.000 C 
ATOM     10  C   UNL     1       6.145   5.771  15.449  0.00  0.00    +0.000 C 
ATOM     11  C   UNL     1       6.695   5.930  16.901  0.00  0.00    +0.000 C 
ENDROOT
BRANCH  10  12
ATOM     12  O   UNL     1       5.316   6.882  15.067  0.00  0.00    +0.000 OA
ATOM     13  H   UNL     1       4.585   6.906  15.713  0.00  0.00    +0.000 HD
ENDBRANCH  10  12
BRANCH  11  14
ATOM     14  O   UNL     1       6.611   7.310  17.302  0.00  0.00    +0.000 OA
ATOM     15  C   UNL     1       7.879   7.899  17.582  0.00  0.00    +0.000 C 
ENDBRANCH  11  14
BRANCH   1  16
ATOM     16  C   UNL     1       3.022   2.202  20.263  0.00  0.00    +0.000 C 
BRANCH  16  18
ATOM     17  C   UNL     1       0.999   3.706  20.249  0.00  0.00    +0.000 C 
ATOM     18  C   UNL     1       2.170   3.185  21.067  0.00  0.00    +0.000 C 
ENDBRANCH  16  18
ENDBRANCH   1  16
TORSDOF 4
ENDMDL
MODEL 3
REMARK VINA RESULT:      -6.5      2.088      5.365
REMARK  Name = 
REMARK  6 active torsions:
REMARK  status: ('A' for Active; 'I' for Inactive)
REMARK    1  A    between atoms: C_1  and  C_2
REMARK    2  A    between atoms: C_2  and  C_3
REMARK    3  A    between atoms: C_3  and  C_4
REMARK    4  A    between atoms: C_13  and  O_14
REMARK    5  A    between atoms: C_15  and  O_16
REMARK    6  A    between atoms: O_16  and  C_17
REMARK                            x       y       z     vdW  Elec       q    Type
REMARK                         _______ _______ _______ _____ _____    ______ ____
ROOT
ATOM      1  C   UNL     1       2.653   4.651  18.814  0.00  0.00    +0.000 C 
ATOM      2  C   UNL     1       3.983   4.804  18.766  0.00  0.00    +0.000 C 
ATOM      3  O   UNL     1       4.757   5.159  19.861  0.00  0.00    +0.000 OA
ATOM      4  C   UNL     1       6.051   5.210  19.379  0.00  0.00    +0.000 C 
ATOM      5  O   UNL     1       7.045   5.422  20.062  0.00  0.00    +0.000 OA
ATOM      6  C   UNL     1       6.066   4.932  17.943  0.00  0.00    +0.000 C 
ATOM      7  C   UNL     1       4.810   4.651  17.621  0.00  0.00    +0.000 C 
ATOM      8  C   UNL     1       4.373   4.208  16.275  0.00  0.00    +0.000 C 
ATOM      9  C   UNL     1       5.529   3.815  15.346  0.00  0.00    +0.000 C 
ATOM     10  C   UNL     1       6.867   4.529  15.584  0.00  0.00    +0.000 C 
ATOM     11  C   UNL     1       7.252   4.880  17.055  0.00  0.00    +0.000 C 
ENDROOT
BRANCH  10  12
ATOM     12  O   UNL     1       6.833   5.698  14.747  0.00  0.00    +0.000 OA
ATOM     13  H   UNL     1       6.129   5.537  14.090  0.00  0.00    +0.000 HD
ENDBRANCH  10  12
BRANCH  11  14
ATOM     14  O   UNL     1       7.897   6.166  17.093  0.00  0.00    +0.000 OA
ATOM     15  C   UNL     1       6.992   7.254  17.261  0.00  0.00    +0.000 C 
ENDBRANCH  11  14
BRANCH   1  16
ATOM     16  C   UNL     1       1.794   4.820  20.040  0.00  0.00    +0.000 C 
BRANCH  16  18
ATOM     17  C   UNL     1       1.741   2.832  21.589  0.00  0.00    +0.000 C 
ATOM     18  C   UNL     1       1.085   3.513  20.399  0.00  0.00    +0.000 C 
ENDBRANCH  16  18
ENDBRANCH   1  16
TORSDOF 4
ENDMDL
MODEL 4
REMARK VINA RESULT:      -6.2      2.457      3.376
REMARK  Name = 
REMARK  6 active torsions:
REMARK  status: ('A' for Active; 'I' for Inactive)
REMARK    1  A    between atoms: C_1  and  C_2
REMARK    2  A    between atoms: C_2  and  C_3
REMARK    3  A    between atoms: C_3  and  C_4
REMARK    4  A    between atoms: C_13  and  O_14
REMARK    5  A    between atoms: C_15  and  O_16
REMARK    6  A    between atoms: O_16  and  C_17
REMARK                            x       y       z     vdW  Elec       q    Type
REMARK                         _______ _______ _______ _____ _____    ______ ____
ROOT
ATOM      1  C   UNL     1       5.666   3.993  15.678  0.00  0.00    +0.000 C 
ATOM      2  C   UNL     1       4.816   4.630  16.494  0.00  0.00    +0.000 C 
ATOM      3  O   UNL     1       4.767   6.010  16.630  0.00  0.00    +0.000 OA
ATOM      4  C   UNL     1       3.771   6.240  17.559  0.00  0.00    +0.000 C 
ATOM      5  O   UNL     1       3.373   7.347  17.900  0.00  0.00    +0.000 OA
ATOM      6  C   UNL     1       3.232   4.970  18.046  0.00  0.00    +0.000 C 
ATOM      7  C   UNL     1       3.856   4.028  17.351  0.00  0.00    +0.000 C 
ATOM      8  C   UNL     1       3.547   2.580  17.444  0.00  0.00    +0.000 C 
ATOM      9  C   UNL     1       2.245   2.272  18.196  0.00  0.00    +0.000 C 
ATOM     10  C   UNL     1       1.832   3.274  19.282  0.00  0.00    +0.000 C 
ATOM     11  C   UNL     1       2.146   4.783  19.037  0.00  0.00    +0.000 C 
ENDROOT
BRANCH  10  12
ATOM     12  O   UNL     1       2.434   2.793  20.497  0.00  0.00    +0.000 OA
ATOM     13  H   UNL     1       2.017   3.299  21.221  0.00  0.00    +0.000 HD
ENDBRANCH  10  12
BRANCH  11  14
ATOM     14  O   UNL     1       2.554   5.399  20.272  0.00  0.00    +0.000 OA
ATOM     15  C   UNL     1       1.628   6.367  20.758  0.00  0.00    +0.000 C 
ENDBRANCH  11  14
BRANCH   1  16
ATOM     16  C   UNL     1       6.679   4.651  14.779  0.00  0.00    +0.000 C 
BRANCH  16  18
ATOM     17  C   UNL     1       5.297   3.662  12.918  0.00  0.00    +0.000 C 
ATOM     18  C   UNL     1       6.700   3.991  13.399  0.00  0.00    +0.000 C 
ENDBRANCH  16  18
ENDBRANCH   1  16
TORSDOF 4
ENDMDL
MODEL 5
REMARK VINA RESULT:      -6.2      3.844      6.043
REMARK  Name = 
REMARK  6 active torsions:
REMARK  status: ('A' for Active; 'I' for Inactive)
REMARK    1  A    between atoms: C_1  and  C_2
REMARK    2  A    between atoms: C_2  and  C_3
REMARK    3  A    between atoms: C_3  and  C_4
REMARK    4  A    between atoms: C_13  and  O_14
REMARK    5  A    between atoms: C_15  and  O_16
REMARK    6  A    between atoms: O_16  and  C_17
REMARK                            x       y       z     vdW  Elec       q    Type
REMARK                         _______ _______ _______ _____ _____    ______ ____
ROOT
ATOM      1  C   UNL     1       2.622   8.471  18.020  0.00  0.00    +0.000 C 
ATOM      2  C   UNL     1       2.766   7.198  18.411  0.00  0.00    +0.000 C 
ATOM      3  O   UNL     1       2.051   6.628  19.454  0.00  0.00    +0.000 OA
ATOM      4  C   UNL     1       2.502   5.324  19.523  0.00  0.00    +0.000 C 
ATOM      5  O   UNL     1       2.059   4.468  20.279  0.00  0.00    +0.000 OA
ATOM      6  C   UNL     1       3.558   5.103  18.535  0.00  0.00    +0.000 C 
ATOM      7  C   UNL     1       3.656   6.240  17.858  0.00  0.00    +0.000 C 
ATOM      8  C   UNL     1       4.540   6.437  16.683  0.00  0.00    +0.000 C 
ATOM      9  C   UNL     1       5.123   5.134  16.121  0.00  0.00    +0.000 C 
ATOM     10  C   UNL     1       5.331   3.992  17.125  0.00  0.00    +0.000 C 
ATOM     11  C   UNL     1       4.292   3.841  18.280  0.00  0.00    +0.000 C 
ENDROOT
BRANCH  10  12
ATOM     12  O   UNL     1       6.668   4.160  17.627  0.00  0.00    +0.000 OA
ATOM     13  H   UNL     1       7.232   4.305  16.844  0.00  0.00    +0.000 HD
ENDBRANCH  10  12
BRANCH  11  14
ATOM     14  O   UNL     1       4.967   3.462  19.492  0.00  0.00    +0.000 OA
ATOM     15  C   UNL     1       4.533   2.211  20.019  0.00  0.00    +0.000 C 
ENDBRANCH  11  14
BRANCH   1  16
ATOM     16  C   UNL     1       1.672   9.472  18.623  0.00  0.00    +0.000 C 
BRANCH  16  18
ATOM     17  C   UNL     1      -0.703  10.315  18.577  0.00  0.00    +0.000 C 
ATOM     18  C   UNL     1       0.368   9.542  17.825  0.00  0.00    +0.000 C 
ENDBRANCH  16  18
ENDBRANCH   1  16
TORSDOF 4
ENDMDL
MODEL 6
REMARK VINA RESULT:      -6.1      4.319      7.149
REMARK  Name = 
REMARK  6 active torsions:
REMARK  status: ('A' for Active; 'I' for Inactive)
REMARK    1  A    between atoms: C_1  and  C_2
REMARK    2  A    between atoms: C_2  and  C_3
REMARK    3  A    between atoms: C_3  and  C_4
REMARK    4  A    between atoms: C_13  and  O_14
REMARK    5  A    between atoms: C_15  and  O_16
REMARK    6  A    between atoms: O_16  and  C_17
REMARK                            x       y       z     vdW  Elec       q    Type
REMARK                         _______ _______ _______ _____ _____    ______ ____
ROOT
ATOM      1  C   UNL     1       1.099   7.088  21.036  0.00  0.00    +0.000 C 
ATOM      2  C   UNL     1       1.974   6.504  20.208  0.00  0.00    +0.000 C 
ATOM      3  O   UNL     1       2.828   7.206  19.369  0.00  0.00    +0.000 OA
ATOM      4  C   UNL     1       3.544   6.235  18.697  0.00  0.00    +0.000 C 
ATOM      5  O   UNL     1       4.457   6.455  17.910  0.00  0.00    +0.000 OA
ATOM      6  C   UNL     1       3.084   4.904  19.093  0.00  0.00    +0.000 C 
ATOM      7  C   UNL     1       2.171   5.107  20.033  0.00  0.00    +0.000 C 
ATOM      8  C   UNL     1       1.504   4.024  20.797  0.00  0.00    +0.000 C 
ATOM      9  C   UNL     1       2.161   2.649  20.624  0.00  0.00    +0.000 C 
ATOM     10  C   UNL     1       2.871   2.397  19.286  0.00  0.00    +0.000 C 
ATOM     11  C   UNL     1       3.601   3.600  18.613  0.00  0.00    +0.000 C 
ENDROOT
BRANCH  10  12
ATOM     12  O   UNL     1       1.873   1.827  18.423  0.00  0.00    +0.000 OA
ATOM     13  H   UNL     1       2.179   1.995  17.511  0.00  0.00    +0.000 HD
ENDBRANCH  10  12
BRANCH  11  14
ATOM     14  O   UNL     1       3.417   3.542  17.187  0.00  0.00    +0.000 OA
ATOM     15  C   UNL     1       4.641   3.517  16.455  0.00  0.00    +0.000 C 
ENDBRANCH  11  14
BRANCH   1  16
ATOM     16  C   UNL     1       0.906   8.572  21.204  0.00  0.00    +0.000 C 
BRANCH  16  18
ATOM     17  C   UNL     1      -0.126   9.594  23.264  0.00  0.00    +0.000 C 
ATOM     18  C   UNL     1      -0.394   8.876  21.951  0.00  0.00    +0.000 C 
ENDBRANCH  16  18
ENDBRANCH   1  16
TORSDOF 4
ENDMDL
MODEL 7
REMARK VINA RESULT:      -6.1      2.810      5.983
REMARK  Name = 
REMARK  6 active torsions:
REMARK  status: ('A' for Active; 'I' for Inactive)
REMARK    1  A    between atoms: C_1  and  C_2
REMARK    2  A    between atoms: C_2  and  C_3
REMARK    3  A    between atoms: C_3  and  C_4
REMARK    4  A    between atoms: C_13  and  O_14
REMARK    5  A    between atoms: C_15  and  O_16
REMARK    6  A    between atoms: O_16  and  C_17
REMARK                            x       y       z     vdW  Elec       q    Type
REMARK                         _______ _______ _______ _____ _____    ______ ____
ROOT
ATOM      1  C   UNL     1       2.479   6.785  19.501  0.00  0.00    +0.000 C 
ATOM      2  C   UNL     1       3.434   5.885  19.228  0.00  0.00    +0.000 C 
ATOM      3  O   UNL     1       3.682   4.766  20.009  0.00  0.00    +0.000 OA
ATOM      4  C   UNL     1       4.734   4.123  19.384  0.00  0.00    +0.000 C 
ATOM      5  O   UNL     1       5.203   3.047  19.732  0.00  0.00    +0.000 OA
ATOM      6  C   UNL     1       5.177   4.893  18.222  0.00  0.00    +0.000 C 
ATOM      7  C   UNL     1       4.343   5.922  18.138  0.00  0.00    +0.000 C 
ATOM      8  C   UNL     1       4.357   6.918  17.038  0.00  0.00    +0.000 C 
ATOM      9  C   UNL     1       5.225   6.508  15.841  0.00  0.00    +0.000 C 
ATOM     10  C   UNL     1       6.426   5.604  16.149  0.00  0.00    +0.000 C 
ATOM     11  C   UNL     1       6.267   4.542  17.281  0.00  0.00    +0.000 C 
ENDROOT
BRANCH  10  12
ATOM     12  O   UNL     1       7.524   6.498  16.405  0.00  0.00    +0.000 OA
ATOM     13  H   UNL     1       7.201   7.390  16.178  0.00  0.00    +0.000 HD
ENDBRANCH  10  12
BRANCH  11  14
ATOM     14  O   UNL     1       7.492   4.444  18.030  0.00  0.00    +0.000 OA
ATOM     15  C   UNL     1       7.675   5.505  18.964  0.00  0.00    +0.000 C 
ENDBRANCH  11  14
BRANCH   1  16
ATOM     16  C   UNL     1       1.526   6.727  20.665  0.00  0.00    +0.000 C 
BRANCH  16  18
ATOM     17  C   UNL     1       1.109   9.122  19.999  0.00  0.00    +0.000 C 
ATOM     18  C   UNL     1       1.167   8.132  21.151  0.00  0.00    +0.000 C 
ENDBRANCH  16  18
ENDBRANCH   1  16
TORSDOF 4
ENDMDL
MODEL 8
REMARK VINA RESULT:      -6.0      3.824      6.178
REMARK  Name = 
REMARK  6 active torsions:
REMARK  status: ('A' for Active; 'I' for Inactive)
REMARK    1  A    between atoms: C_1  and  C_2
REMARK    2  A    between atoms: C_2  and  C_3
REMARK    3  A    between atoms: C_3  and  C_4
REMARK    4  A    between atoms: C_13  and  O_14
REMARK    5  A    between atoms: C_15  and  O_16
REMARK    6  A    between atoms: O_16  and  C_17
REMARK                            x       y       z     vdW  Elec       q    Type
REMARK                         _______ _______ _______ _____ _____    ______ ____
ROOT
ATOM      1  C   UNL     1       2.628   8.378  17.861  0.00  0.00    +0.000 C 
ATOM      2  C   UNL     1       2.654   7.040  17.798  0.00  0.00    +0.000 C 
ATOM      3  O   UNL     1       1.531   6.240  17.950  0.00  0.00    +0.000 OA
ATOM      4  C   UNL     1       1.997   4.945  17.820  0.00  0.00    +0.000 C 
ATOM      5  O   UNL     1       1.292   3.944  17.823  0.00  0.00    +0.000 OA
ATOM      6  C   UNL     1       3.448   4.948  17.637  0.00  0.00    +0.000 C 
ATOM      7  C   UNL     1       3.799   6.226  17.586  0.00  0.00    +0.000 C 
ATOM      8  C   UNL     1       5.176   6.703  17.307  0.00  0.00    +0.000 C 
ATOM      9  C   UNL     1       6.118   5.607  16.791  0.00  0.00    +0.000 C 
ATOM     10  C   UNL     1       5.821   4.177  17.260  0.00  0.00    +0.000 C 
ATOM     11  C   UNL     1       4.326   3.769  17.449  0.00  0.00    +0.000 C 
ENDROOT
BRANCH  10  12
ATOM     12  O   UNL     1       6.578   4.004  18.470  0.00  0.00    +0.000 OA
ATOM     13  H   UNL     1       6.468   3.068  18.724  0.00  0.00    +0.000 HD
ENDBRANCH  10  12
BRANCH  11  14
ATOM     14  O   UNL     1       4.197   2.924  18.606  0.00  0.00    +0.000 OA
ATOM     15  C   UNL     1       3.709   1.618  18.306  0.00  0.00    +0.000 C 
ENDBRANCH  11  14
BRANCH   1  16
ATOM     16  C   UNL     1       1.401   9.221  18.089  0.00  0.00    +0.000 C 
BRANCH  16  18
ATOM     17  C   UNL     1       0.649  10.786  19.917  0.00  0.00    +0.000 C 
ATOM     18  C   UNL     1       1.111   9.377  19.583  0.00  0.00    +0.000 C 
ENDBRANCH  16  18
ENDBRANCH   1  16
TORSDOF 4
ENDMDL
MODEL 9
REMARK VINA RESULT:      -6.0      3.763      5.395
REMARK  Name = 
REMARK  6 active torsions:
REMARK  status: ('A' for Active; 'I' for Inactive)
REMARK    1  A    between atoms: C_1  and  C_2
REMARK    2  A    between atoms: C_2  and  C_3
REMARK    3  A    between atoms: C_3  and  C_4
REMARK    4  A    between atoms: C_13  and  O_14
REMARK    5  A    between atoms: C_15  and  O_16
REMARK    6  A    between atoms: O_16  and  C_17
REMARK                            x       y       z     vdW  Elec       q    Type
REMARK                         _______ _______ _______ _____ _____    ______ ____
ROOT
ATOM      1  C   UNL     1       6.225   4.796  18.269  0.00  0.00    +0.000 C 
ATOM      2  C   UNL     1       4.952   4.992  18.635  0.00  0.00    +0.000 C 
ATOM      3  O   UNL     1       4.497   6.147  19.253  0.00  0.00    +0.000 OA
ATOM      4  C   UNL     1       3.147   5.934  19.457  0.00  0.00    +0.000 C 
ATOM      5  O   UNL     1       2.370   6.759  19.919  0.00  0.00    +0.000 OA
ATOM      6  C   UNL     1       2.774   4.595  19.002  0.00  0.00    +0.000 C 
ATOM      7  C   UNL     1       3.876   4.077  18.475  0.00  0.00    +0.000 C 
ATOM      8  C   UNL     1       3.936   2.761  17.794  0.00  0.00    +0.000 C 
ATOM      9  C   UNL     1       2.559   2.160  17.483  0.00  0.00    +0.000 C 
ATOM     10  C   UNL     1       1.418   2.544  18.436  0.00  0.00    +0.000 C 
ATOM     11  C   UNL     1       1.424   3.985  19.034  0.00  0.00    +0.000 C 
ENDROOT
BRANCH  10  12
ATOM     12  O   UNL     1       1.422   1.538  19.464  0.00  0.00    +0.000 OA
ATOM     13  H   UNL     1       2.315   1.144  19.451  0.00  0.00    +0.000 HD
ENDBRANCH  10  12
BRANCH  11  14
ATOM     14  O   UNL     1       0.983   3.943  20.404  0.00  0.00    +0.000 OA
ATOM     15  C   UNL     1       2.019   3.611  21.325  0.00  0.00    +0.000 C 
ENDBRANCH  11  14
BRANCH   1  16
ATOM     16  C   UNL     1       7.351   5.779  18.449  0.00  0.00    +0.000 C 
BRANCH  16  18
ATOM     17  C   UNL     1       7.896   8.141  17.759  0.00  0.00    +0.000 C 
ATOM     18  C   UNL     1       7.394   6.784  17.296  0.00  0.00    +0.000 C 
ENDBRANCH  16  18
ENDBRANCH   1  16
TORSDOF 4
ENDMDL
