MODEL 1
REMARK VINA RESULT:      -6.7      0.000      0.000
REMARK  Name = 
REMARK  6 active torsions:
REMARK  status: ('A' for Active; 'I' for Inactive)
REMARK    1  A    between atoms: C_1  and  C_2
REMARK    2  A    between atoms: C_2  and  N_3
REMARK    3  A    between atoms: C_5  and  C_6
REMARK    4  A    between atoms: C_6  and  O_8
REMARK    5  A    between atoms: C_15  and  N_16
REMARK    6  A    between atoms: C_28  and  C_29
REMARK                            x       y       z     vdW  Elec       q    Type
REMARK                         _______ _______ _______ _____ _____    ______ ____
ROOT
ATOM      1  N   UNL     1       2.780   5.810  19.945  0.00  0.00    +0.000 N 
ATOM      2  C   UNL     1       3.639   4.952  19.254  0.00  0.00    +0.000 A 
ATOM      3  C   UNL     1       4.247   5.153  18.081  0.00  0.00    +0.000 A 
ATOM      4  C   UNL     1       3.992   6.445  17.446  0.00  0.00    +0.000 A 
ATOM      5  O   UNL     1       4.525   6.704  16.366  0.00  0.00    +0.000 OA
ATOM      6  C   UNL     1       3.110   7.411  18.143  0.00  0.00    +0.000 A 
ATOM      7  C   UNL     1       2.943   8.633  17.496  0.00  0.00    +0.000 A 
ATOM      8  C   UNL     1       2.163   9.607  18.077  0.00  0.00    +0.000 A 
ATOM      9  F   UNL     1       2.101  10.783  17.431  0.00  0.00    +0.000 F 
ATOM     10  C   UNL     1       1.447   9.387  19.274  0.00  0.00    +0.000 A 
ATOM     11  C   UNL     1       1.550   8.084  19.882  0.00  0.00    +0.000 A 
ATOM     12  C   UNL     1       2.470   7.089  19.380  0.00  0.00    +0.000 A 
ENDROOT
BRANCH  10  13
ATOM     13  N   UNL     1       0.607  10.383  19.773  0.00  0.00    +0.000 N 
ATOM     14  C   UNL     1      -0.415  11.033  18.908  0.00  0.00    +0.000 C 
ATOM     15  C   UNL     1      -1.648  11.407  19.761  0.00  0.00    +0.000 C 
ATOM     16  N   UNL     1      -1.221  12.253  20.876  0.00  0.00    +0.000 N 
ATOM     17  C   UNL     1      -2.032  13.249  21.337  0.00  0.00    +0.000 A 
ATOM     18  N   UNL     1      -3.069  13.644  20.577  0.00  0.00    +0.000 NA
ATOM     19  C   UNL     1      -3.783  14.704  20.994  0.00  0.00    +0.000 A 
ATOM     20  C   UNL     1      -3.515  15.390  22.149  0.00  0.00    +0.000 A 
ATOM     21  C   UNL     1      -2.457  14.913  22.870  0.00  0.00    +0.000 A 
ATOM     22  N   UNL     1      -1.712  13.864  22.484  0.00  0.00    +0.000 NA
ATOM     23  C   UNL     1      -0.183  11.694  21.741  0.00  0.00    +0.000 C 
ATOM     24  C   UNL     1       1.044  11.289  20.873  0.00  0.00    +0.000 C 
ENDBRANCH  10  13
BRANCH  11  25
ATOM     25  C   UNL     1       0.543   7.726  20.955  0.00  0.00    +0.000 C 
ATOM     26  F   UNL     1      -0.642   8.398  20.954  0.00  0.00    +0.000 F 
ATOM     27  F   UNL     1       0.135   6.425  20.879  0.00  0.00    +0.000 F 
ATOM     28  F   UNL     1       1.038   7.922  22.215  0.00  0.00    +0.000 F 
ENDBRANCH  11  25
BRANCH   1  30
ATOM     29  C   UNL     1       2.102   3.899  21.402  0.00  0.00    +0.000 C 
ATOM     30  C   UNL     1       2.439   5.377  21.327  0.00  0.00    +0.000 C 
ENDBRANCH   1  30
BRANCH   3  31
ATOM     31  C   UNL     1       5.127   4.112  17.516  0.00  0.00    +0.000 C 
ATOM     32  O   UNL     1       4.821   3.426  16.547  0.00  0.00    +0.000 OA
BRANCH  31  33
ATOM     33  O   UNL     1       6.303   3.958  18.164  0.00  0.00    +0.000 OA
ATOM     34  H   UNL     1       6.403   3.077  18.602  0.00  0.00    +0.000 HD
ENDBRANCH  31  33
ENDBRANCH   3  31
TORSDOF 5
ENDMDL
MODEL 2
REMARK VINA RESULT:      -6.2      1.502      1.742
REMARK  Name = 
REMARK  6 active torsions:
REMARK  status: ('A' for Active; 'I' for Inactive)
REMARK    1  A    between atoms: C_1  and  C_2
REMARK    2  A    between atoms: C_2  and  N_3
REMARK    3  A    between atoms: C_5  and  C_6
REMARK    4  A    between atoms: C_6  and  O_8
REMARK    5  A    between atoms: C_15  and  N_16
REMARK    6  A    between atoms: C_28  and  C_29
REMARK                            x       y       z     vdW  Elec       q    Type
REMARK                         _______ _______ _______ _____ _____    ______ ____
ROOT
ATOM      1  N   UNL     1       3.857   4.977  19.044  0.00  0.00    +0.000 N 
ATOM      2  C   UNL     1       4.774   4.367  18.185  0.00  0.00    +0.000 A 
ATOM      3  C   UNL     1       5.301   4.846  17.054  0.00  0.00    +0.000 A 
ATOM      4  C   UNL     1       4.873   6.192  16.674  0.00  0.00    +0.000 A 
ATOM      5  O   UNL     1       5.323   6.703  15.648  0.00  0.00    +0.000 OA
ATOM      6  C   UNL     1       3.921   6.905  17.560  0.00  0.00    +0.000 A 
ATOM      7  C   UNL     1       3.587   8.193  17.153  0.00  0.00    +0.000 A 
ATOM      8  C   UNL     1       2.730   8.947  17.921  0.00  0.00    +0.000 A 
ATOM      9  F   UNL     1       2.506  10.204  17.505  0.00  0.00    +0.000 F 
ATOM     10  C   UNL     1       2.099   8.432  19.075  0.00  0.00    +0.000 A 
ATOM     11  C   UNL     1       2.376   7.062  19.430  0.00  0.00    +0.000 A 
ATOM     12  C   UNL     1       3.379   6.291  18.731  0.00  0.00    +0.000 A 
ENDROOT
BRANCH  10  13
ATOM     13  N   UNL     1       1.177   9.215  19.770  0.00  0.00    +0.000 N 
ATOM     14  C   UNL     1       0.183  10.056  19.049  0.00  0.00    +0.000 C 
ATOM     15  C   UNL     1      -1.123  10.129  19.871  0.00  0.00    +0.000 C 
ATOM     16  N   UNL     1      -0.817  10.628  21.212  0.00  0.00    +0.000 N 
ATOM     17  C   UNL     1      -1.709  11.422  21.872  0.00  0.00    +0.000 A 
ATOM     18  N   UNL     1      -2.711  11.989  21.176  0.00  0.00    +0.000 NA
ATOM     19  C   UNL     1      -3.507  12.861  21.821  0.00  0.00    +0.000 A 
ATOM     20  C   UNL     1      -3.354  13.190  23.142  0.00  0.00    +0.000 A 
ATOM     21  C   UNL     1      -2.324  12.557  23.779  0.00  0.00    +0.000 A 
ATOM     22  N   UNL     1      -1.501  11.689  23.170  0.00  0.00    +0.000 NA
ATOM     23  C   UNL     1       0.187   9.874  21.961  0.00  0.00    +0.000 C 
ATOM     24  C   UNL     1       1.489   9.776  21.114  0.00  0.00    +0.000 C 
ENDBRANCH  10  13
BRANCH  11  25
ATOM     25  C   UNL     1       1.467   6.400  20.444  0.00  0.00    +0.000 C 
ATOM     26  F   UNL     1       0.337   7.069  20.807  0.00  0.00    +0.000 F 
ATOM     27  F   UNL     1       0.966   5.210  20.000  0.00  0.00    +0.000 F 
ATOM     28  F   UNL     1       2.105   6.153  21.628  0.00  0.00    +0.000 F 
ENDBRANCH  11  25
BRANCH   1  30
ATOM     29  C   UNL     1       3.258   2.808  20.125  0.00  0.00    +0.000 C 
ATOM     30  C   UNL     1       3.631   4.265  20.330  0.00  0.00    +0.000 C 
ENDBRANCH   1  30
BRANCH   3  31
ATOM     31  C   UNL     1       6.266   4.036  16.286  0.00  0.00    +0.000 C 
ATOM     32  O   UNL     1       7.438   4.359  16.126  0.00  0.00    +0.000 OA
BRANCH  31  33
ATOM     33  O   UNL     1       5.752   2.907  15.751  0.00  0.00    +0.000 OA
ATOM     34  H   UNL     1       4.808   2.745  15.997  0.00  0.00    +0.000 HD
ENDBRANCH  31  33
ENDBRANCH   3  31
TORSDOF 5
ENDMDL
MODEL 3
REMARK VINA RESULT:      -6.1      4.379      9.310
REMARK  Name = 
REMARK  6 active torsions:
REMARK  status: ('A' for Active; 'I' for Inactive)
REMARK    1  A    between atoms: C_1  and  C_2
REMARK    2  A    between atoms: C_2  and  N_3
REMARK    3  A    between atoms: C_5  and  C_6
REMARK    4  A    between atoms: C_6  and  O_8
REMARK    5  A    between atoms: C_15  and  N_16
REMARK    6  A    between atoms: C_28  and  C_29
REMARK                            x       y       z     vdW  Elec       q    Type
REMARK                         _______ _______ _______ _____ _____    ______ ____
ROOT
ATOM      1  N   UNL     1      -3.001  12.041  19.448  0.00  0.00    +0.000 N 
ATOM      2  C   UNL     1      -3.818  12.855  20.237  0.00  0.00    +0.000 A 
ATOM      3  C   UNL     1      -3.683  13.164  21.530  0.00  0.00    +0.000 A 
ATOM      4  C   UNL     1      -2.521  12.586  22.203  0.00  0.00    +0.000 A 
ATOM      5  O   UNL     1      -2.326  12.833  23.394  0.00  0.00    +0.000 OA
ATOM      6  C   UNL     1      -1.599  11.735  21.413  0.00  0.00    +0.000 A 
ATOM      7  C   UNL     1      -0.497  11.250  22.111  0.00  0.00    +0.000 A 
ATOM      8  C   UNL     1       0.432  10.472  21.458  0.00  0.00    +0.000 A 
ATOM      9  F   UNL     1       1.503  10.096  22.175  0.00  0.00    +0.000 F 
ATOM     10  C   UNL     1       0.267  10.066  20.116  0.00  0.00    +0.000 A 
ATOM     11  C   UNL     1      -0.930  10.493  19.433  0.00  0.00    +0.000 A 
ATOM     12  C   UNL     1      -1.851  11.427  20.040  0.00  0.00    +0.000 A 
ENDROOT
BRANCH  10  13
ATOM     13  N   UNL     1       1.199   9.209  19.530  0.00  0.00    +0.000 N 
ATOM     14  C   UNL     1       1.729   8.029  20.266  0.00  0.00    +0.000 C 
ATOM     15  C   UNL     1       2.017   6.886  19.267  0.00  0.00    +0.000 C 
ATOM     16  N   UNL     1       2.931   7.373  18.233  0.00  0.00    +0.000 N 
ATOM     17  C   UNL     1       3.864   6.539  17.689  0.00  0.00    +0.000 A 
ATOM     18  N   UNL     1       4.143   5.382  18.315  0.00  0.00    +0.000 NA
ATOM     19  C   UNL     1       5.147   4.632  17.828  0.00  0.00    +0.000 A 
ATOM     20  C   UNL     1       5.888   4.981  16.731  0.00  0.00    +0.000 A 
ATOM     21  C   UNL     1       5.530   6.163  16.144  0.00  0.00    +0.000 A 
ATOM     22  N   UNL     1       4.540   6.945  16.604  0.00  0.00    +0.000 NA
ATOM     23  C   UNL     1       2.493   8.560  17.500  0.00  0.00    +0.000 C 
ATOM     24  C   UNL     1       2.173   9.698  18.513  0.00  0.00    +0.000 C 
ENDBRANCH  10  13
BRANCH  11  25
ATOM     25  C   UNL     1      -1.283   9.803  18.133  0.00  0.00    +0.000 C 
ATOM     26  F   UNL     1      -0.495   8.763  17.738  0.00  0.00    +0.000 F 
ATOM     27  F   UNL     1      -2.521   9.227  18.163  0.00  0.00    +0.000 F 
ATOM     28  F   UNL     1      -1.262  10.661  17.069  0.00  0.00    +0.000 F 
ENDBRANCH  11  25
BRANCH   1  30
ATOM     29  C   UNL     1      -4.715  11.595  17.687  0.00  0.00    +0.000 C 
ATOM     30  C   UNL     1      -3.305  12.070  17.992  0.00  0.00    +0.000 C 
ENDBRANCH   1  30
BRANCH   3  31
ATOM     31  C   UNL     1      -4.662  14.053  22.185  0.00  0.00    +0.000 C 
ATOM     32  O   UNL     1      -4.951  15.165  21.758  0.00  0.00    +0.000 OA
BRANCH  31  33
ATOM     33  O   UNL     1      -5.211  13.550  23.313  0.00  0.00    +0.000 OA
ATOM     34  H   UNL     1      -4.889  12.644  23.542  0.00  0.00    +0.000 HD
ENDBRANCH  31  33
ENDBRANCH   3  31
TORSDOF 5
ENDMDL
MODEL 4
REMARK VINA RESULT:      -6.1      6.769      9.060
REMARK  Name = 
REMARK  6 active torsions:
REMARK  status: ('A' for Active; 'I' for Inactive)
REMARK    1  A    between atoms: C_1  and  C_2
REMARK    2  A    between atoms: C_2  and  N_3
REMARK    3  A    between atoms: C_5  and  C_6
REMARK    4  A    between atoms: C_6  and  O_8
REMARK    5  A    between atoms: C_15  and  N_16
REMARK    6  A    between atoms: C_28  and  C_29
REMARK                            x       y       z     vdW  Elec       q    Type
REMARK                         _______ _______ _______ _____ _____    ______ ____
ROOT
ATOM      1  N   UNL     1      -3.642  11.920  18.929  0.00  0.00    +0.000 N 
ATOM      2  C   UNL     1      -4.955  11.614  19.295  0.00  0.00    +0.000 A 
ATOM      3  C   UNL     1      -5.624  11.994  20.387  0.00  0.00    +0.000 A 
ATOM      4  C   UNL     1      -4.891  12.855  21.314  0.00  0.00    +0.000 A 
ATOM      5  O   UNL     1      -5.446  13.251  22.339  0.00  0.00    +0.000 OA
ATOM      6  C   UNL     1      -3.501  13.239  20.969  0.00  0.00    +0.000 A 
ATOM      7  C   UNL     1      -2.880  14.088  21.880  0.00  0.00    +0.000 A 
ATOM      8  C   UNL     1      -1.597  14.523  21.637  0.00  0.00    +0.000 A 
ATOM      9  F   UNL     1      -1.085  15.394  22.522  0.00  0.00    +0.000 F 
ATOM     10  C   UNL     1      -0.843  14.070  20.532  0.00  0.00    +0.000 A 
ATOM     11  C   UNL     1      -1.464  13.113  19.649  0.00  0.00    +0.000 A 
ATOM     12  C   UNL     1      -2.854  12.747  19.793  0.00  0.00    +0.000 A 
ENDROOT
BRANCH  10  13
ATOM     13  N   UNL     1       0.481  14.481  20.379  0.00  0.00    +0.000 N 
ATOM     14  C   UNL     1       1.508  14.172  21.412  0.00  0.00    +0.000 C 
ATOM     15  C   UNL     1       2.878  13.963  20.730  0.00  0.00    +0.000 C 
ATOM     16  N   UNL     1       3.204  15.150  19.938  0.00  0.00    +0.000 N 
ATOM     17  C   UNL     1       4.498  15.567  19.821  0.00  0.00    +0.000 A 
ATOM     18  N   UNL     1       5.415  15.078  20.675  0.00  0.00    +0.000 NA
ATOM     19  C   UNL     1       6.658  15.591  20.620  0.00  0.00    +0.000 A 
ATOM     20  C   UNL     1       7.033  16.571  19.740  0.00  0.00    +0.000 A 
ATOM     21  C   UNL     1       6.046  17.000  18.897  0.00  0.00    +0.000 A 
ATOM     22  N   UNL     1       4.791  16.522  18.926  0.00  0.00    +0.000 NA
ATOM     23  C   UNL     1       2.215  15.539  18.934  0.00  0.00    +0.000 C 
ATOM     24  C   UNL     1       0.830  15.716  19.620  0.00  0.00    +0.000 C 
ENDBRANCH  10  13
BRANCH  11  25
ATOM     25  C   UNL     1      -0.572  12.373  18.675  0.00  0.00    +0.000 C 
ATOM     26  F   UNL     1       0.774  12.533  18.807  0.00  0.00    +0.000 F 
ATOM     27  F   UNL     1      -0.709  11.017  18.764  0.00  0.00    +0.000 F 
ATOM     28  F   UNL     1      -0.824  12.719  17.377  0.00  0.00    +0.000 F 
ENDBRANCH  11  25
BRANCH   1  30
ATOM     29  C   UNL     1      -3.411  10.024  17.322  0.00  0.00    +0.000 C 
ATOM     30  C   UNL     1      -3.265  11.518  17.547  0.00  0.00    +0.000 C 
ENDBRANCH   1  30
BRANCH   3  31
ATOM     31  C   UNL     1      -7.021  11.561  20.588  0.00  0.00    +0.000 C 
ATOM     32  O   UNL     1      -7.899  11.712  19.746  0.00  0.00    +0.000 OA
BRANCH  31  33
ATOM     33  O   UNL     1      -7.266  10.993  21.789  0.00  0.00    +0.000 OA
ATOM     34  H   UNL     1      -6.727  11.372  22.525  0.00  0.00    +0.000 HD
ENDBRANCH  31  33
ENDBRANCH   3  31
TORSDOF 5
ENDMDL
MODEL 5
REMARK VINA RESULT:      -6.0      0.322      1.219
REMARK  Name = 
REMARK  6 active torsions:
REMARK  status: ('A' for Active; 'I' for Inactive)
REMARK    1  A    between atoms: C_1  and  C_2
REMARK    2  A    between atoms: C_2  and  N_3
REMARK    3  A    between atoms: C_5  and  C_6
REMARK    4  A    between atoms: C_6  and  O_8
REMARK    5  A    between atoms: C_15  and  N_16
REMARK    6  A    between atoms: C_28  and  C_29
REMARK                            x       y       z     vdW  Elec       q    Type
REMARK                         _______ _______ _______ _____ _____    ______ ____
ROOT
ATOM      1  N   UNL     1       2.821   5.758  19.942  0.00  0.00    +0.000 N 
ATOM      2  C   UNL     1       3.688   4.914  19.243  0.00  0.00    +0.000 A 
ATOM      3  C   UNL     1       4.293   5.130  18.071  0.00  0.00    +0.000 A 
ATOM      4  C   UNL     1       4.025   6.425  17.447  0.00  0.00    +0.000 A 
ATOM      5  O   UNL     1       4.554   6.699  16.369  0.00  0.00    +0.000 OA
ATOM      6  C   UNL     1       3.134   7.377  18.154  0.00  0.00    +0.000 A 
ATOM      7  C   UNL     1       2.955   8.602  17.517  0.00  0.00    +0.000 A 
ATOM      8  C   UNL     1       2.166   9.564  18.106  0.00  0.00    +0.000 A 
ATOM      9  F   UNL     1       2.092  10.745  17.471  0.00  0.00    +0.000 F 
ATOM     10  C   UNL     1       1.453   9.327  19.302  0.00  0.00    +0.000 A 
ATOM     11  C   UNL     1       1.569   8.019  19.899  0.00  0.00    +0.000 A 
ATOM     12  C   UNL     1       2.498   7.038  19.388  0.00  0.00    +0.000 A 
ENDROOT
BRANCH  10  13
ATOM     13  N   UNL     1       0.604  10.311  19.811  0.00  0.00    +0.000 N 
ATOM     14  C   UNL     1       0.817  10.885  21.167  0.00  0.00    +0.000 C 
ATOM     15  C   UNL     1       0.377  12.366  21.174  0.00  0.00    +0.000 C 
ATOM     16  N   UNL     1      -1.014  12.455  20.728  0.00  0.00    +0.000 N 
ATOM     17  C   UNL     1      -1.848  13.396  21.255  0.00  0.00    +0.000 A 
ATOM     18  N   UNL     1      -1.484  14.024  22.387  0.00  0.00    +0.000 NA
ATOM     19  C   UNL     1      -2.372  14.861  22.953  0.00  0.00    +0.000 A 
ATOM     20  C   UNL     1      -3.615  15.109  22.434  0.00  0.00    +0.000 A 
ATOM     21  C   UNL     1      -3.899  14.444  21.274  0.00  0.00    +0.000 A 
ATOM     22  N   UNL     1      -3.045  13.593  20.682  0.00  0.00    +0.000 NA
ATOM     23  C   UNL     1      -1.304  11.868  19.421  0.00  0.00    +0.000 C 
ATOM     24  C   UNL     1      -0.829  10.385  19.409  0.00  0.00    +0.000 C 
ENDBRANCH  10  13
BRANCH  11  25
ATOM     25  C   UNL     1       0.567   7.643  20.970  0.00  0.00    +0.000 C 
ATOM     26  F   UNL     1      -0.646   8.264  20.943  0.00  0.00    +0.000 F 
ATOM     27  F   UNL     1       0.214   6.325  20.918  0.00  0.00    +0.000 F 
ATOM     28  F   UNL     1       1.039   7.886  22.230  0.00  0.00    +0.000 F 
ENDBRANCH  11  25
BRANCH   1  30
ATOM     29  C   UNL     1       2.138   3.833  21.379  0.00  0.00    +0.000 C 
ATOM     30  C   UNL     1       2.485   5.310  21.321  0.00  0.00    +0.000 C 
ENDBRANCH   1  30
BRANCH   3  31
ATOM     31  C   UNL     1       5.183   4.103  17.497  0.00  0.00    +0.000 C 
ATOM     32  O   UNL     1       4.913   3.471  16.482  0.00  0.00    +0.000 OA
BRANCH  31  33
ATOM     33  O   UNL     1       6.324   3.896  18.190  0.00  0.00    +0.000 OA
ATOM     34  H   UNL     1       6.437   2.965  18.501  0.00  0.00    +0.000 HD
ENDBRANCH  31  33
ENDBRANCH   3  31
TORSDOF 5
ENDMDL
MODEL 6
REMARK VINA RESULT:      -6.0      4.028      9.230
REMARK  Name = 
REMARK  6 active torsions:
REMARK  status: ('A' for Active; 'I' for Inactive)
REMARK    1  A    between atoms: C_1  and  C_2
REMARK    2  A    between atoms: C_2  and  N_3
REMARK    3  A    between atoms: C_5  and  C_6
REMARK    4  A    between atoms: C_6  and  O_8
REMARK    5  A    between atoms: C_15  and  N_16
REMARK    6  A    between atoms: C_28  and  C_29
REMARK                            x       y       z     vdW  Elec       q    Type
REMARK                         _______ _______ _______ _____ _____    ______ ____
ROOT
ATOM      1  N   UNL     1      -1.128  11.694  19.821  0.00  0.00    +0.000 N 
ATOM      2  C   UNL     1      -1.903  12.357  20.776  0.00  0.00    +0.000 A 
ATOM      3  C   UNL     1      -2.022  12.091  22.080  0.00  0.00    +0.000 A 
ATOM      4  C   UNL     1      -1.226  10.969  22.575  0.00  0.00    +0.000 A 
ATOM      5  O   UNL     1      -1.279  10.670  23.769  0.00  0.00    +0.000 OA
ATOM      6  C   UNL     1      -0.361  10.241  21.616  0.00  0.00    +0.000 A 
ATOM      7  C   UNL     1       0.394   9.209  22.166  0.00  0.00    +0.000 A 
ATOM      8  C   UNL     1       1.248   8.490  21.363  0.00  0.00    +0.000 A 
ATOM      9  F   UNL     1       1.995   7.555  21.972  0.00  0.00    +0.000 F 
ATOM     10  C   UNL     1       1.329   8.700  19.969  0.00  0.00    +0.000 A 
ATOM     11  C   UNL     1       0.469   9.705  19.395  0.00  0.00    +0.000 A 
ATOM     12  C   UNL     1      -0.332  10.575  20.227  0.00  0.00    +0.000 A 
ENDROOT
BRANCH  10  13
ATOM     13  N   UNL     1       2.153   7.886  19.190  0.00  0.00    +0.000 N 
ATOM     14  C   UNL     1       2.353   6.449  19.524  0.00  0.00    +0.000 C 
ATOM     15  C   UNL     1       2.550   5.641  18.222  0.00  0.00    +0.000 C 
ATOM     16  N   UNL     1       3.666   6.213  17.468  0.00  0.00    +0.000 N 
ATOM     17  C   UNL     1       4.490   5.407  16.737  0.00  0.00    +0.000 A 
ATOM     18  N   UNL     1       4.463   4.081  16.959  0.00  0.00    +0.000 NA
ATOM     19  C   UNL     1       5.364   3.320  16.315  0.00  0.00    +0.000 A 
ATOM     20  C   UNL     1       6.295   3.822  15.444  0.00  0.00    +0.000 A 
ATOM     21  C   UNL     1       6.243   5.176  15.262  0.00  0.00    +0.000 A 
ATOM     22  N   UNL     1       5.366   5.973  15.894  0.00  0.00    +0.000 NA
ATOM     23  C   UNL     1       3.557   7.635  17.146  0.00  0.00    +0.000 C 
ATOM     24  C   UNL     1       3.326   8.441  18.457  0.00  0.00    +0.000 C 
ENDBRANCH  10  13
BRANCH  11  25
ATOM     25  C   UNL     1       0.297   9.710  17.891  0.00  0.00    +0.000 C 
ATOM     26  F   UNL     1       0.464   8.527  17.235  0.00  0.00    +0.000 F 
ATOM     27  F   UNL     1      -0.962  10.074  17.508  0.00  0.00    +0.000 F 
ATOM     28  F   UNL     1       1.169  10.562  17.272  0.00  0.00    +0.000 F 
ENDBRANCH  11  25
BRANCH   1  30
ATOM     29  C   UNL     1      -0.009  13.473  18.474  0.00  0.00    +0.000 C 
ATOM     30  C   UNL     1      -1.050  12.368  18.497  0.00  0.00    +0.000 C 
ENDBRANCH   1  30
BRANCH   3  31
ATOM     31  C   UNL     1      -2.900  12.922  22.928  0.00  0.00    +0.000 C 
ATOM     32  O   UNL     1      -2.779  14.136  23.033  0.00  0.00    +0.000 OA
BRANCH  31  33
ATOM     33  O   UNL     1      -3.848  12.232  23.600  0.00  0.00    +0.000 OA
ATOM     34  H   UNL     1      -4.414  12.797  24.181  0.00  0.00    +0.000 HD
ENDBRANCH  31  33
ENDBRANCH   3  31
TORSDOF 5
ENDMDL
MODEL 7
REMARK VINA RESULT:      -5.9      1.002      1.074
REMARK  Name = 
REMARK  6 active torsions:
REMARK  status: ('A' for Active; 'I' for Inactive)
REMARK    1  A    between atoms: C_1  and  C_2
REMARK    2  A    between atoms: C_2  and  N_3
REMARK    3  A    between atoms: C_5  and  C_6
REMARK    4  A    between atoms: C_6  and  O_8
REMARK    5  A    between atoms: C_15  and  N_16
REMARK    6  A    between atoms: C_28  and  C_29
REMARK                            x       y       z     vdW  Elec       q    Type
REMARK                         _______ _______ _______ _____ _____    ______ ____
ROOT
ATOM      1  N   UNL     1       2.303   6.551  19.881  0.00  0.00    +0.000 N 
ATOM      2  C   UNL     1       3.111   5.748  19.072  0.00  0.00    +0.000 A 
ATOM      3  C   UNL     1       3.654   6.041  17.887  0.00  0.00    +0.000 A 
ATOM      4  C   UNL     1       3.379   7.384  17.377  0.00  0.00    +0.000 A 
ATOM      5  O   UNL     1       3.853   7.729  16.294  0.00  0.00    +0.000 OA
ATOM      6  C   UNL     1       2.551   8.295  18.202  0.00  0.00    +0.000 A 
ATOM      7  C   UNL     1       2.362   9.568  17.670  0.00  0.00    +0.000 A 
ATOM      8  C   UNL     1       1.629  10.496  18.374  0.00  0.00    +0.000 A 
ATOM      9  F   UNL     1       1.544  11.722  17.833  0.00  0.00    +0.000 F 
ATOM     10  C   UNL     1       0.979  10.182  19.587  0.00  0.00    +0.000 A 
ATOM     11  C   UNL     1       1.100   8.831  20.078  0.00  0.00    +0.000 A 
ATOM     12  C   UNL     1       1.978   7.875  19.443  0.00  0.00    +0.000 A 
ENDROOT
BRANCH  10  13
ATOM     13  N   UNL     1       0.182  11.139  20.216  0.00  0.00    +0.000 N 
ATOM     14  C   UNL     1      -0.920  11.824  19.485  0.00  0.00    +0.000 C 
ATOM     15  C   UNL     1      -2.073  12.135  20.466  0.00  0.00    +0.000 C 
ATOM     16  N   UNL     1      -1.551  12.924  21.582  0.00  0.00    +0.000 N 
ATOM     17  C   UNL     1      -2.324  13.883  22.170  0.00  0.00    +0.000 A 
ATOM     18  N   UNL     1      -3.428  14.307  21.530  0.00  0.00    +0.000 NA
ATOM     19  C   UNL     1      -4.109  15.334  22.069  0.00  0.00    +0.000 A 
ATOM     20  C   UNL     1      -3.741  15.958  23.231  0.00  0.00    +0.000 A 
ATOM     21  C   UNL     1      -2.618  15.456  23.826  0.00  0.00    +0.000 A 
ATOM     22  N   UNL     1      -1.904  14.439  23.316  0.00  0.00    +0.000 NA
ATOM     23  C   UNL     1      -0.435  12.331  22.317  0.00  0.00    +0.000 C 
ATOM     24  C   UNL     1       0.710  11.989  21.320  0.00  0.00    +0.000 C 
ENDBRANCH  10  13
BRANCH  11  25
ATOM     25  C   UNL     1       0.152   8.393  21.174  0.00  0.00    +0.000 C 
ATOM     26  F   UNL     1      -1.037   9.051  21.278  0.00  0.00    +0.000 F 
ATOM     27  F   UNL     1      -0.250   7.096  21.032  0.00  0.00    +0.000 F 
ATOM     28  F   UNL     1       0.708   8.510  22.417  0.00  0.00    +0.000 F 
ENDBRANCH  11  25
BRANCH   1  30
ATOM     29  C   UNL     1       2.102   4.491  21.276  0.00  0.00    +0.000 C 
ATOM     30  C   UNL     1       2.036   6.007  21.240  0.00  0.00    +0.000 C 
ENDBRANCH   1  30
BRANCH   3  31
ATOM     31  C   UNL     1       4.487   5.045  17.187  0.00  0.00    +0.000 C 
ATOM     32  O   UNL     1       4.174   3.865  17.076  0.00  0.00    +0.000 OA
BRANCH  31  33
ATOM     33  O   UNL     1       5.643   5.532  16.685  0.00  0.00    +0.000 OA
ATOM     34  H   UNL     1       5.871   5.175  15.792  0.00  0.00    +0.000 HD
ENDBRANCH  31  33
ENDBRANCH   3  31
TORSDOF 5
ENDMDL
MODEL 8
REMARK VINA RESULT:      -5.9      4.547      9.376
REMARK  Name = 
REMARK  6 active torsions:
REMARK  status: ('A' for Active; 'I' for Inactive)
REMARK    1  A    between atoms: C_1  and  C_2
REMARK    2  A    between atoms: C_2  and  N_3
REMARK    3  A    between atoms: C_5  and  C_6
REMARK    4  A    between atoms: C_6  and  O_8
REMARK    5  A    between atoms: C_15  and  N_16
REMARK    6  A    between atoms: C_28  and  C_29
REMARK                            x       y       z     vdW  Elec       q    Type
REMARK                         _______ _______ _______ _____ _____    ______ ____
ROOT
ATOM      1  N   UNL     1      -3.595  12.079  18.966  0.00  0.00    +0.000 N 
ATOM      2  C   UNL     1      -4.461  12.949  19.634  0.00  0.00    +0.000 A 
ATOM      3  C   UNL     1      -4.319  13.496  20.844  0.00  0.00    +0.000 A 
ATOM      4  C   UNL     1      -3.090  13.153  21.557  0.00  0.00    +0.000 A 
ATOM      5  O   UNL     1      -2.886  13.627  22.675  0.00  0.00    +0.000 OA
ATOM      6  C   UNL     1      -2.116  12.256  20.890  0.00  0.00    +0.000 A 
ATOM      7  C   UNL     1      -0.954  12.003  21.613  0.00  0.00    +0.000 A 
ATOM      8  C   UNL     1       0.024  11.203  21.069  0.00  0.00    +0.000 A 
ATOM      9  F   UNL     1       1.146  11.057  21.792  0.00  0.00    +0.000 F 
ATOM     10  C   UNL     1      -0.139  10.549  19.828  0.00  0.00    +0.000 A 
ATOM     11  C   UNL     1      -1.389  10.740  19.134  0.00  0.00    +0.000 A 
ATOM     12  C   UNL     1      -2.376  11.685  19.606  0.00  0.00    +0.000 A 
ENDROOT
BRANCH  10  13
ATOM     13  N   UNL     1       0.852   9.684  19.363  0.00  0.00    +0.000 N 
ATOM     14  C   UNL     1       1.411   8.614  20.233  0.00  0.00    +0.000 C 
ATOM     15  C   UNL     1       1.787   7.390  19.368  0.00  0.00    +0.000 C 
ATOM     16  N   UNL     1       2.713   7.814  18.317  0.00  0.00    +0.000 N 
ATOM     17  C   UNL     1       3.702   6.976  17.891  0.00  0.00    +0.000 A 
ATOM     18  N   UNL     1       4.012   5.905  18.642  0.00  0.00    +0.000 NA
ATOM     19  C   UNL     1       5.067   5.160  18.266  0.00  0.00    +0.000 A 
ATOM     20  C   UNL     1       5.829   5.432  17.161  0.00  0.00    +0.000 A 
ATOM     21  C   UNL     1       5.436   6.527  16.444  0.00  0.00    +0.000 A 
ATOM     22  N   UNL     1       4.396   7.302  16.790  0.00  0.00    +0.000 NA
ATOM     23  C   UNL     1       2.245   8.895  17.452  0.00  0.00    +0.000 C 
ATOM     24  C   UNL     1       1.837  10.113  18.330  0.00  0.00    +0.000 C 
ENDBRANCH  10  13
BRANCH  11  25
ATOM     25  C   UNL     1      -1.713   9.798  17.994  0.00  0.00    +0.000 C 
ATOM     26  F   UNL     1      -1.777  10.327  16.740  0.00  0.00    +0.000 F 
ATOM     27  F   UNL     1      -0.776   8.817  17.842  0.00  0.00    +0.000 F 
ATOM     28  F   UNL     1      -2.921   9.181  18.159  0.00  0.00    +0.000 F 
ENDBRANCH  11  25
BRANCH   1  30
ATOM     29  C   UNL     1      -5.376  11.355  17.374  0.00  0.00    +0.000 C 
ATOM     30  C   UNL     1      -3.941  11.818  17.542  0.00  0.00    +0.000 C 
ENDBRANCH   1  30
BRANCH   3  31
ATOM     31  C   UNL     1      -5.358  14.401  21.373  0.00  0.00    +0.000 C 
ATOM     32  O   UNL     1      -5.796  15.361  20.749  0.00  0.00    +0.000 OA
BRANCH  31  33
ATOM     33  O   UNL     1      -5.785  14.098  22.619  0.00  0.00    +0.000 OA
ATOM     34  H   UNL     1      -6.498  13.413  22.640  0.00  0.00    +0.000 HD
ENDBRANCH  31  33
ENDBRANCH   3  31
TORSDOF 5
ENDMDL
MODEL 9
REMARK VINA RESULT:      -5.9      3.972      9.248
REMARK  Name = 
REMARK  6 active torsions:
REMARK  status: ('A' for Active; 'I' for Inactive)
REMARK    1  A    between atoms: C_1  and  C_2
REMARK    2  A    between atoms: C_2  and  N_3
REMARK    3  A    between atoms: C_5  and  C_6
REMARK    4  A    between atoms: C_6  and  O_8
REMARK    5  A    between atoms: C_15  and  N_16
REMARK    6  A    between atoms: C_28  and  C_29
REMARK                            x       y       z     vdW  Elec       q    Type
REMARK                         _______ _______ _______ _____ _____    ______ ____
ROOT
ATOM      1  N   UNL     1      -0.505  11.508  19.975  0.00  0.00    +0.000 N 
ATOM      2  C   UNL     1      -1.247  12.105  20.998  0.00  0.00    +0.000 A 
ATOM      3  C   UNL     1      -1.412  11.689  22.257  0.00  0.00    +0.000 A 
ATOM      4  C   UNL     1      -0.712  10.457  22.616  0.00  0.00    +0.000 A 
ATOM      5  O   UNL     1      -0.811  10.016  23.762  0.00  0.00    +0.000 OA
ATOM      6  C   UNL     1       0.116   9.790  21.582  0.00  0.00    +0.000 A 
ATOM      7  C   UNL     1       0.781   8.643  22.007  0.00  0.00    +0.000 A 
ATOM      8  C   UNL     1       1.595   7.966  21.128  0.00  0.00    +0.000 A 
ATOM      9  F   UNL     1       2.258   6.908  21.624  0.00  0.00    +0.000 F 
ATOM     10  C   UNL     1       1.720   8.341  19.773  0.00  0.00    +0.000 A 
ATOM     11  C   UNL     1       0.948   9.472  19.320  0.00  0.00    +0.000 A 
ATOM     12  C   UNL     1       0.198  10.290  20.246  0.00  0.00    +0.000 A 
ENDROOT
BRANCH  10  13
ATOM     13  N   UNL     1       2.496   7.569  18.907  0.00  0.00    +0.000 N 
ATOM     14  C   UNL     1       3.321   8.202  17.841  0.00  0.00    +0.000 C 
ATOM     15  C   UNL     1       4.600   7.366  17.616  0.00  0.00    +0.000 C 
ATOM     16  N   UNL     1       4.223   5.987  17.304  0.00  0.00    +0.000 N 
ATOM     17  C   UNL     1       4.966   5.249  16.429  0.00  0.00    +0.000 A 
ATOM     18  N   UNL     1       5.847   5.882  15.633  0.00  0.00    +0.000 NA
ATOM     19  C   UNL     1       6.482   5.153  14.699  0.00  0.00    +0.000 A 
ATOM     20  C   UNL     1       6.285   3.809  14.525  0.00  0.00    +0.000 A 
ATOM     21  C   UNL     1       5.388   3.241  15.385  0.00  0.00    +0.000 A 
ATOM     22  N   UNL     1       4.725   3.934  16.325  0.00  0.00    +0.000 NA
ATOM     23  C   UNL     1       3.373   5.319  18.289  0.00  0.00    +0.000 C 
ATOM     24  C   UNL     1       2.101   6.181  18.536  0.00  0.00    +0.000 C 
ENDBRANCH  10  13
BRANCH  11  25
ATOM     25  C   UNL     1       0.807   9.677  17.827  0.00  0.00    +0.000 C 
ATOM     26  F   UNL     1       0.982   8.590  17.024  0.00  0.00    +0.000 F 
ATOM     27  F   UNL     1      -0.442  10.097  17.471  0.00  0.00    +0.000 F 
ATOM     28  F   UNL     1       1.696  10.596  17.344  0.00  0.00    +0.000 F 
ENDBRANCH  11  25
BRANCH   1  30
ATOM     29  C   UNL     1      -0.219  13.814  19.060  0.00  0.00    +0.000 C 
ATOM     30  C   UNL     1      -0.350  12.334  18.747  0.00  0.00    +0.000 C 
ENDBRANCH   1  30
BRANCH   3  31
ATOM     31  C   UNL     1      -2.242  12.473  23.192  0.00  0.00    +0.000 C 
ATOM     32  O   UNL     1      -1.975  13.620  23.528  0.00  0.00    +0.000 OA
BRANCH  31  33
ATOM     33  O   UNL     1      -3.323  11.816  23.669  0.00  0.00    +0.000 OA
ATOM     34  H   UNL     1      -3.982  12.405  24.112  0.00  0.00    +0.000 HD
ENDBRANCH  31  33
ENDBRANCH   3  31
TORSDOF 5
ENDMDL
