MODEL 1
REMARK VINA RESULT:      -8.6      0.000      0.000
REMARK  Name = 
REMARK  3 active torsions:
REMARK  status: ('A' for Active; 'I' for Inactive)
REMARK    1  A    between atoms: N_1  and  C_2
REMARK    2  A    between atoms: C_5  and  N_6
REMARK    3  A    between atoms: N_6  and  C_7
REMARK                            x       y       z     vdW  Elec       q    Type
REMARK                         _______ _______ _______ _____ _____    ______ ____
ROOT
ATOM      1  C   UNL     1       3.481   5.512  18.804  0.00  0.00    +0.000 A 
ATOM      2  C   UNL     1       4.666   5.460  17.958  0.00  0.00    +0.000 A 
ATOM      3  C   UNL     1       5.718   6.416  17.942  0.00  0.00    +0.000 A 
ATOM      4  C   UNL     1       6.740   6.386  16.998  0.00  0.00    +0.000 A 
ATOM      5  C   UNL     1       6.804   5.353  16.076  0.00  0.00    +0.000 A 
ATOM      6  C   UNL     1       5.883   4.314  16.149  0.00  0.00    +0.000 A 
ATOM      7  C   UNL     1       4.838   4.353  17.082  0.00  0.00    +0.000 A 
ATOM      8  N   UNL     1       4.009   3.297  17.143  0.00  0.00    +0.000 NA
ATOM      9  C   UNL     1       2.968   3.230  18.005  0.00  0.00    +0.000 A 
ATOM     10  C   UNL     1       2.224   2.052  18.050  0.00  0.00    +0.000 A 
ATOM     11  C   UNL     1       1.131   1.942  18.902  0.00  0.00    +0.000 A 
ATOM     12  C   UNL     1       0.764   3.020  19.699  0.00  0.00    +0.000 A 
ATOM     13  C   UNL     1       1.502   4.206  19.668  0.00  0.00    +0.000 A 
ATOM     14  C   UNL     1       2.643   4.341  18.834  0.00  0.00    +0.000 A 
ENDROOT
BRANCH   1  15
ATOM     15  N   UNL     1       3.119   6.661  19.629  0.00  0.00    +0.000 N 
ATOM     16  H   UNL     1       3.613   6.796  20.518  0.00  0.00    +0.000 HD
BRANCH  15  20
ATOM     17  C   UNL     1       0.916  10.168  18.791  0.00  0.00    +0.000 A 
ATOM     18  C   UNL     1       1.592   9.518  17.754  0.00  0.00    +0.000 A 
ATOM     19  C   UNL     1       2.218   8.289  17.974  0.00  0.00    +0.000 A 
ATOM     20  C   UNL     1       2.258   7.747  19.274  0.00  0.00    +0.000 A 
ATOM     21  C   UNL     1       1.486   8.345  20.282  0.00  0.00    +0.000 A 
ATOM     22  C   UNL     1       0.819   9.549  20.043  0.00  0.00    +0.000 A 
BRANCH  17  23
ATOM     23  N   UNL     1       0.367  11.458  18.586  0.00  0.00    +0.000 N 
ATOM     24  H   UNL     1       0.527  12.209  19.274  0.00  0.00    +0.000 HD
ATOM     25  H   UNL     1      -0.284  11.634  17.808  0.00  0.00    +0.000 HD
ENDBRANCH  17  23
ENDBRANCH  15  20
ENDBRANCH   1  15
TORSDOF 3
ENDMDL
MODEL 2
REMARK VINA RESULT:      -8.5      3.396      5.591
REMARK  Name = 
REMARK  3 active torsions:
REMARK  status: ('A' for Active; 'I' for Inactive)
REMARK    1  A    between atoms: N_1  and  C_2
REMARK    2  A    between atoms: C_5  and  N_6
REMARK    3  A    between atoms: N_6  and  C_7
REMARK                            x       y       z     vdW  Elec       q    Type
REMARK                         _______ _______ _______ _____ _____    ______ ____
ROOT
ATOM      1  C   UNL     1       5.712   3.723  16.163  0.00  0.00    +0.000 A 
ATOM      2  C   UNL     1       6.037   3.950  14.761  0.00  0.00    +0.000 A 
ATOM      3  C   UNL     1       5.407   3.325  13.651  0.00  0.00    +0.000 A 
ATOM      4  C   UNL     1       5.876   3.471  12.348  0.00  0.00    +0.000 A 
ATOM      5  C   UNL     1       6.945   4.311  12.084  0.00  0.00    +0.000 A 
ATOM      6  C   UNL     1       7.498   5.059  13.118  0.00  0.00    +0.000 A 
ATOM      7  C   UNL     1       7.046   4.898  14.434  0.00  0.00    +0.000 A 
ATOM      8  N   UNL     1       7.579   5.686  15.383  0.00  0.00    +0.000 NA
ATOM      9  C   UNL     1       7.216   5.613  16.686  0.00  0.00    +0.000 A 
ATOM     10  C   UNL     1       7.765   6.536  17.575  0.00  0.00    +0.000 A 
ATOM     11  C   UNL     1       7.442   6.489  18.926  0.00  0.00    +0.000 A 
ATOM     12  C   UNL     1       6.585   5.502  19.399  0.00  0.00    +0.000 A 
ATOM     13  C   UNL     1       6.024   4.573  18.519  0.00  0.00    +0.000 A 
ATOM     14  C   UNL     1       6.305   4.613  17.128  0.00  0.00    +0.000 A 
ENDROOT
BRANCH   1  15
ATOM     15  N   UNL     1       4.808   2.676  16.631  0.00  0.00    +0.000 N 
ATOM     16  H   UNL     1       5.108   1.699  16.540  0.00  0.00    +0.000 HD
BRANCH  15  20
ATOM     17  C   UNL     1       1.514   3.346  19.191  0.00  0.00    +0.000 A 
ATOM     18  C   UNL     1       1.735   4.212  18.115  0.00  0.00    +0.000 A 
ATOM     19  C   UNL     1       2.735   3.942  17.179  0.00  0.00    +0.000 A 
ATOM     20  C   UNL     1       3.596   2.844  17.372  0.00  0.00    +0.000 A 
ATOM     21  C   UNL     1       3.300   1.920  18.386  0.00  0.00    +0.000 A 
ATOM     22  C   UNL     1       2.266   2.169  19.291  0.00  0.00    +0.000 A 
BRANCH  17  23
ATOM     23  N   UNL     1       0.565   3.677  20.189  0.00  0.00    +0.000 N 
ATOM     24  H   UNL     1      -0.296   3.118  20.298  0.00  0.00    +0.000 HD
ATOM     25  H   UNL     1       0.665   4.539  20.744  0.00  0.00    +0.000 HD
ENDBRANCH  17  23
ENDBRANCH  15  20
ENDBRANCH   1  15
TORSDOF 3
ENDMDL
MODEL 3
REMARK VINA RESULT:      -8.4      0.527      1.158
REMARK  Name = 
REMARK  3 active torsions:
REMARK  status: ('A' for Active; 'I' for Inactive)
REMARK    1  A    between atoms: N_1  and  C_2
REMARK    2  A    between atoms: C_5  and  N_6
REMARK    3  A    between atoms: N_6  and  C_7
REMARK                            x       y       z     vdW  Elec       q    Type
REMARK                         _______ _______ _______ _____ _____    ______ ____
ROOT
ATOM      1  C   UNL     1       3.182   5.611  18.855  0.00  0.00    +0.000 A 
ATOM      2  C   UNL     1       4.238   5.570  17.852  0.00  0.00    +0.000 A 
ATOM      3  C   UNL     1       5.281   6.525  17.704  0.00  0.00    +0.000 A 
ATOM      4  C   UNL     1       6.161   6.507  16.625  0.00  0.00    +0.000 A 
ATOM      5  C   UNL     1       6.092   5.489  15.689  0.00  0.00    +0.000 A 
ATOM      6  C   UNL     1       5.186   4.451  15.874  0.00  0.00    +0.000 A 
ATOM      7  C   UNL     1       4.282   4.477  16.944  0.00  0.00    +0.000 A 
ATOM      8  N   UNL     1       3.467   3.420  17.104  0.00  0.00    +0.000 NA
ATOM      9  C   UNL     1       2.555   3.342  18.102  0.00  0.00    +0.000 A 
ATOM     10  C   UNL     1       1.821   2.164  18.232  0.00  0.00    +0.000 A 
ATOM     11  C   UNL     1       0.857   2.042  19.227  0.00  0.00    +0.000 A 
ATOM     12  C   UNL     1       0.608   3.109  20.083  0.00  0.00    +0.000 A 
ATOM     13  C   UNL     1       1.339   4.294  19.967  0.00  0.00    +0.000 A 
ATOM     14  C   UNL     1       2.354   4.440  18.985  0.00  0.00    +0.000 A 
ENDROOT
BRANCH   1  15
ATOM     15  N   UNL     1       2.943   6.748  19.740  0.00  0.00    +0.000 N 
ATOM     16  H   UNL     1       3.449   6.784  20.632  0.00  0.00    +0.000 HD
BRANCH  15  20
ATOM     17  C   UNL     1       0.418   9.954  18.647  0.00  0.00    +0.000 A 
ATOM     18  C   UNL     1       0.459   9.537  19.982  0.00  0.00    +0.000 A 
ATOM     19  C   UNL     1       1.377   8.570  20.396  0.00  0.00    +0.000 A 
ATOM     20  C   UNL     1       2.201   7.935  19.445  0.00  0.00    +0.000 A 
ATOM     21  C   UNL     1       2.233   8.434  18.134  0.00  0.00    +0.000 A 
ATOM     22  C   UNL     1       1.347   9.438  17.736  0.00  0.00    +0.000 A 
BRANCH  17  23
ATOM     23  N   UNL     1      -0.580  10.863  18.215  0.00  0.00    +0.000 N 
ATOM     24  H   UNL     1      -1.491  10.907  18.698  0.00  0.00    +0.000 HD
ATOM     25  H   UNL     1      -0.453  11.411  17.353  0.00  0.00    +0.000 HD
ENDBRANCH  17  23
ENDBRANCH  15  20
ENDBRANCH   1  15
TORSDOF 3
ENDMDL
MODEL 4
REMARK VINA RESULT:      -8.4      0.866      3.869
REMARK  Name = 
REMARK  3 active torsions:
REMARK  status: ('A' for Active; 'I' for Inactive)
REMARK    1  A    between atoms: N_1  and  C_2
REMARK    2  A    between atoms: C_5  and  N_6
REMARK    3  A    between atoms: N_6  and  C_7
REMARK                            x       y       z     vdW  Elec       q    Type
REMARK                         _______ _______ _______ _____ _____    ______ ____
ROOT
ATOM      1  C   UNL     1       3.241   5.725  18.791  0.00  0.00    +0.000 A 
ATOM      2  C   UNL     1       2.517   4.528  19.199  0.00  0.00    +0.000 A 
ATOM      3  C   UNL     1       1.494   4.472  20.185  0.00  0.00    +0.000 A 
ATOM      4  C   UNL     1       0.958   3.269  20.635  0.00  0.00    +0.000 A 
ATOM      5  C   UNL     1       1.360   2.072  20.066  0.00  0.00    +0.000 A 
ATOM      6  C   UNL     1       2.248   2.089  18.996  0.00  0.00    +0.000 A 
ATOM      7  C   UNL     1       2.809   3.294  18.555  0.00  0.00    +0.000 A 
ATOM      8  N   UNL     1       3.619   3.256  17.483  0.00  0.00    +0.000 NA
ATOM      9  C   UNL     1       4.214   4.361  16.974  0.00  0.00    +0.000 A 
ATOM     10  C   UNL     1       4.964   4.226  15.807  0.00  0.00    +0.000 A 
ATOM     11  C   UNL     1       5.614   5.325  15.257  0.00  0.00    +0.000 A 
ATOM     12  C   UNL     1       5.535   6.562  15.887  0.00  0.00    +0.000 A 
ATOM     13  C   UNL     1       4.785   6.713  17.056  0.00  0.00    +0.000 A 
ATOM     14  C   UNL     1       4.081   5.620  17.625  0.00  0.00    +0.000 A 
ENDROOT
BRANCH   1  15
ATOM     15  N   UNL     1       3.140   7.011  19.475  0.00  0.00    +0.000 N 
ATOM     16  H   UNL     1       3.957   7.352  19.994  0.00  0.00    +0.000 HD
BRANCH  15  20
ATOM     17  C   UNL     1       0.313  10.151  19.400  0.00  0.00    +0.000 A 
ATOM     18  C   UNL     1       0.953   9.775  18.214  0.00  0.00    +0.000 A 
ATOM     19  C   UNL     1       1.792   8.659  18.183  0.00  0.00    +0.000 A 
ATOM     20  C   UNL     1       2.078   7.965  19.375  0.00  0.00    +0.000 A 
ATOM     21  C   UNL     1       1.350   8.277  20.533  0.00  0.00    +0.000 A 
ATOM     22  C   UNL     1       0.473   9.364  20.547  0.00  0.00    +0.000 A 
BRANCH  17  23
ATOM     23  N   UNL     1      -0.458  11.339  19.447  0.00  0.00    +0.000 N 
ATOM     24  H   UNL     1      -0.387  11.975  20.256  0.00  0.00    +0.000 HD
ATOM     25  H   UNL     1      -1.175  11.528  18.734  0.00  0.00    +0.000 HD
ENDBRANCH  17  23
ENDBRANCH  15  20
ENDBRANCH   1  15
TORSDOF 3
ENDMDL
MODEL 5
REMARK VINA RESULT:      -8.4      3.209      5.740
REMARK  Name = 
REMARK  3 active torsions:
REMARK  status: ('A' for Active; 'I' for Inactive)
REMARK    1  A    between atoms: N_1  and  C_2
REMARK    2  A    between atoms: C_5  and  N_6
REMARK    3  A    between atoms: N_6  and  C_7
REMARK                            x       y       z     vdW  Elec       q    Type
REMARK                         _______ _______ _______ _____ _____    ______ ____
ROOT
ATOM      1  C   UNL     1       5.657   3.851  16.170  0.00  0.00    +0.000 A 
ATOM      2  C   UNL     1       6.346   4.668  17.160  0.00  0.00    +0.000 A 
ATOM      3  C   UNL     1       6.248   4.522  18.571  0.00  0.00    +0.000 A 
ATOM      4  C   UNL     1       6.810   5.438  19.456  0.00  0.00    +0.000 A 
ATOM      5  C   UNL     1       7.564   6.496  18.976  0.00  0.00    +0.000 A 
ATOM      6  C   UNL     1       7.812   6.595  17.611  0.00  0.00    +0.000 A 
ATOM      7  C   UNL     1       7.229   5.690  16.714  0.00  0.00    +0.000 A 
ATOM      8  N   UNL     1       7.547   5.800  15.414  0.00  0.00    +0.000 NA
ATOM      9  C   UNL     1       7.041   4.980  14.462  0.00  0.00    +0.000 A 
ATOM     10  C   UNL     1       7.505   5.122  13.156  0.00  0.00    +0.000 A 
ATOM     11  C   UNL     1       7.000   4.320  12.138  0.00  0.00    +0.000 A 
ATOM     12  C   UNL     1       6.011   3.385  12.422  0.00  0.00    +0.000 A 
ATOM     13  C   UNL     1       5.539   3.229  13.727  0.00  0.00    +0.000 A 
ATOM     14  C   UNL     1       6.056   4.008  14.795  0.00  0.00    +0.000 A 
ENDROOT
BRANCH   1  15
ATOM     15  N   UNL     1       4.619   2.878  16.498  0.00  0.00    +0.000 N 
ATOM     16  H   UNL     1       4.776   1.896  16.246  0.00  0.00    +0.000 HD
BRANCH  15  20
ATOM     17  C   UNL     1       1.474   3.530  19.244  0.00  0.00    +0.000 A 
ATOM     18  C   UNL     1       1.878   4.572  18.402  0.00  0.00    +0.000 A 
ATOM     19  C   UNL     1       2.822   4.349  17.398  0.00  0.00    +0.000 A 
ATOM     20  C   UNL     1       3.450   3.092  17.295  0.00  0.00    +0.000 A 
ATOM     21  C   UNL     1       2.963   2.024  18.065  0.00  0.00    +0.000 A 
ATOM     22  C   UNL     1       1.981   2.242  19.035  0.00  0.00    +0.000 A 
BRANCH  17  23
ATOM     23  N   UNL     1       0.591   3.786  20.321  0.00  0.00    +0.000 N 
ATOM     24  H   UNL     1      -0.408   3.974  20.144  0.00  0.00    +0.000 HD
ATOM     25  H   UNL     1       0.949   3.897  21.280  0.00  0.00    +0.000 HD
ENDBRANCH  17  23
ENDBRANCH  15  20
ENDBRANCH   1  15
TORSDOF 3
ENDMDL
MODEL 6
REMARK VINA RESULT:      -8.3      1.414      4.254
REMARK  Name = 
REMARK  3 active torsions:
REMARK  status: ('A' for Active; 'I' for Inactive)
REMARK    1  A    between atoms: N_1  and  C_2
REMARK    2  A    between atoms: C_5  and  N_6
REMARK    3  A    between atoms: N_6  and  C_7
REMARK                            x       y       z     vdW  Elec       q    Type
REMARK                         _______ _______ _______ _____ _____    ______ ____
ROOT
ATOM      1  C   UNL     1       3.292   5.791  18.437  0.00  0.00    +0.000 A 
ATOM      2  C   UNL     1       2.784   4.637  19.167  0.00  0.00    +0.000 A 
ATOM      3  C   UNL     1       1.413   4.329  19.384  0.00  0.00    +0.000 A 
ATOM      4  C   UNL     1       1.005   3.297  20.224  0.00  0.00    +0.000 A 
ATOM      5  C   UNL     1       1.945   2.473  20.821  0.00  0.00    +0.000 A 
ATOM      6  C   UNL     1       3.292   2.642  20.519  0.00  0.00    +0.000 A 
ATOM      7  C   UNL     1       3.710   3.695  19.694  0.00  0.00    +0.000 A 
ATOM      8  N   UNL     1       5.017   3.777  19.392  0.00  0.00    +0.000 NA
ATOM      9  C   UNL     1       5.529   4.753  18.605  0.00  0.00    +0.000 A 
ATOM     10  C   UNL     1       6.883   4.696  18.282  0.00  0.00    +0.000 A 
ATOM     11  C   UNL     1       7.461   5.686  17.496  0.00  0.00    +0.000 A 
ATOM     12  C   UNL     1       6.689   6.753  17.049  0.00  0.00    +0.000 A 
ATOM     13  C   UNL     1       5.330   6.822  17.362  0.00  0.00    +0.000 A 
ATOM     14  C   UNL     1       4.700   5.810  18.133  0.00  0.00    +0.000 A 
ENDROOT
BRANCH   1  15
ATOM     15  N   UNL     1       2.456   6.899  17.981  0.00  0.00    +0.000 N 
ATOM     16  H   UNL     1       2.022   6.831  17.054  0.00  0.00    +0.000 HD
BRANCH  15  20
ATOM     17  C   UNL     1       0.698  10.125  20.068  0.00  0.00    +0.000 A 
ATOM     18  C   UNL     1       1.083   8.979  20.773  0.00  0.00    +0.000 A 
ATOM     19  C   UNL     1       1.784   7.954  20.134  0.00  0.00    +0.000 A 
ATOM     20  C   UNL     1       2.016   8.025  18.746  0.00  0.00    +0.000 A 
ATOM     21  C   UNL     1       1.727   9.220  18.070  0.00  0.00    +0.000 A 
ATOM     22  C   UNL     1       1.071  10.264  18.726  0.00  0.00    +0.000 A 
BRANCH  17  23
ATOM     23  N   UNL     1      -0.096  11.115  20.698  0.00  0.00    +0.000 N 
ATOM     24  H   UNL     1       0.106  12.116  20.553  0.00  0.00    +0.000 HD
ATOM     25  H   UNL     1      -0.811  10.853  21.390  0.00  0.00    +0.000 HD
ENDBRANCH  17  23
ENDBRANCH  15  20
ENDBRANCH   1  15
TORSDOF 3
ENDMDL
MODEL 7
REMARK VINA RESULT:      -8.2      3.479      5.860
REMARK  Name = 
REMARK  3 active torsions:
REMARK  status: ('A' for Active; 'I' for Inactive)
REMARK    1  A    between atoms: N_1  and  C_2
REMARK    2  A    between atoms: C_5  and  N_6
REMARK    3  A    between atoms: N_6  and  C_7
REMARK                            x       y       z     vdW  Elec       q    Type
REMARK                         _______ _______ _______ _____ _____    ______ ____
ROOT
ATOM      1  C   UNL     1       5.616   3.911  16.107  0.00  0.00    +0.000 A 
ATOM      2  C   UNL     1       6.326   4.711  17.096  0.00  0.00    +0.000 A 
ATOM      3  C   UNL     1       6.206   4.585  18.507  0.00  0.00    +0.000 A 
ATOM      4  C   UNL     1       6.793   5.488  19.389  0.00  0.00    +0.000 A 
ATOM      5  C   UNL     1       7.594   6.511  18.906  0.00  0.00    +0.000 A 
ATOM      6  C   UNL     1       7.862   6.584  17.543  0.00  0.00    +0.000 A 
ATOM      7  C   UNL     1       7.253   5.692  16.649  0.00  0.00    +0.000 A 
ATOM      8  N   UNL     1       7.591   5.775  15.351  0.00  0.00    +0.000 NA
ATOM      9  C   UNL     1       7.064   4.965  14.403  0.00  0.00    +0.000 A 
ATOM     10  C   UNL     1       7.548   5.074  13.101  0.00  0.00    +0.000 A 
ATOM     11  C   UNL     1       7.024   4.281  12.086  0.00  0.00    +0.000 A 
ATOM     12  C   UNL     1       5.995   3.389  12.368  0.00  0.00    +0.000 A 
ATOM     13  C   UNL     1       5.502   3.266  13.669  0.00  0.00    +0.000 A 
ATOM     14  C   UNL     1       6.038   4.036  14.735  0.00  0.00    +0.000 A 
ENDROOT
BRANCH   1  15
ATOM     15  N   UNL     1       4.537   2.982  16.432  0.00  0.00    +0.000 N 
ATOM     16  H   UNL     1       4.497   2.088  15.932  0.00  0.00    +0.000 HD
BRANCH  15  20
ATOM     17  C   UNL     1       1.417   3.132  19.278  0.00  0.00    +0.000 A 
ATOM     18  C   UNL     1       2.370   2.111  19.356  0.00  0.00    +0.000 A 
ATOM     19  C   UNL     1       3.482   2.111  18.513  0.00  0.00    +0.000 A 
ATOM     20  C   UNL     1       3.596   3.088  17.505  0.00  0.00    +0.000 A 
ATOM     21  C   UNL     1       2.700   4.169  17.503  0.00  0.00    +0.000 A 
ATOM     22  C   UNL     1       1.616   4.191  18.384  0.00  0.00    +0.000 A 
BRANCH  17  23
ATOM     23  N   UNL     1       0.243   3.073  20.068  0.00  0.00    +0.000 N 
ATOM     24  H   UNL     1      -0.683   2.980  19.623  0.00  0.00    +0.000 HD
ATOM     25  H   UNL     1       0.286   3.231  21.085  0.00  0.00    +0.000 HD
ENDBRANCH  17  23
ENDBRANCH  15  20
ENDBRANCH   1  15
TORSDOF 3
ENDMDL
MODEL 8
REMARK VINA RESULT:      -8.2      1.420      1.752
REMARK  Name = 
REMARK  3 active torsions:
REMARK  status: ('A' for Active; 'I' for Inactive)
REMARK    1  A    between atoms: N_1  and  C_2
REMARK    2  A    between atoms: C_5  and  N_6
REMARK    3  A    between atoms: N_6  and  C_7
REMARK                            x       y       z     vdW  Elec       q    Type
REMARK                         _______ _______ _______ _____ _____    ______ ____
ROOT
ATOM      1  C   UNL     1       3.263   5.748  18.527  0.00  0.00    +0.000 A 
ATOM      2  C   UNL     1       4.678   5.798  18.183  0.00  0.00    +0.000 A 
ATOM      3  C   UNL     1       5.338   6.881  17.541  0.00  0.00    +0.000 A 
ATOM      4  C   UNL     1       6.656   6.795  17.101  0.00  0.00    +0.000 A 
ATOM      5  C   UNL     1       7.401   5.655  17.353  0.00  0.00    +0.000 A 
ATOM      6  C   UNL     1       6.844   4.629  18.109  0.00  0.00    +0.000 A 
ATOM      7  C   UNL     1       5.510   4.700  18.533  0.00  0.00    +0.000 A 
ATOM      8  N   UNL     1       5.043   3.705  19.306  0.00  0.00    +0.000 NA
ATOM      9  C   UNL     1       3.771   3.673  19.770  0.00  0.00    +0.000 A 
ATOM     10  C   UNL     1       3.412   2.642  20.638  0.00  0.00    +0.000 A 
ATOM     11  C   UNL     1       2.113   2.552  21.124  0.00  0.00    +0.000 A 
ATOM     12  C   UNL     1       1.159   3.481  20.725  0.00  0.00    +0.000 A 
ATOM     13  C   UNL     1       1.504   4.522  19.860  0.00  0.00    +0.000 A 
ATOM     14  C   UNL     1       2.830   4.664  19.371  0.00  0.00    +0.000 A 
ENDROOT
BRANCH   1  15
ATOM     15  N   UNL     1       2.283   6.739  18.092  0.00  0.00    +0.000 N 
ATOM     16  H   UNL     1       1.647   6.490  17.326  0.00  0.00    +0.000 HD
BRANCH  15  20
ATOM     17  C   UNL     1       0.906  10.369  19.760  0.00  0.00    +0.000 A 
ATOM     18  C   UNL     1       1.091   9.258  20.590  0.00  0.00    +0.000 A 
ATOM     19  C   UNL     1       1.666   8.087  20.093  0.00  0.00    +0.000 A 
ATOM     20  C   UNL     1       1.972   7.986  18.721  0.00  0.00    +0.000 A 
ATOM     21  C   UNL     1       1.889   9.135  17.921  0.00  0.00    +0.000 A 
ATOM     22  C   UNL     1       1.359  10.320  18.436  0.00  0.00    +0.000 A 
BRANCH  17  23
ATOM     23  N   UNL     1       0.234  11.517  20.246  0.00  0.00    +0.000 N 
ATOM     24  H   UNL     1      -0.797  11.541  20.285  0.00  0.00    +0.000 HD
ATOM     25  H   UNL     1       0.754  12.379  20.462  0.00  0.00    +0.000 HD
ENDBRANCH  17  23
ENDBRANCH  15  20
ENDBRANCH   1  15
TORSDOF 3
ENDMDL
MODEL 9
REMARK VINA RESULT:      -8.1      0.784      4.045
REMARK  Name = 
REMARK  3 active torsions:
REMARK  status: ('A' for Active; 'I' for Inactive)
REMARK    1  A    between atoms: N_1  and  C_2
REMARK    2  A    between atoms: C_5  and  N_6
REMARK    3  A    between atoms: N_6  and  C_7
REMARK                            x       y       z     vdW  Elec       q    Type
REMARK                         _______ _______ _______ _____ _____    ______ ____
ROOT
ATOM      1  C   UNL     1       3.175   5.665  18.850  0.00  0.00    +0.000 A 
ATOM      2  C   UNL     1       2.347   4.488  19.078  0.00  0.00    +0.000 A 
ATOM      3  C   UNL     1       1.259   4.402  19.989  0.00  0.00    +0.000 A 
ATOM      4  C   UNL     1       0.614   3.200  20.269  0.00  0.00    +0.000 A 
ATOM      5  C   UNL     1       0.972   2.045  19.593  0.00  0.00    +0.000 A 
ATOM      6  C   UNL     1       1.928   2.112  18.585  0.00  0.00    +0.000 A 
ATOM      7  C   UNL     1       2.597   3.313  18.317  0.00  0.00    +0.000 A 
ATOM      8  N   UNL     1       3.471   3.332  17.296  0.00  0.00    +0.000 NA
ATOM      9  C   UNL     1       4.172   4.438  16.950  0.00  0.00    +0.000 A 
ATOM     10  C   UNL     1       4.986   4.375  15.821  0.00  0.00    +0.000 A 
ATOM     11  C   UNL     1       5.744   5.476  15.437  0.00  0.00    +0.000 A 
ATOM     12  C   UNL     1       5.706   6.639  16.197  0.00  0.00    +0.000 A 
ATOM     13  C   UNL     1       4.892   6.719  17.329  0.00  0.00    +0.000 A 
ATOM     14  C   UNL     1       4.080   5.625  17.730  0.00  0.00    +0.000 A 
ENDROOT
BRANCH   1  15
ATOM     15  N   UNL     1       3.115   6.874  19.667  0.00  0.00    +0.000 N 
ATOM     16  H   UNL     1       3.871   7.044  20.340  0.00  0.00    +0.000 HD
BRANCH  15  20
ATOM     17  C   UNL     1       0.108   9.779  19.053  0.00  0.00    +0.000 A 
ATOM     18  C   UNL     1       0.333   9.284  20.342  0.00  0.00    +0.000 A 
ATOM     19  C   UNL     1       1.402   8.424  20.597  0.00  0.00    +0.000 A 
ATOM     20  C   UNL     1       2.203   7.968  19.531  0.00  0.00    +0.000 A 
ATOM     21  C   UNL     1       2.043   8.551  18.265  0.00  0.00    +0.000 A 
ATOM     22  C   UNL     1       1.002   9.451  18.026  0.00  0.00    +0.000 A 
BRANCH  17  23
ATOM     23  N   UNL     1      -1.034  10.571  18.782  0.00  0.00    +0.000 N 
ATOM     24  H   UNL     1      -1.743  10.734  19.514  0.00  0.00    +0.000 HD
ATOM     25  H   UNL     1      -1.228  10.905  17.827  0.00  0.00    +0.000 HD
ENDBRANCH  17  23
ENDBRANCH  15  20
ENDBRANCH   1  15
TORSDOF 3
ENDMDL
