MODEL 1
REMARK VINA RESULT:      -7.3      0.000      0.000
REMARK  Name = 
REMARK  7 active torsions:
REMARK  status: ('A' for Active; 'I' for Inactive)
REMARK    1  A    between atoms: C_1  and  O_2
REMARK    2  A    between atoms: O_2  and  C_3
REMARK    3  A    between atoms: N_8  and  C_9
REMARK    4  A    between atoms: C_9  and  C_10
REMARK    5  A    between atoms: C_10  and  C_11
REMARK    6  A    between atoms: C_21  and  O_22
REMARK    7  A    between atoms: O_22  and  C_23
REMARK                            x       y       z     vdW  Elec       q    Type
REMARK                         _______ _______ _______ _____ _____    ______ ____
ROOT
ATOM      1  C   UNL     1       3.467   4.078  19.049  0.00  0.00    +0.000 A 
ATOM      2  C   UNL     1       3.353   5.184  18.191  0.00  0.00    +0.000 A 
ATOM      3  C   UNL     1       2.737   6.368  18.607  0.00  0.00    +0.000 A 
ATOM      4  C   UNL     1       2.726   7.502  17.800  0.00  0.00    +0.000 A 
ATOM      5  C   UNL     1       2.154   8.674  18.271  0.00  0.00    +0.000 A 
ATOM      6  N   UNL     1       1.561   8.724  19.485  0.00  0.00    +0.000 N 
ATOM      7  C   UNL     1       1.558   7.626  20.285  0.00  0.00    +0.000 A 
ATOM      8  C   UNL     1       2.144   6.426  19.875  0.00  0.00    +0.000 A 
ATOM      9  C   UNL     1       2.170   5.287  20.692  0.00  0.00    +0.000 A 
ATOM     10  C   UNL     1       2.824   4.109  20.291  0.00  0.00    +0.000 A 
ENDROOT
BRANCH   1  12
ATOM     11  C   UNL     1       3.424   1.904  18.093  0.00  0.00    +0.000 C 
ATOM     12  O   UNL     1       4.181   2.971  18.672  0.00  0.00    +0.000 OA
ENDBRANCH   1  12
BRANCH  10  13
ATOM     13  O   UNL     1       2.742   3.140  21.254  0.00  0.00    +0.000 OA
ATOM     14  C   UNL     1       1.474   2.601  21.595  0.00  0.00    +0.000 C 
ENDBRANCH  10  13
BRANCH   6  15
ATOM     15  C   UNL     1       0.987   9.991  20.035  0.00  0.00    +0.000 C 
BRANCH  15  16
ATOM     16  C   UNL     1       0.642  11.022  18.961  0.00  0.00    +0.000 C 
BRANCH  16  17
ATOM     17  C   UNL     1      -0.829  11.006  18.635  0.00  0.00    +0.000 A 
ATOM     18  C   UNL     1      -1.327  10.101  17.684  0.00  0.00    +0.000 A 
ATOM     19  C   UNL     1      -2.685  10.091  17.360  0.00  0.00    +0.000 A 
ATOM     20  C   UNL     1      -3.552  10.987  17.983  0.00  0.00    +0.000 A 
ATOM     21 CL   UNL     1      -5.220  10.983  17.570  0.00  0.00    +0.000 Cl
ATOM     22  C   UNL     1      -3.072  11.883  18.933  0.00  0.00    +0.000 A 
ATOM     23  C   UNL     1      -1.714  11.895  19.261  0.00  0.00    +0.000 A 
ENDBRANCH  16  17
ENDBRANCH  15  16
ENDBRANCH   6  15
TORSDOF 5
ENDMDL
MODEL 2
REMARK VINA RESULT:      -7.2      3.066      4.794
REMARK  Name = 
REMARK  7 active torsions:
REMARK  status: ('A' for Active; 'I' for Inactive)
REMARK    1  A    between atoms: C_1  and  O_2
REMARK    2  A    between atoms: O_2  and  C_3
REMARK    3  A    between atoms: N_8  and  C_9
REMARK    4  A    between atoms: C_9  and  C_10
REMARK    5  A    between atoms: C_10  and  C_11
REMARK    6  A    between atoms: C_21  and  O_22
REMARK    7  A    between atoms: O_22  and  C_23
REMARK                            x       y       z     vdW  Elec       q    Type
REMARK                         _______ _______ _______ _____ _____    ______ ____
ROOT
ATOM      1  C   UNL     1       6.110   4.915  15.684  0.00  0.00    +0.000 A 
ATOM      2  C   UNL     1       4.966   4.155  15.982  0.00  0.00    +0.000 A 
ATOM      3  C   UNL     1       4.130   4.488  17.052  0.00  0.00    +0.000 A 
ATOM      4  C   UNL     1       2.937   3.808  17.278  0.00  0.00    +0.000 A 
ATOM      5  C   UNL     1       2.108   4.204  18.317  0.00  0.00    +0.000 A 
ATOM      6  N   UNL     1       2.459   5.210  19.148  0.00  0.00    +0.000 N 
ATOM      7  C   UNL     1       3.622   5.883  18.945  0.00  0.00    +0.000 A 
ATOM      8  C   UNL     1       4.484   5.547  17.898  0.00  0.00    +0.000 A 
ATOM      9  C   UNL     1       5.679   6.240  17.659  0.00  0.00    +0.000 A 
ATOM     10  C   UNL     1       6.500   5.933  16.560  0.00  0.00    +0.000 A 
ENDROOT
BRANCH   1  12
ATOM     11  C   UNL     1       6.235   3.804  13.588  0.00  0.00    +0.000 C 
ATOM     12  O   UNL     1       6.850   4.653  14.561  0.00  0.00    +0.000 OA
ENDBRANCH   1  12
BRANCH  10  13
ATOM     13  O   UNL     1       7.596   6.751  16.512  0.00  0.00    +0.000 OA
ATOM     14  C   UNL     1       7.757   7.762  17.496  0.00  0.00    +0.000 C 
ENDBRANCH  10  13
BRANCH   6  15
ATOM     15  C   UNL     1       1.556   5.689  20.239  0.00  0.00    +0.000 C 
BRANCH  15  16
ATOM     16  C   UNL     1       2.086   6.918  20.976  0.00  0.00    +0.000 C 
BRANCH  16  17
ATOM     17  C   UNL     1       1.276   8.146  20.653  0.00  0.00    +0.000 A 
ATOM     18  C   UNL     1       0.352   8.643  21.586  0.00  0.00    +0.000 A 
ATOM     19  C   UNL     1      -0.419   9.768  21.289  0.00  0.00    +0.000 A 
ATOM     20  C   UNL     1      -0.272  10.402  20.057  0.00  0.00    +0.000 A 
ATOM     21 CL   UNL     1      -1.233  11.777  19.687  0.00  0.00    +0.000 Cl
ATOM     22  C   UNL     1       0.647   9.925  19.127  0.00  0.00    +0.000 A 
ATOM     23  C   UNL     1       1.421   8.799  19.421  0.00  0.00    +0.000 A 
ENDBRANCH  16  17
ENDBRANCH  15  16
ENDBRANCH   6  15
TORSDOF 5
ENDMDL
MODEL 3
REMARK VINA RESULT:      -7.1      1.322      2.586
REMARK  Name = 
REMARK  7 active torsions:
REMARK  status: ('A' for Active; 'I' for Inactive)
REMARK    1  A    between atoms: C_1  and  O_2
REMARK    2  A    between atoms: O_2  and  C_3
REMARK    3  A    between atoms: N_8  and  C_9
REMARK    4  A    between atoms: C_9  and  C_10
REMARK    5  A    between atoms: C_10  and  C_11
REMARK    6  A    between atoms: C_21  and  O_22
REMARK    7  A    between atoms: O_22  and  C_23
REMARK                            x       y       z     vdW  Elec       q    Type
REMARK                         _______ _______ _______ _____ _____    ______ ____
ROOT
ATOM      1  C   UNL     1       4.161   3.937  18.738  0.00  0.00    +0.000 A 
ATOM      2  C   UNL     1       3.428   4.715  19.649  0.00  0.00    +0.000 A 
ATOM      3  C   UNL     1       3.001   6.006  19.326  0.00  0.00    +0.000 A 
ATOM      4  C   UNL     1       2.178   6.732  20.181  0.00  0.00    +0.000 A 
ATOM      5  C   UNL     1       1.729   7.988  19.800  0.00  0.00    +0.000 A 
ATOM      6  N   UNL     1       2.118   8.544  18.631  0.00  0.00    +0.000 N 
ATOM      7  C   UNL     1       2.925   7.852  17.785  0.00  0.00    +0.000 A 
ATOM      8  C   UNL     1       3.384   6.572  18.104  0.00  0.00    +0.000 A 
ATOM      9  C   UNL     1       4.202   5.832  17.237  0.00  0.00    +0.000 A 
ATOM     10  C   UNL     1       4.598   4.519  17.542  0.00  0.00    +0.000 A 
ENDROOT
BRANCH   1  12
ATOM     11  C   UNL     1       4.255   2.215  20.371  0.00  0.00    +0.000 C 
ATOM     12  O   UNL     1       4.466   2.631  19.019  0.00  0.00    +0.000 OA
ENDBRANCH   1  12
BRANCH  10  13
ATOM     13  O   UNL     1       5.370   3.985  16.546  0.00  0.00    +0.000 OA
ATOM     14  C   UNL     1       6.695   4.460  16.358  0.00  0.00    +0.000 C 
ENDBRANCH  10  13
BRANCH   6  15
ATOM     15  C   UNL     1       1.603   9.872  18.176  0.00  0.00    +0.000 C 
BRANCH  15  16
ATOM     16  C   UNL     1       0.696  10.559  19.197  0.00  0.00    +0.000 C 
BRANCH  16  17
ATOM     17  C   UNL     1      -0.708  10.710  18.671  0.00  0.00    +0.000 A 
ATOM     18  C   UNL     1      -1.145   9.915  17.599  0.00  0.00    +0.000 A 
ATOM     19  C   UNL     1      -2.437  10.061  17.091  0.00  0.00    +0.000 A 
ATOM     20  C   UNL     1      -3.298  11.003  17.649  0.00  0.00    +0.000 A 
ATOM     21 CL   UNL     1      -4.883  11.191  17.011  0.00  0.00    +0.000 Cl
ATOM     22  C   UNL     1      -2.881  11.790  18.718  0.00  0.00    +0.000 A 
ATOM     23  C   UNL     1      -1.588  11.647  19.230  0.00  0.00    +0.000 A 
ENDBRANCH  16  17
ENDBRANCH  15  16
ENDBRANCH   6  15
TORSDOF 5
ENDMDL
MODEL 4
REMARK VINA RESULT:      -7.0      0.558      1.152
REMARK  Name = 
REMARK  7 active torsions:
REMARK  status: ('A' for Active; 'I' for Inactive)
REMARK    1  A    between atoms: C_1  and  O_2
REMARK    2  A    between atoms: O_2  and  C_3
REMARK    3  A    between atoms: N_8  and  C_9
REMARK    4  A    between atoms: C_9  and  C_10
REMARK    5  A    between atoms: C_10  and  C_11
REMARK    6  A    between atoms: C_21  and  O_22
REMARK    7  A    between atoms: O_22  and  C_23
REMARK                            x       y       z     vdW  Elec       q    Type
REMARK                         _______ _______ _______ _____ _____    ______ ____
ROOT
ATOM      1  C   UNL     1       3.402   4.632  19.105  0.00  0.00    +0.000 A 
ATOM      2  C   UNL     1       3.312   5.725  18.226  0.00  0.00    +0.000 A 
ATOM      3  C   UNL     1       2.658   6.904  18.595  0.00  0.00    +0.000 A 
ATOM      4  C   UNL     1       2.668   8.026  17.772  0.00  0.00    +0.000 A 
ATOM      5  C   UNL     1       2.056   9.195  18.198  0.00  0.00    +0.000 A 
ATOM      6  N   UNL     1       1.403   9.252  19.380  0.00  0.00    +0.000 N 
ATOM      7  C   UNL     1       1.379   8.165  20.195  0.00  0.00    +0.000 A 
ATOM      8  C   UNL     1       2.003   6.970  19.831  0.00  0.00    +0.000 A 
ATOM      9  C   UNL     1       2.006   5.842  20.665  0.00  0.00    +0.000 A 
ATOM     10  C   UNL     1       2.698   4.670  20.314  0.00  0.00    +0.000 A 
ENDROOT
BRANCH   1  12
ATOM     11  C   UNL     1       3.766   2.843  17.586  0.00  0.00    +0.000 C 
ATOM     12  O   UNL     1       4.150   3.532  18.779  0.00  0.00    +0.000 OA
ENDBRANCH   1  12
BRANCH  10  13
ATOM     13  O   UNL     1       2.584   3.713  21.285  0.00  0.00    +0.000 OA
ATOM     14  C   UNL     1       1.417   2.905  21.335  0.00  0.00    +0.000 C 
ENDBRANCH  10  13
BRANCH   6  15
ATOM     15  C   UNL     1       0.784  10.517  19.883  0.00  0.00    +0.000 C 
BRANCH  15  16
ATOM     16  C   UNL     1       0.303  11.447  18.769  0.00  0.00    +0.000 C 
BRANCH  16  17
ATOM     17  C   UNL     1      -1.174  11.289  18.519  0.00  0.00    +0.000 A 
ATOM     18  C   UNL     1      -2.090  12.132  19.169  0.00  0.00    +0.000 A 
ATOM     19  C   UNL     1      -3.462  11.981  18.960  0.00  0.00    +0.000 A 
ATOM     20  C   UNL     1      -3.926  10.986  18.103  0.00  0.00    +0.000 A 
ATOM     21 CL   UNL     1      -5.616  10.792  17.861  0.00  0.00    +0.000 Cl
ATOM     22  C   UNL     1      -3.029  10.149  17.446  0.00  0.00    +0.000 A 
ATOM     23  C   UNL     1      -1.654  10.298  17.652  0.00  0.00    +0.000 A 
ENDBRANCH  16  17
ENDBRANCH  15  16
ENDBRANCH   6  15
TORSDOF 5
ENDMDL
MODEL 5
REMARK VINA RESULT:      -7.0      2.937      4.483
REMARK  Name = 
REMARK  7 active torsions:
REMARK  status: ('A' for Active; 'I' for Inactive)
REMARK    1  A    between atoms: C_1  and  O_2
REMARK    2  A    between atoms: O_2  and  C_3
REMARK    3  A    between atoms: N_8  and  C_9
REMARK    4  A    between atoms: C_9  and  C_10
REMARK    5  A    between atoms: C_10  and  C_11
REMARK    6  A    between atoms: C_21  and  O_22
REMARK    7  A    between atoms: O_22  and  C_23
REMARK                            x       y       z     vdW  Elec       q    Type
REMARK                         _______ _______ _______ _____ _____    ______ ____
ROOT
ATOM      1  C   UNL     1       6.052   5.112  15.858  0.00  0.00    +0.000 A 
ATOM      2  C   UNL     1       4.834   4.459  16.116  0.00  0.00    +0.000 A 
ATOM      3  C   UNL     1       4.026   4.825  17.196  0.00  0.00    +0.000 A 
ATOM      4  C   UNL     1       2.769   4.261  17.384  0.00  0.00    +0.000 A 
ATOM      5  C   UNL     1       1.974   4.690  18.436  0.00  0.00    +0.000 A 
ATOM      6  N   UNL     1       2.418   5.615  19.316  0.00  0.00    +0.000 N 
ATOM      7  C   UNL     1       3.645   6.175  19.151  0.00  0.00    +0.000 A 
ATOM      8  C   UNL     1       4.478   5.802  18.093  0.00  0.00    +0.000 A 
ATOM      9  C   UNL     1       5.739   6.380  17.893  0.00  0.00    +0.000 A 
ATOM     10  C   UNL     1       6.535   6.043  16.784  0.00  0.00    +0.000 A 
ENDROOT
BRANCH   1  12
ATOM     11  C   UNL     1       6.185   3.881  13.831  0.00  0.00    +0.000 C 
ATOM     12  O   UNL     1       6.772   4.828  14.728  0.00  0.00    +0.000 OA
ENDBRANCH   1  12
BRANCH  10  13
ATOM     13  O   UNL     1       7.709   6.746  16.780  0.00  0.00    +0.000 OA
ATOM     14  C   UNL     1       7.763   8.019  17.407  0.00  0.00    +0.000 C 
ENDBRANCH  10  13
BRANCH   6  15
ATOM     15  C   UNL     1       1.557   6.132  20.424  0.00  0.00    +0.000 C 
BRANCH  15  16
ATOM     16  C   UNL     1       2.004   7.491  20.962  0.00  0.00    +0.000 C 
BRANCH  16  17
ATOM     17  C   UNL     1       1.188   8.612  20.372  0.00  0.00    +0.000 A 
ATOM     18  C   UNL     1       1.421   9.031  19.053  0.00  0.00    +0.000 A 
ATOM     19  C   UNL     1       0.684  10.082  18.503  0.00  0.00    +0.000 A 
ATOM     20  C   UNL     1      -0.288  10.720  19.270  0.00  0.00    +0.000 A 
ATOM     21 CL   UNL     1      -1.183  12.024  18.596  0.00  0.00    +0.000 Cl
ATOM     22  C   UNL     1      -0.536  10.308  20.576  0.00  0.00    +0.000 A 
ATOM     23  C   UNL     1       0.199   9.256  21.129  0.00  0.00    +0.000 A 
ENDBRANCH  16  17
ENDBRANCH  15  16
ENDBRANCH   6  15
TORSDOF 5
ENDMDL
MODEL 6
REMARK VINA RESULT:      -7.0      4.527      8.050
REMARK  Name = 
REMARK  7 active torsions:
REMARK  status: ('A' for Active; 'I' for Inactive)
REMARK    1  A    between atoms: C_1  and  O_2
REMARK    2  A    between atoms: O_2  and  C_3
REMARK    3  A    between atoms: N_8  and  C_9
REMARK    4  A    between atoms: C_9  and  C_10
REMARK    5  A    between atoms: C_10  and  C_11
REMARK    6  A    between atoms: C_21  and  O_22
REMARK    7  A    between atoms: O_22  and  C_23
REMARK                            x       y       z     vdW  Elec       q    Type
REMARK                         _______ _______ _______ _____ _____    ______ ____
ROOT
ATOM      1  C   UNL     1       0.101   9.958  19.885  0.00  0.00    +0.000 A 
ATOM      2  C   UNL     1       1.021   9.700  18.855  0.00  0.00    +0.000 A 
ATOM      3  C   UNL     1       1.839   8.566  18.876  0.00  0.00    +0.000 A 
ATOM      4  C   UNL     1       2.666   8.249  17.803  0.00  0.00    +0.000 A 
ATOM      5  C   UNL     1       3.421   7.086  17.839  0.00  0.00    +0.000 A 
ATOM      6  N   UNL     1       3.407   6.277  18.921  0.00  0.00    +0.000 N 
ATOM      7  C   UNL     1       2.610   6.573  19.981  0.00  0.00    +0.000 A 
ATOM      8  C   UNL     1       1.806   7.715  19.989  0.00  0.00    +0.000 A 
ATOM      9  C   UNL     1       0.962   8.030  21.063  0.00  0.00    +0.000 A 
ATOM     10  C   UNL     1       0.109   9.146  21.025  0.00  0.00    +0.000 A 
ENDROOT
BRANCH   1  12
ATOM     11  C   UNL     1      -0.430  12.037  18.866  0.00  0.00    +0.000 C 
ATOM     12  O   UNL     1      -0.779  11.003  19.790  0.00  0.00    +0.000 OA
ENDBRANCH   1  12
BRANCH  10  13
ATOM     13  O   UNL     1      -0.639   9.243  22.167  0.00  0.00    +0.000 OA
ATOM     14  C   UNL     1       0.001   9.555  23.396  0.00  0.00    +0.000 C 
ENDBRANCH  10  13
BRANCH   6  15
ATOM     15  C   UNL     1       4.171   4.991  18.959  0.00  0.00    +0.000 C 
BRANCH  15  16
ATOM     16  C   UNL     1       5.640   5.141  18.566  0.00  0.00    +0.000 C 
BRANCH  16  17
ATOM     17  C   UNL     1       5.863   4.781  17.120  0.00  0.00    +0.000 A 
ATOM     18  C   UNL     1       7.020   5.221  16.458  0.00  0.00    +0.000 A 
ATOM     19  C   UNL     1       7.227   4.910  15.113  0.00  0.00    +0.000 A 
ATOM     20  C   UNL     1       6.277   4.159  14.422  0.00  0.00    +0.000 A 
ATOM     21 CL   UNL     1       6.526   3.792  12.762  0.00  0.00    +0.000 Cl
ATOM     22  C   UNL     1       5.130   3.710  15.069  0.00  0.00    +0.000 A 
ATOM     23  C   UNL     1       4.920   4.019  16.416  0.00  0.00    +0.000 A 
ENDBRANCH  16  17
ENDBRANCH  15  16
ENDBRANCH   6  15
TORSDOF 5
ENDMDL
MODEL 7
REMARK VINA RESULT:      -7.0      1.182      2.726
REMARK  Name = 
REMARK  7 active torsions:
REMARK  status: ('A' for Active; 'I' for Inactive)
REMARK    1  A    between atoms: C_1  and  O_2
REMARK    2  A    between atoms: O_2  and  C_3
REMARK    3  A    between atoms: N_8  and  C_9
REMARK    4  A    between atoms: C_9  and  C_10
REMARK    5  A    between atoms: C_10  and  C_11
REMARK    6  A    between atoms: C_21  and  O_22
REMARK    7  A    between atoms: O_22  and  C_23
REMARK                            x       y       z     vdW  Elec       q    Type
REMARK                         _______ _______ _______ _____ _____    ______ ____
ROOT
ATOM      1  C   UNL     1       3.828   4.331  18.390  0.00  0.00    +0.000 A 
ATOM      2  C   UNL     1       3.131   4.711  19.550  0.00  0.00    +0.000 A 
ATOM      3  C   UNL     1       2.578   5.988  19.682  0.00  0.00    +0.000 A 
ATOM      4  C   UNL     1       1.789   6.326  20.777  0.00  0.00    +0.000 A 
ATOM      5  C   UNL     1       1.212   7.585  20.845  0.00  0.00    +0.000 A 
ATOM      6  N   UNL     1       1.442   8.512  19.888  0.00  0.00    +0.000 N 
ATOM      7  C   UNL     1       2.212   8.201  18.813  0.00  0.00    +0.000 A 
ATOM      8  C   UNL     1       2.796   6.939  18.678  0.00  0.00    +0.000 A 
ATOM      9  C   UNL     1       3.579   6.591  17.568  0.00  0.00    +0.000 A 
ATOM     10  C   UNL     1       4.101   5.295  17.413  0.00  0.00    +0.000 A 
ENDROOT
BRANCH   1  12
ATOM     11  C   UNL     1       3.253   2.027  18.329  0.00  0.00    +0.000 C 
ATOM     12  O   UNL     1       4.257   3.041  18.222  0.00  0.00    +0.000 OA
ENDBRANCH   1  12
BRANCH  10  13
ATOM     13  O   UNL     1       4.809   5.178  16.248  0.00  0.00    +0.000 OA
ATOM     14  C   UNL     1       6.219   5.344  16.269  0.00  0.00    +0.000 C 
ENDBRANCH  10  13
BRANCH   6  15
ATOM     15  C   UNL     1       0.786   9.856  19.913  0.00  0.00    +0.000 C 
BRANCH  15  16
ATOM     16  C   UNL     1       0.535  10.439  18.523  0.00  0.00    +0.000 C 
BRANCH  16  17
ATOM     17  C   UNL     1      -0.937  10.624  18.262  0.00  0.00    +0.000 A 
ATOM     18  C   UNL     1      -1.658  11.600  18.969  0.00  0.00    +0.000 A 
ATOM     19  C   UNL     1      -3.027  11.766  18.749  0.00  0.00    +0.000 A 
ATOM     20  C   UNL     1      -3.682  10.956  17.824  0.00  0.00    +0.000 A 
ATOM     21 CL   UNL     1      -5.370  11.152  17.567  0.00  0.00    +0.000 Cl
ATOM     22  C   UNL     1      -2.977   9.991  17.110  0.00  0.00    +0.000 A 
ATOM     23  C   UNL     1      -1.607   9.823  17.327  0.00  0.00    +0.000 A 
ENDBRANCH  16  17
ENDBRANCH  15  16
ENDBRANCH   6  15
TORSDOF 5
ENDMDL
MODEL 8
REMARK VINA RESULT:      -6.9      1.165      1.525
REMARK  Name = 
REMARK  7 active torsions:
REMARK  status: ('A' for Active; 'I' for Inactive)
REMARK    1  A    between atoms: C_1  and  O_2
REMARK    2  A    between atoms: O_2  and  C_3
REMARK    3  A    between atoms: N_8  and  C_9
REMARK    4  A    between atoms: C_9  and  C_10
REMARK    5  A    between atoms: C_10  and  C_11
REMARK    6  A    between atoms: C_21  and  O_22
REMARK    7  A    between atoms: O_22  and  C_23
REMARK                            x       y       z     vdW  Elec       q    Type
REMARK                         _______ _______ _______ _____ _____    ______ ____
ROOT
ATOM      1  C   UNL     1       4.617   4.897  17.935  0.00  0.00    +0.000 A 
ATOM      2  C   UNL     1       4.168   6.097  17.359  0.00  0.00    +0.000 A 
ATOM      3  C   UNL     1       3.281   6.941  18.033  0.00  0.00    +0.000 A 
ATOM      4  C   UNL     1       2.927   8.183  17.514  0.00  0.00    +0.000 A 
ATOM      5  C   UNL     1       2.088   9.016  18.240  0.00  0.00    +0.000 A 
ATOM      6  N   UNL     1       1.565   8.623  19.423  0.00  0.00    +0.000 N 
ATOM      7  C   UNL     1       1.896   7.413  19.943  0.00  0.00    +0.000 A 
ATOM      8  C   UNL     1       2.759   6.544  19.271  0.00  0.00    +0.000 A 
ATOM      9  C   UNL     1       3.129   5.298  19.798  0.00  0.00    +0.000 A 
ATOM     10  C   UNL     1       4.053   4.467  19.141  0.00  0.00    +0.000 A 
ENDROOT
BRANCH   1  12
ATOM     11  C   UNL     1       6.375   4.816  16.340  0.00  0.00    +0.000 C 
ATOM     12  O   UNL     1       5.579   4.142  17.318  0.00  0.00    +0.000 OA
ENDBRANCH   1  12
BRANCH  10  13
ATOM     13  O   UNL     1       4.281   3.317  19.848  0.00  0.00    +0.000 OA
ATOM     14  C   UNL     1       3.613   2.122  19.472  0.00  0.00    +0.000 C 
ENDBRANCH  10  13
BRANCH   6  15
ATOM     15  C   UNL     1       0.704   9.526  20.247  0.00  0.00    +0.000 C 
BRANCH  15  16
ATOM     16  C   UNL     1       0.454  10.889  19.601  0.00  0.00    +0.000 C 
BRANCH  16  17
ATOM     17  C   UNL     1      -0.935  10.978  19.024  0.00  0.00    +0.000 A 
ATOM     18  C   UNL     1      -1.278  10.211  17.899  0.00  0.00    +0.000 A 
ATOM     19  C   UNL     1      -2.556  10.301  17.344  0.00  0.00    +0.000 A 
ATOM     20  C   UNL     1      -3.497  11.159  17.909  0.00  0.00    +0.000 A 
ATOM     21 CL   UNL     1      -5.064  11.279  17.214  0.00  0.00    +0.000 Cl
ATOM     22  C   UNL     1      -3.173  11.918  19.030  0.00  0.00    +0.000 A 
ATOM     23  C   UNL     1      -1.895  11.830  19.589  0.00  0.00    +0.000 A 
ENDBRANCH  16  17
ENDBRANCH  15  16
ENDBRANCH   6  15
TORSDOF 5
ENDMDL
MODEL 9
REMARK VINA RESULT:      -6.9      1.182      2.476
REMARK  Name = 
REMARK  7 active torsions:
REMARK  status: ('A' for Active; 'I' for Inactive)
REMARK    1  A    between atoms: C_1  and  O_2
REMARK    2  A    between atoms: O_2  and  C_3
REMARK    3  A    between atoms: N_8  and  C_9
REMARK    4  A    between atoms: C_9  and  C_10
REMARK    5  A    between atoms: C_10  and  C_11
REMARK    6  A    between atoms: C_21  and  O_22
REMARK    7  A    between atoms: O_22  and  C_23
REMARK                            x       y       z     vdW  Elec       q    Type
REMARK                         _______ _______ _______ _____ _____    ______ ____
ROOT
ATOM      1  C   UNL     1       3.602   4.417  18.687  0.00  0.00    +0.000 A 
ATOM      2  C   UNL     1       2.904   4.890  19.811  0.00  0.00    +0.000 A 
ATOM      3  C   UNL     1       2.390   6.189  19.856  0.00  0.00    +0.000 A 
ATOM      4  C   UNL     1       1.600   6.619  20.918  0.00  0.00    +0.000 A 
ATOM      5  C   UNL     1       1.063   7.898  20.899  0.00  0.00    +0.000 A 
ATOM      6  N   UNL     1       1.333   8.755  19.890  0.00  0.00    +0.000 N 
ATOM      7  C   UNL     1       2.107   8.354  18.847  0.00  0.00    +0.000 A 
ATOM      8  C   UNL     1       2.651   7.069  18.798  0.00  0.00    +0.000 A 
ATOM      9  C   UNL     1       3.436   6.628  17.723  0.00  0.00    +0.000 A 
ATOM     10  C   UNL     1       3.918   5.310  17.657  0.00  0.00    +0.000 A 
ENDROOT
BRANCH   1  12
ATOM     11  C   UNL     1       4.355   2.481  19.839  0.00  0.00    +0.000 C 
ATOM     12  O   UNL     1       3.991   3.106  18.605  0.00  0.00    +0.000 OA
ENDBRANCH   1  12
BRANCH  10  13
ATOM     13  O   UNL     1       4.636   5.097  16.511  0.00  0.00    +0.000 OA
ATOM     14  C   UNL     1       6.055   5.075  16.571  0.00  0.00    +0.000 C 
ENDBRANCH  10  13
BRANCH   6  15
ATOM     15  C   UNL     1       0.721  10.118  19.823  0.00  0.00    +0.000 C 
BRANCH  15  16
ATOM     16  C   UNL     1       0.351  10.552  18.405  0.00  0.00    +0.000 C 
BRANCH  16  17
ATOM     17  C   UNL     1      -1.140  10.699  18.247  0.00  0.00    +0.000 A 
ATOM     18  C   UNL     1      -1.835   9.875  17.347  0.00  0.00    +0.000 A 
ATOM     19  C   UNL     1      -3.213  10.016  17.177  0.00  0.00    +0.000 A 
ATOM     20  C   UNL     1      -3.905  10.983  17.905  0.00  0.00    +0.000 A 
ATOM     21 CL   UNL     1      -5.599  11.166  17.682  0.00  0.00    +0.000 Cl
ATOM     22  C   UNL     1      -3.229  11.800  18.806  0.00  0.00    +0.000 A 
ATOM     23  C   UNL     1      -1.850  11.661  18.979  0.00  0.00    +0.000 A 
ENDBRANCH  16  17
ENDBRANCH  15  16
ENDBRANCH   6  15
TORSDOF 5
ENDMDL
