MODEL 1
REMARK VINA RESULT:      -9.2      0.000      0.000
REMARK  Name = 
REMARK  4 active torsions:
REMARK  status: ('A' for Active; 'I' for Inactive)
REMARK    1  A    between atoms: C_2  and  C_5
REMARK    2  A    between atoms: N_3  and  O_4
REMARK    3  A    between atoms: C_8  and  C_9
REMARK    4  A    between atoms: C_17  and  C_18
REMARK                            x       y       z     vdW  Elec       q    Type
REMARK                         _______ _______ _______ _____ _____    ______ ____
ROOT
ATOM      1  C   UNL     1       0.129  10.628  20.941  0.00  0.00    +0.000 C 
ATOM      2  O   UNL     1       1.201  11.211  20.808  0.00  0.00    +0.000 OA
ATOM      3  N   UNL     1      -0.078   9.294  20.598  0.00  0.00    +0.000 N 
ATOM      4  C   UNL     1       0.968   8.374  20.426  0.00  0.00    +0.000 A 
ATOM      5  N   UNL     1       0.964   7.401  21.350  0.00  0.00    +0.000 NA
ATOM      6  N   UNL     1       1.978   6.602  21.010  0.00  0.00    +0.000 N 
ATOM      7  C   UNL     1       2.546   6.895  19.808  0.00  0.00    +0.000 A 
ATOM      8  C   UNL     1       3.520   6.181  19.092  0.00  0.00    +0.000 A 
ATOM      9  C   UNL     1       3.903   6.553  17.791  0.00  0.00    +0.000 A 
ATOM     10  C   UNL     1       3.331   7.755  17.324  0.00  0.00    +0.000 A 
ATOM     11  C   UNL     1       2.378   8.528  18.101  0.00  0.00    +0.000 A 
ATOM     12  C   UNL     1       1.936   8.074  19.374  0.00  0.00    +0.000 A 
ATOM     13  H   UNL     1      -0.751   8.854  21.211  0.00  0.00    +0.000 HD
ATOM     14  H   UNL     1       2.191   5.810  21.605  0.00  0.00    +0.000 HD
ENDROOT
BRANCH   9  15
ATOM     15  C   UNL     1       4.903   5.648  17.071  0.00  0.00    +0.000 A 
ATOM     16  C   UNL     1       6.190   6.139  16.695  0.00  0.00    +0.000 A 
ATOM     17 CL   UNL     1       6.920   7.534  17.441  0.00  0.00    +0.000 Cl
ATOM     18  C   UNL     1       6.990   5.516  15.716  0.00  0.00    +0.000 A 
ATOM     19  C   UNL     1       6.590   4.321  15.143  0.00  0.00    +0.000 A 
ATOM     20  C   UNL     1       5.417   3.719  15.605  0.00  0.00    +0.000 A 
ATOM     21  C   UNL     1       4.592   4.371  16.555  0.00  0.00    +0.000 A 
ATOM     22 CL   UNL     1       3.172   3.492  17.004  0.00  0.00    +0.000 Cl
ENDBRANCH   9  15
BRANCH   1  26
ATOM     23  C   UNL     1      -3.439  12.746  22.487  0.00  0.00    +0.000 A 
ATOM     24  C   UNL     1      -3.053  12.822  21.147  0.00  0.00    +0.000 A 
ATOM     25  C   UNL     1      -1.880  12.164  20.698  0.00  0.00    +0.000 A 
ATOM     26  C   UNL     1      -1.058  11.400  21.557  0.00  0.00    +0.000 A 
ATOM     27  C   UNL     1      -1.425  11.378  22.912  0.00  0.00    +0.000 A 
ATOM     28  C   UNL     1      -2.599  12.038  23.364  0.00  0.00    +0.000 A 
BRANCH  23  30
ATOM     29  O   UNL     1      -5.193  14.338  22.511  0.00  0.00    +0.000 OA
ATOM     30  C   UNL     1      -4.723  13.313  23.013  0.00  0.00    +0.000 C 
ATOM     31  N   UNL     1      -5.360  12.684  24.053  0.00  0.00    +0.000 N 
ATOM     32  H   UNL     1      -5.120  11.781  24.445  0.00  0.00    +0.000 HD
BRANCH  31  33
ATOM     33  O   UNL     1      -6.571  13.276  24.483  0.00  0.00    +0.000 OA
ATOM     34  H   UNL     1      -6.986  12.565  25.025  0.00  0.00    +0.000 HD
ENDBRANCH  31  33
ENDBRANCH  23  30
ENDBRANCH   1  26
TORSDOF 4
ENDMDL
MODEL 2
REMARK VINA RESULT:      -8.9      0.772      1.179
REMARK  Name = 
REMARK  4 active torsions:
REMARK  status: ('A' for Active; 'I' for Inactive)
REMARK    1  A    between atoms: C_2  and  C_5
REMARK    2  A    between atoms: N_3  and  O_4
REMARK    3  A    between atoms: C_8  and  C_9
REMARK    4  A    between atoms: C_17  and  C_18
REMARK                            x       y       z     vdW  Elec       q    Type
REMARK                         _______ _______ _______ _____ _____    ______ ____
ROOT
ATOM      1  C   UNL     1       0.076  10.887  20.714  0.00  0.00    +0.000 C 
ATOM      2  O   UNL     1       1.158  11.450  20.564  0.00  0.00    +0.000 OA
ATOM      3  N   UNL     1      -0.144   9.541  20.435  0.00  0.00    +0.000 N 
ATOM      4  C   UNL     1       0.891   8.600  20.320  0.00  0.00    +0.000 A 
ATOM      5  N   UNL     1       0.866   7.675  21.291  0.00  0.00    +0.000 NA
ATOM      6  N   UNL     1       1.872   6.847  21.002  0.00  0.00    +0.000 N 
ATOM      7  C   UNL     1       2.456   7.073  19.792  0.00  0.00    +0.000 A 
ATOM      8  C   UNL     1       3.428   6.313  19.123  0.00  0.00    +0.000 A 
ATOM      9  C   UNL     1       3.829   6.616  17.809  0.00  0.00    +0.000 A 
ATOM     10  C   UNL     1       3.278   7.799  17.278  0.00  0.00    +0.000 A 
ATOM     11  C   UNL     1       2.327   8.621  18.005  0.00  0.00    +0.000 A 
ATOM     12  C   UNL     1       1.866   8.236  19.294  0.00  0.00    +0.000 A 
ATOM     13  H   UNL     1      -0.829   9.141  21.061  0.00  0.00    +0.000 HD
ATOM     14  H   UNL     1       2.069   6.083  21.637  0.00  0.00    +0.000 HD
ENDROOT
BRANCH   9  15
ATOM     15  C   UNL     1       4.825   5.663  17.146  0.00  0.00    +0.000 A 
ATOM     16  C   UNL     1       6.127   6.115  16.773  0.00  0.00    +0.000 A 
ATOM     17 CL   UNL     1       6.869   7.528  17.473  0.00  0.00    +0.000 Cl
ATOM     18  C   UNL     1       6.932   5.437  15.835  0.00  0.00    +0.000 A 
ATOM     19  C   UNL     1       6.520   4.227  15.306  0.00  0.00    +0.000 A 
ATOM     20  C   UNL     1       5.328   3.665  15.771  0.00  0.00    +0.000 A 
ATOM     21  C   UNL     1       4.500   4.371  16.678  0.00  0.00    +0.000 A 
ATOM     22 CL   UNL     1       3.056   3.537  17.139  0.00  0.00    +0.000 Cl
ENDBRANCH   9  15
BRANCH   1  26
ATOM     23  C   UNL     1      -3.143  13.308  22.552  0.00  0.00    +0.000 A 
ATOM     24  C   UNL     1      -2.388  12.394  23.290  0.00  0.00    +0.000 A 
ATOM     25  C   UNL     1      -1.394  11.606  22.657  0.00  0.00    +0.000 A 
ATOM     26  C   UNL     1      -1.106  11.704  21.277  0.00  0.00    +0.000 A 
ATOM     27  C   UNL     1      -1.910  12.586  20.536  0.00  0.00    +0.000 A 
ATOM     28  C   UNL     1      -2.908  13.375  21.167  0.00  0.00    +0.000 A 
BRANCH  23  30
ATOM     29  O   UNL     1      -5.138  14.587  22.538  0.00  0.00    +0.000 OA
ATOM     30  C   UNL     1      -4.127  14.258  23.166  0.00  0.00    +0.000 C 
ATOM     31  N   UNL     1      -3.889  14.753  24.423  0.00  0.00    +0.000 N 
ATOM     32  H   UNL     1      -3.160  14.451  25.058  0.00  0.00    +0.000 HD
BRANCH  31  33
ATOM     33  O   UNL     1      -4.871  15.633  24.936  0.00  0.00    +0.000 OA
ATOM     34  H   UNL     1      -4.883  16.363  24.273  0.00  0.00    +0.000 HD
ENDBRANCH  31  33
ENDBRANCH  23  30
ENDBRANCH   1  26
TORSDOF 4
ENDMDL
MODEL 3
REMARK VINA RESULT:      -8.4      1.865      2.680
REMARK  Name = 
REMARK  4 active torsions:
REMARK  status: ('A' for Active; 'I' for Inactive)
REMARK    1  A    between atoms: C_2  and  C_5
REMARK    2  A    between atoms: N_3  and  O_4
REMARK    3  A    between atoms: C_8  and  C_9
REMARK    4  A    between atoms: C_17  and  C_18
REMARK                            x       y       z     vdW  Elec       q    Type
REMARK                         _______ _______ _______ _____ _____    ______ ____
ROOT
ATOM      1  C   UNL     1       0.198  11.854  21.459  0.00  0.00    +0.000 C 
ATOM      2  O   UNL     1       1.314  12.239  21.121  0.00  0.00    +0.000 OA
ATOM      3  N   UNL     1      -0.256  10.548  21.294  0.00  0.00    +0.000 N 
ATOM      4  C   UNL     1       0.601   9.457  21.085  0.00  0.00    +0.000 A 
ATOM      5  N   UNL     1       0.589   8.582  22.103  0.00  0.00    +0.000 NA
ATOM      6  N   UNL     1       1.408   7.600  21.720  0.00  0.00    +0.000 N 
ATOM      7  C   UNL     1       1.828   7.690  20.427  0.00  0.00    +0.000 A 
ATOM      8  C   UNL     1       2.566   6.767  19.670  0.00  0.00    +0.000 A 
ATOM      9  C   UNL     1       2.803   6.957  18.297  0.00  0.00    +0.000 A 
ATOM     10  C   UNL     1       2.355   8.191  17.783  0.00  0.00    +0.000 A 
ATOM     11  C   UNL     1       1.657   9.174  18.590  0.00  0.00    +0.000 A 
ATOM     12  C   UNL     1       1.346   8.911  19.953  0.00  0.00    +0.000 A 
ATOM     13  H   UNL     1      -0.889  10.281  22.035  0.00  0.00    +0.000 HD
ATOM     14  H   UNL     1       1.586   6.838  22.363  0.00  0.00    +0.000 HD
ENDROOT
BRANCH   9  15
ATOM     15  C   UNL     1       3.536   5.840  17.554  0.00  0.00    +0.000 A 
ATOM     16  C   UNL     1       2.956   4.540  17.436  0.00  0.00    +0.000 A 
ATOM     17 CL   UNL     1       1.248   4.252  17.624  0.00  0.00    +0.000 Cl
ATOM     18  C   UNL     1       3.712   3.392  17.124  0.00  0.00    +0.000 A 
ATOM     19  C   UNL     1       5.056   3.502  16.815  0.00  0.00    +0.000 A 
ATOM     20  C   UNL     1       5.625   4.775  16.754  0.00  0.00    +0.000 A 
ATOM     21  C   UNL     1       4.876   5.923  17.113  0.00  0.00    +0.000 A 
ATOM     22 CL   UNL     1       5.739   7.417  16.995  0.00  0.00    +0.000 Cl
ENDBRANCH   9  15
BRANCH   1  26
ATOM     23  C   UNL     1      -2.532  14.571  23.642  0.00  0.00    +0.000 A 
ATOM     24  C   UNL     1      -2.757  13.195  23.567  0.00  0.00    +0.000 A 
ATOM     25  C   UNL     1      -1.884  12.363  22.822  0.00  0.00    +0.000 A 
ATOM     26  C   UNL     1      -0.753  12.863  22.139  0.00  0.00    +0.000 A 
ATOM     27  C   UNL     1      -0.569  14.254  22.175  0.00  0.00    +0.000 A 
ATOM     28  C   UNL     1      -1.444  15.090  22.918  0.00  0.00    +0.000 A 
BRANCH  23  30
ATOM     29  O   UNL     1      -2.790  16.127  25.411  0.00  0.00    +0.000 OA
ATOM     30  C   UNL     1      -3.339  15.498  24.501  0.00  0.00    +0.000 C 
ATOM     31  N   UNL     1      -4.683  15.634  24.265  0.00  0.00    +0.000 N 
ATOM     32  H   UNL     1      -5.194  15.260  23.474  0.00  0.00    +0.000 HD
BRANCH  31  33
ATOM     33  O   UNL     1      -5.370  16.536  25.111  0.00  0.00    +0.000 OA
ATOM     34  H   UNL     1      -6.317  16.354  24.908  0.00  0.00    +0.000 HD
ENDBRANCH  31  33
ENDBRANCH  23  30
ENDBRANCH   1  26
TORSDOF 4
ENDMDL
MODEL 4
REMARK VINA RESULT:      -8.3      5.306     10.514
REMARK  Name = 
REMARK  4 active torsions:
REMARK  status: ('A' for Active; 'I' for Inactive)
REMARK    1  A    between atoms: C_2  and  C_5
REMARK    2  A    between atoms: N_3  and  O_4
REMARK    3  A    between atoms: C_8  and  C_9
REMARK    4  A    between atoms: C_17  and  C_18
REMARK                            x       y       z     vdW  Elec       q    Type
REMARK                         _______ _______ _______ _____ _____    ______ ____
ROOT
ATOM      1  C   UNL     1       2.193   8.364  18.675  0.00  0.00    +0.000 C 
ATOM      2  O   UNL     1       2.623   8.811  17.615  0.00  0.00    +0.000 OA
ATOM      3  N   UNL     1       1.401   9.091  19.560  0.00  0.00    +0.000 N 
ATOM      4  C   UNL     1       0.700  10.250  19.191  0.00  0.00    +0.000 A 
ATOM      5  N   UNL     1      -0.631  10.091  19.238  0.00  0.00    +0.000 NA
ATOM      6  N   UNL     1      -1.130  11.285  18.910  0.00  0.00    +0.000 N 
ATOM      7  C   UNL     1      -0.201  12.277  18.818  0.00  0.00    +0.000 A 
ATOM      8  C   UNL     1      -0.393  13.656  18.639  0.00  0.00    +0.000 A 
ATOM      9  C   UNL     1       0.677  14.567  18.702  0.00  0.00    +0.000 A 
ATOM     10  C   UNL     1       1.951  13.977  18.830  0.00  0.00    +0.000 A 
ATOM     11  C   UNL     1       2.149  12.543  18.942  0.00  0.00    +0.000 A 
ATOM     12  C   UNL     1       1.039  11.654  18.974  0.00  0.00    +0.000 A 
ATOM     13  H   UNL     1       0.741   8.495  20.041  0.00  0.00    +0.000 HD
ATOM     14  H   UNL     1      -2.135  11.388  18.840  0.00  0.00    +0.000 HD
ENDROOT
BRANCH   9  15
ATOM     15  C   UNL     1       0.336  16.053  18.586  0.00  0.00    +0.000 A 
ATOM     16  C   UNL     1      -0.898  16.559  19.094  0.00  0.00    +0.000 A 
ATOM     17 CL   UNL     1      -1.835  15.717  20.298  0.00  0.00    +0.000 Cl
ATOM     18  C   UNL     1      -1.442  17.794  18.689  0.00  0.00    +0.000 A 
ATOM     19  C   UNL     1      -0.733  18.626  17.842  0.00  0.00    +0.000 A 
ATOM     20  C   UNL     1       0.554  18.245  17.454  0.00  0.00    +0.000 A 
ATOM     21  C   UNL     1       1.078  16.982  17.824  0.00  0.00    +0.000 A 
ATOM     22 CL   UNL     1       2.678  16.666  17.247  0.00  0.00    +0.000 Cl
ENDBRANCH   9  15
BRANCH   1  26
ATOM     23  C   UNL     1       3.397   4.234  19.720  0.00  0.00    +0.000 A 
ATOM     24  C   UNL     1       3.995   4.939  18.674  0.00  0.00    +0.000 A 
ATOM     25  C   UNL     1       3.553   6.244  18.342  0.00  0.00    +0.000 A 
ATOM     26  C   UNL     1       2.514   6.899  19.041  0.00  0.00    +0.000 A 
ATOM     27  C   UNL     1       1.883   6.158  20.053  0.00  0.00    +0.000 A 
ATOM     28  C   UNL     1       2.323   4.849  20.386  0.00  0.00    +0.000 A 
BRANCH  23  30
ATOM     29  O   UNL     1       3.430   2.426  21.252  0.00  0.00    +0.000 OA
ATOM     30  C   UNL     1       3.884   2.902  20.207  0.00  0.00    +0.000 C 
ATOM     31  N   UNL     1       4.833   2.227  19.481  0.00  0.00    +0.000 N 
ATOM     32  H   UNL     1       5.171   2.475  18.559  0.00  0.00    +0.000 HD
BRANCH  31  33
ATOM     33  O   UNL     1       5.229   0.972  20.001  0.00  0.00    +0.000 OA
ATOM     34  H   UNL     1       4.950   1.024  20.944  0.00  0.00    +0.000 HD
ENDBRANCH  31  33
ENDBRANCH  23  30
ENDBRANCH   1  26
TORSDOF 4
ENDMDL
MODEL 5
REMARK VINA RESULT:      -8.3      1.692      2.501
REMARK  Name = 
REMARK  4 active torsions:
REMARK  status: ('A' for Active; 'I' for Inactive)
REMARK    1  A    between atoms: C_2  and  C_5
REMARK    2  A    between atoms: N_3  and  O_4
REMARK    3  A    between atoms: C_8  and  C_9
REMARK    4  A    between atoms: C_17  and  C_18
REMARK                            x       y       z     vdW  Elec       q    Type
REMARK                         _______ _______ _______ _____ _____    ______ ____
ROOT
ATOM      1  C   UNL     1       0.071  12.021  21.132  0.00  0.00    +0.000 C 
ATOM      2  O   UNL     1       1.182  12.411  20.781  0.00  0.00    +0.000 OA
ATOM      3  N   UNL     1      -0.353  10.699  21.036  0.00  0.00    +0.000 N 
ATOM      4  C   UNL     1       0.530   9.616  20.895  0.00  0.00    +0.000 A 
ATOM      5  N   UNL     1       0.528   8.799  21.960  0.00  0.00    +0.000 NA
ATOM      6  N   UNL     1       1.372   7.816  21.638  0.00  0.00    +0.000 N 
ATOM      7  C   UNL     1       1.801   7.843  20.346  0.00  0.00    +0.000 A 
ATOM      8  C   UNL     1       2.565   6.896  19.646  0.00  0.00    +0.000 A 
ATOM      9  C   UNL     1       2.809   7.015  18.266  0.00  0.00    +0.000 A 
ATOM     10  C   UNL     1       2.339   8.208  17.681  0.00  0.00    +0.000 A 
ATOM     11  C   UNL     1       1.612   9.219  18.427  0.00  0.00    +0.000 A 
ATOM     12  C   UNL     1       1.295   9.026  19.800  0.00  0.00    +0.000 A 
ATOM     13  H   UNL     1      -0.986  10.458  21.787  0.00  0.00    +0.000 HD
ATOM     14  H   UNL     1       1.560   7.095  22.324  0.00  0.00    +0.000 HD
ENDROOT
BRANCH   9  15
ATOM     15  C   UNL     1       3.573   5.875  17.592  0.00  0.00    +0.000 A 
ATOM     16  C   UNL     1       2.991   4.576  17.476  0.00  0.00    +0.000 A 
ATOM     17 CL   UNL     1       1.273   4.302  17.581  0.00  0.00    +0.000 Cl
ATOM     18  C   UNL     1       3.753   3.416  17.235  0.00  0.00    +0.000 A 
ATOM     19  C   UNL     1       5.113   3.510  16.995  0.00  0.00    +0.000 A 
ATOM     20  C   UNL     1       5.694   4.778  16.932  0.00  0.00    +0.000 A 
ATOM     21  C   UNL     1       4.934   5.939  17.221  0.00  0.00    +0.000 A 
ATOM     22 CL   UNL     1       5.813   7.425  17.111  0.00  0.00    +0.000 Cl
ENDBRANCH   9  15
BRANCH   1  26
ATOM     23  C   UNL     1      -2.936  14.863  22.707  0.00  0.00    +0.000 A 
ATOM     24  C   UNL     1      -2.684  14.732  21.340  0.00  0.00    +0.000 A 
ATOM     25  C   UNL     1      -1.683  13.842  20.876  0.00  0.00    +0.000 A 
ATOM     26  C   UNL     1      -0.908  13.044  21.747  0.00  0.00    +0.000 A 
ATOM     27  C   UNL     1      -1.131  13.227  23.122  0.00  0.00    +0.000 A 
ATOM     28  C   UNL     1      -2.132  14.120  23.589  0.00  0.00    +0.000 A 
BRANCH  23  30
ATOM     29  O   UNL     1      -4.816  16.292  22.505  0.00  0.00    +0.000 OA
ATOM     30  C   UNL     1      -4.052  15.692  23.268  0.00  0.00    +0.000 C 
ATOM     31  N   UNL     1      -4.209  15.776  24.628  0.00  0.00    +0.000 N 
ATOM     32  H   UNL     1      -3.716  15.229  25.323  0.00  0.00    +0.000 HD
BRANCH  31  33
ATOM     33  O   UNL     1      -5.293  16.568  25.076  0.00  0.00    +0.000 OA
ATOM     34  H   UNL     1      -5.287  16.423  26.051  0.00  0.00    +0.000 HD
ENDBRANCH  31  33
ENDBRANCH  23  30
ENDBRANCH   1  26
TORSDOF 4
ENDMDL
MODEL 6
REMARK VINA RESULT:      -8.1      0.837      1.878
REMARK  Name = 
REMARK  4 active torsions:
REMARK  status: ('A' for Active; 'I' for Inactive)
REMARK    1  A    between atoms: C_2  and  C_5
REMARK    2  A    between atoms: N_3  and  O_4
REMARK    3  A    between atoms: C_8  and  C_9
REMARK    4  A    between atoms: C_17  and  C_18
REMARK                            x       y       z     vdW  Elec       q    Type
REMARK                         _______ _______ _______ _____ _____    ______ ____
ROOT
ATOM      1  C   UNL     1      -0.185  10.949  21.130  0.00  0.00    +0.000 C 
ATOM      2  O   UNL     1       0.869  11.552  20.950  0.00  0.00    +0.000 OA
ATOM      3  N   UNL     1      -0.374   9.604  20.820  0.00  0.00    +0.000 N 
ATOM      4  C   UNL     1       0.686   8.703  20.632  0.00  0.00    +0.000 A 
ATOM      5  N   UNL     1       0.734   7.750  21.575  0.00  0.00    +0.000 NA
ATOM      6  N   UNL     1       1.753   6.965  21.218  0.00  0.00    +0.000 N 
ATOM      7  C   UNL     1       2.275   7.246  19.991  0.00  0.00    +0.000 A 
ATOM      8  C   UNL     1       3.241   6.539  19.258  0.00  0.00    +0.000 A 
ATOM      9  C   UNL     1       3.573   6.892  17.937  0.00  0.00    +0.000 A 
ATOM     10  C   UNL     1       2.959   8.071  17.467  0.00  0.00    +0.000 A 
ATOM     11  C   UNL     1       2.016   8.839  18.259  0.00  0.00    +0.000 A 
ATOM     12  C   UNL     1       1.626   8.402  19.555  0.00  0.00    +0.000 A 
ATOM     13  H   UNL     1      -1.017   9.163  21.464  0.00  0.00    +0.000 HD
ATOM     14  H   UNL     1       2.003   6.191  21.820  0.00  0.00    +0.000 HD
ENDROOT
BRANCH   9  15
ATOM     15  C   UNL     1       4.569   5.994  17.204  0.00  0.00    +0.000 A 
ATOM     16  C   UNL     1       4.243   4.636  16.907  0.00  0.00    +0.000 A 
ATOM     17 CL   UNL     1       2.602   4.052  16.854  0.00  0.00    +0.000 Cl
ATOM     18  C   UNL     1       5.218   3.665  16.600  0.00  0.00    +0.000 A 
ATOM     19  C   UNL     1       6.547   4.026  16.473  0.00  0.00    +0.000 A 
ATOM     20  C   UNL     1       6.888   5.376  16.589  0.00  0.00    +0.000 A 
ATOM     21  C   UNL     1       5.913   6.341  16.944  0.00  0.00    +0.000 A 
ATOM     22 CL   UNL     1       6.508   7.962  17.059  0.00  0.00    +0.000 Cl
ENDBRANCH   9  15
BRANCH   1  26
ATOM     23  C   UNL     1      -3.738  13.048  22.733  0.00  0.00    +0.000 A 
ATOM     24  C   UNL     1      -3.319  13.203  21.410  0.00  0.00    +0.000 A 
ATOM     25  C   UNL     1      -2.151  12.548  20.945  0.00  0.00    +0.000 A 
ATOM     26  C   UNL     1      -1.368  11.708  21.769  0.00  0.00    +0.000 A 
ATOM     27  C   UNL     1      -1.768  11.605  23.111  0.00  0.00    +0.000 A 
ATOM     28  C   UNL     1      -2.936  12.263  23.580  0.00  0.00    +0.000 A 
BRANCH  23  30
ATOM     29  O   UNL     1      -6.074  12.983  23.126  0.00  0.00    +0.000 OA
ATOM     30  C   UNL     1      -5.021  13.612  23.267  0.00  0.00    +0.000 C 
ATOM     31  N   UNL     1      -5.007  14.826  23.907  0.00  0.00    +0.000 N 
ATOM     32  H   UNL     1      -4.185  15.351  24.177  0.00  0.00    +0.000 HD
BRANCH  31  33
ATOM     33  O   UNL     1      -6.256  15.281  24.392  0.00  0.00    +0.000 OA
ATOM     34  H   UNL     1      -6.842  14.499  24.267  0.00  0.00    +0.000 HD
ENDBRANCH  31  33
ENDBRANCH  23  30
ENDBRANCH   1  26
TORSDOF 4
ENDMDL
MODEL 7
REMARK VINA RESULT:      -8.1      4.992     11.591
REMARK  Name = 
REMARK  4 active torsions:
REMARK  status: ('A' for Active; 'I' for Inactive)
REMARK    1  A    between atoms: C_2  and  C_5
REMARK    2  A    between atoms: N_3  and  O_4
REMARK    3  A    between atoms: C_8  and  C_9
REMARK    4  A    between atoms: C_17  and  C_18
REMARK                            x       y       z     vdW  Elec       q    Type
REMARK                         _______ _______ _______ _____ _____    ______ ____
ROOT
ATOM      1  C   UNL     1       1.008   9.051  20.992  0.00  0.00    +0.000 C 
ATOM      2  O   UNL     1       1.522   9.397  22.052  0.00  0.00    +0.000 OA
ATOM      3  N   UNL     1      -0.092   9.685  20.420  0.00  0.00    +0.000 N 
ATOM      4  C   UNL     1      -0.498  10.983  20.766  0.00  0.00    +0.000 A 
ATOM      5  N   UNL     1      -0.361  11.859  19.760  0.00  0.00    +0.000 NA
ATOM      6  N   UNL     1      -0.832  13.011  20.241  0.00  0.00    +0.000 N 
ATOM      7  C   UNL     1      -1.439  12.906  21.456  0.00  0.00    +0.000 A 
ATOM      8  C   UNL     1      -2.159  13.875  22.173  0.00  0.00    +0.000 A 
ATOM      9  C   UNL     1      -2.841  13.561  23.362  0.00  0.00    +0.000 A 
ATOM     10  C   UNL     1      -2.639  12.247  23.833  0.00  0.00    +0.000 A 
ATOM     11  C   UNL     1      -1.833  11.271  23.124  0.00  0.00    +0.000 A 
ATOM     12  C   UNL     1      -1.235  11.589  21.873  0.00  0.00    +0.000 A 
ATOM     13  H   UNL     1      -0.052   9.655  19.410  0.00  0.00    +0.000 HD
ATOM     14  H   UNL     1      -0.787  13.836  19.656  0.00  0.00    +0.000 HD
ENDROOT
BRANCH   9  15
ATOM     15  C   UNL     1      -3.670  14.673  24.006  0.00  0.00    +0.000 A 
ATOM     16  C   UNL     1      -4.996  14.947  23.554  0.00  0.00    +0.000 A 
ATOM     17 CL   UNL     1      -5.949  13.785  22.672  0.00  0.00    +0.000 Cl
ATOM     18  C   UNL     1      -5.656  16.165  23.813  0.00  0.00    +0.000 A 
ATOM     19  C   UNL     1      -5.065  17.122  24.620  0.00  0.00    +0.000 A 
ATOM     20  C   UNL     1      -3.840  16.825  25.221  0.00  0.00    +0.000 A 
ATOM     21  C   UNL     1      -3.158  15.619  24.921  0.00  0.00    +0.000 A 
ATOM     22 CL   UNL     1      -1.648  15.419  25.740  0.00  0.00    +0.000 Cl
ENDBRANCH   9  15
BRANCH   1  26
ATOM     23  C   UNL     1       2.560   5.496  18.858  0.00  0.00    +0.000 A 
ATOM     24  C   UNL     1       2.055   5.420  20.157  0.00  0.00    +0.000 A 
ATOM     25  C   UNL     1       1.606   6.588  20.824  0.00  0.00    +0.000 A 
ATOM     26  C   UNL     1       1.631   7.866  20.223  0.00  0.00    +0.000 A 
ATOM     27  C   UNL     1       2.194   7.938  18.938  0.00  0.00    +0.000 A 
ATOM     28  C   UNL     1       2.646   6.770  18.270  0.00  0.00    +0.000 A 
BRANCH  23  30
ATOM     29  O   UNL     1       2.115   3.770  17.297  0.00  0.00    +0.000 OA
ATOM     30  C   UNL     1       2.944   4.296  18.046  0.00  0.00    +0.000 C 
ATOM     31  N   UNL     1       4.217   3.794  18.149  0.00  0.00    +0.000 N 
ATOM     32  H   UNL     1       4.994   4.224  18.636  0.00  0.00    +0.000 HD
BRANCH  31  33
ATOM     33  O   UNL     1       4.503   2.668  17.341  0.00  0.00    +0.000 OA
ATOM     34  H   UNL     1       5.298   2.280  17.774  0.00  0.00    +0.000 HD
ENDBRANCH  31  33
ENDBRANCH  23  30
ENDBRANCH   1  26
TORSDOF 4
ENDMDL
MODEL 8
REMARK VINA RESULT:      -8.0      4.910     11.734
REMARK  Name = 
REMARK  4 active torsions:
REMARK  status: ('A' for Active; 'I' for Inactive)
REMARK    1  A    between atoms: C_2  and  C_5
REMARK    2  A    between atoms: N_3  and  O_4
REMARK    3  A    between atoms: C_8  and  C_9
REMARK    4  A    between atoms: C_17  and  C_18
REMARK                            x       y       z     vdW  Elec       q    Type
REMARK                         _______ _______ _______ _____ _____    ______ ____
ROOT
ATOM      1  C   UNL     1       0.787   9.746  20.625  0.00  0.00    +0.000 C 
ATOM      2  O   UNL     1       1.356  10.241  21.594  0.00  0.00    +0.000 OA
ATOM      3  N   UNL     1      -0.441  10.186  20.138  0.00  0.00    +0.000 N 
ATOM      4  C   UNL     1      -0.981  11.446  20.438  0.00  0.00    +0.000 A 
ATOM      5  N   UNL     1      -1.067  12.246  19.365  0.00  0.00    +0.000 NA
ATOM      6  N   UNL     1      -1.639  13.365  19.817  0.00  0.00    +0.000 N 
ATOM      7  C   UNL     1      -2.098  13.285  21.096  0.00  0.00    +0.000 A 
ATOM      8  C   UNL     1      -2.865  14.210  21.821  0.00  0.00    +0.000 A 
ATOM      9  C   UNL     1      -3.374  13.911  23.098  0.00  0.00    +0.000 A 
ATOM     10  C   UNL     1      -2.949  12.677  23.632  0.00  0.00    +0.000 A 
ATOM     11  C   UNL     1      -2.094  11.756  22.905  0.00  0.00    +0.000 A 
ATOM     12  C   UNL     1      -1.676  12.043  21.576  0.00  0.00    +0.000 A 
ATOM     13  H   UNL     1      -0.501  10.078  19.134  0.00  0.00    +0.000 HD
ATOM     14  H   UNL     1      -1.765  14.138  19.174  0.00  0.00    +0.000 HD
ENDROOT
BRANCH   9  15
ATOM     15  C   UNL     1      -4.275  14.958  23.753  0.00  0.00    +0.000 A 
ATOM     16  C   UNL     1      -5.604  15.174  23.279  0.00  0.00    +0.000 A 
ATOM     17 CL   UNL     1      -6.473  13.988  22.344  0.00  0.00    +0.000 Cl
ATOM     18  C   UNL     1      -6.334  16.347  23.557  0.00  0.00    +0.000 A 
ATOM     19  C   UNL     1      -5.813  17.310  24.403  0.00  0.00    +0.000 A 
ATOM     20  C   UNL     1      -4.586  17.063  25.023  0.00  0.00    +0.000 A 
ATOM     21  C   UNL     1      -3.835  15.904  24.705  0.00  0.00    +0.000 A 
ATOM     22 CL   UNL     1      -2.333  15.761  25.552  0.00  0.00    +0.000 Cl
ENDBRANCH   9  15
BRANCH   1  26
ATOM     23  C   UNL     1       2.972   6.628  18.367  0.00  0.00    +0.000 A 
ATOM     24  C   UNL     1       2.582   7.833  17.780  0.00  0.00    +0.000 A 
ATOM     25  C   UNL     1       1.845   8.789  18.523  0.00  0.00    +0.000 A 
ATOM     26  C   UNL     1       1.483   8.591  19.874  0.00  0.00    +0.000 A 
ATOM     27  C   UNL     1       1.832   7.352  20.436  0.00  0.00    +0.000 A 
ATOM     28  C   UNL     1       2.568   6.391  19.692  0.00  0.00    +0.000 A 
BRANCH  23  30
ATOM     29  O   UNL     1       4.608   5.977  16.780  0.00  0.00    +0.000 OA
ATOM     30  C   UNL     1       3.849   5.620  17.686  0.00  0.00    +0.000 C 
ATOM     31  N   UNL     1       3.794   4.306  18.080  0.00  0.00    +0.000 N 
ATOM     32  H   UNL     1       3.301   3.942  18.886  0.00  0.00    +0.000 HD
BRANCH  31  33
ATOM     33  O   UNL     1       4.662   3.421  17.397  0.00  0.00    +0.000 OA
ATOM     34  H   UNL     1       4.968   2.816  18.111  0.00  0.00    +0.000 HD
ENDBRANCH  31  33
ENDBRANCH  23  30
ENDBRANCH   1  26
TORSDOF 4
ENDMDL
MODEL 9
REMARK VINA RESULT:      -8.0      4.969     11.317
REMARK  Name = 
REMARK  4 active torsions:
REMARK  status: ('A' for Active; 'I' for Inactive)
REMARK    1  A    between atoms: C_2  and  C_5
REMARK    2  A    between atoms: N_3  and  O_4
REMARK    3  A    between atoms: C_8  and  C_9
REMARK    4  A    between atoms: C_17  and  C_18
REMARK                            x       y       z     vdW  Elec       q    Type
REMARK                         _______ _______ _______ _____ _____    ______ ____
ROOT
ATOM      1  C   UNL     1       1.172   8.662  20.860  0.00  0.00    +0.000 C 
ATOM      2  O   UNL     1       1.675   9.020  21.922  0.00  0.00    +0.000 OA
ATOM      3  N   UNL     1       0.158   9.359  20.207  0.00  0.00    +0.000 N 
ATOM      4  C   UNL     1      -0.138  10.706  20.466  0.00  0.00    +0.000 A 
ATOM      5  N   UNL     1       0.119  11.508  19.421  0.00  0.00    +0.000 NA
ATOM      6  N   UNL     1      -0.263  12.724  19.820  0.00  0.00    +0.000 N 
ATOM      7  C   UNL     1      -0.923  12.744  21.011  0.00  0.00    +0.000 A 
ATOM      8  C   UNL     1      -1.577  13.813  21.643  0.00  0.00    +0.000 A 
ATOM      9  C   UNL     1      -2.331  13.630  22.816  0.00  0.00    +0.000 A 
ATOM     10  C   UNL     1      -2.270  12.332  23.365  0.00  0.00    +0.000 A 
ATOM     11  C   UNL     1      -1.531  11.248  22.744  0.00  0.00    +0.000 A 
ATOM     12  C   UNL     1      -0.858  11.439  21.506  0.00  0.00    +0.000 A 
ATOM     13  H   UNL     1       0.235   9.269  19.203  0.00  0.00    +0.000 HD
ATOM     14  H   UNL     1      -0.118  13.506  19.194  0.00  0.00    +0.000 HD
ENDROOT
BRANCH   9  15
ATOM     15  C   UNL     1      -3.077  14.847  23.363  0.00  0.00    +0.000 A 
ATOM     16  C   UNL     1      -2.435  15.752  24.262  0.00  0.00    +0.000 A 
ATOM     17 CL   UNL     1      -0.702  15.876  24.394  0.00  0.00    +0.000 Cl
ATOM     18  C   UNL     1      -3.149  16.641  25.090  0.00  0.00    +0.000 A 
ATOM     19  C   UNL     1      -4.525  16.743  24.986  0.00  0.00    +0.000 A 
ATOM     20  C   UNL     1      -5.177  15.997  24.001  0.00  0.00    +0.000 A 
ATOM     21  C   UNL     1      -4.463  15.070  23.202  0.00  0.00    +0.000 A 
ATOM     22 CL   UNL     1      -5.426  14.220  22.043  0.00  0.00    +0.000 Cl
ENDBRANCH   9  15
BRANCH   1  26
ATOM     23  C   UNL     1       2.465   4.869  18.980  0.00  0.00    +0.000 A 
ATOM     24  C   UNL     1       1.871   4.906  20.243  0.00  0.00    +0.000 A 
ATOM     25  C   UNL     1       1.509   6.145  20.830  0.00  0.00    +0.000 A 
ATOM     26  C   UNL     1       1.712   7.384  20.184  0.00  0.00    +0.000 A 
ATOM     27  C   UNL     1       2.362   7.337  18.939  0.00  0.00    +0.000 A 
ATOM     28  C   UNL     1       2.727   6.098  18.350  0.00  0.00    +0.000 A 
BRANCH  23  30
ATOM     29  O   UNL     1       2.068   3.261  17.286  0.00  0.00    +0.000 OA
ATOM     30  C   UNL     1       2.769   3.598  18.244  0.00  0.00    +0.000 C 
ATOM     31  N   UNL     1       3.826   2.823  18.649  0.00  0.00    +0.000 N 
ATOM     32  H   UNL     1       4.525   3.075  19.337  0.00  0.00    +0.000 HD
BRANCH  31  33
ATOM     33  O   UNL     1       4.053   1.647  17.895  0.00  0.00    +0.000 OA
ATOM     34  H   UNL     1       3.524   1.801  17.079  0.00  0.00    +0.000 HD
ENDBRANCH  31  33
ENDBRANCH  23  30
ENDBRANCH   1  26
TORSDOF 4
ENDMDL
