MODEL 1
REMARK VINA RESULT:      -7.3      0.000      0.000
REMARK  Name = 
REMARK  9 active torsions:
REMARK  status: ('A' for Active; 'I' for Inactive)
REMARK    1  A    between atoms: C_1  and  C_2
REMARK    2  A    between atoms: C_4  and  C_5
REMARK    3  A    between atoms: C_5  and  C_6
REMARK    4  A    between atoms: C_6  and  C_7
REMARK    5  A    between atoms: C_6  and  C_8
REMARK    6  A    between atoms: C_9  and  N_10
REMARK    7  A    between atoms: C_11  and  C_13
REMARK    8  A    between atoms: C_15  and  C_16
REMARK    9  A    between atoms: C_15  and  O_17
REMARK                            x       y       z     vdW  Elec       q    Type
REMARK                         _______ _______ _______ _____ _____    ______ ____
ROOT
ATOM      1  N   UNL     1       4.424   3.720  16.525  0.00  0.00    +0.000 N 
ATOM      2  C   UNL     1       3.612   4.550  17.294  0.00  0.00    +0.000 C 
ATOM      3  O   UNL     1       3.768   5.763  17.468  0.00  0.00    +0.000 OA
ATOM      4  H   UNL     1       4.138   2.756  16.402  0.00  0.00    +0.000 HD
ENDROOT
BRANCH   1   9
ATOM      5  C   UNL     1       7.697   5.201  12.759  0.00  0.00    +0.000 C 
ATOM      6  C   UNL     1       7.082   4.826  14.062  0.00  0.00    +0.000 A 
ATOM      7  N   UNL     1       7.700   4.830  15.218  0.00  0.00    +0.000 NA
ATOM      8  C   UNL     1       6.827   4.454  16.239  0.00  0.00    +0.000 A 
ATOM      9  C   UNL     1       5.543   4.131  15.806  0.00  0.00    +0.000 A 
ATOM     10  S   UNL     1       5.446   4.369  14.115  0.00  0.00    +0.000 S 
BRANCH   8  11
ATOM     11  C   UNL     1       7.401   4.520  17.625  0.00  0.00    +0.000 C 
BRANCH  11  12
ATOM     12  C   UNL     1       7.107   5.778  18.459  0.00  0.00    +0.000 C 
ATOM     13  C   UNL     1       7.919   5.851  19.756  0.00  0.00    +0.000 C 
ATOM     14  C   UNL     1       7.412   7.018  17.607  0.00  0.00    +0.000 C 
ENDBRANCH  11  12
ENDBRANCH   8  11
ENDBRANCH   1   9
BRANCH   2  15
ATOM     15  C   UNL     1       2.399   3.833  17.935  0.00  0.00    +0.000 C 
ATOM     16  C   UNL     1       2.699   2.676  18.942  0.00  0.00    +0.000 C 
ATOM     17  C   UNL     1       1.486   3.171  19.774  0.00  0.00    +0.000 C 
ATOM     18  C   UNL     1       1.651   3.132  21.284  0.00  0.00    +0.000 C 
ATOM     19  C   UNL     1       1.732   4.564  19.134  0.00  0.00    +0.000 C 
BRANCH  17  20
ATOM     20  O   UNL     1       0.223   2.569  19.416  0.00  0.00    +0.000 OA
ATOM     21  H   UNL     1      -0.013   2.961  18.556  0.00  0.00    +0.000 HD
ENDBRANCH  17  20
ENDBRANCH   2  15
TORSDOF 5
ENDMDL
MODEL 2
REMARK VINA RESULT:      -7.2      1.066      1.334
REMARK  Name = 
REMARK  9 active torsions:
REMARK  status: ('A' for Active; 'I' for Inactive)
REMARK    1  A    between atoms: C_1  and  C_2
REMARK    2  A    between atoms: C_4  and  C_5
REMARK    3  A    between atoms: C_5  and  C_6
REMARK    4  A    between atoms: C_6  and  C_7
REMARK    5  A    between atoms: C_6  and  C_8
REMARK    6  A    between atoms: C_9  and  N_10
REMARK    7  A    between atoms: C_11  and  C_13
REMARK    8  A    between atoms: C_15  and  C_16
REMARK    9  A    between atoms: C_15  and  O_17
REMARK                            x       y       z     vdW  Elec       q    Type
REMARK                         _______ _______ _______ _____ _____    ______ ____
ROOT
ATOM      1  N   UNL     1       4.060   4.241  16.499  0.00  0.00    +0.000 N 
ATOM      2  C   UNL     1       4.045   3.668  17.768  0.00  0.00    +0.000 C 
ATOM      3  O   UNL     1       5.033   3.416  18.465  0.00  0.00    +0.000 OA
ATOM      4  H   UNL     1       3.172   4.468  16.068  0.00  0.00    +0.000 HD
ENDROOT
BRANCH   1   9
ATOM      5  C   UNL     1       7.802   4.885  12.939  0.00  0.00    +0.000 C 
ATOM      6  C   UNL     1       6.955   4.957  14.160  0.00  0.00    +0.000 A 
ATOM      7  N   UNL     1       7.202   5.705  15.209  0.00  0.00    +0.000 NA
ATOM      8  C   UNL     1       6.194   5.556  16.162  0.00  0.00    +0.000 A 
ATOM      9  C   UNL     1       5.203   4.643  15.811  0.00  0.00    +0.000 A 
ATOM     10  S   UNL     1       5.532   4.032  14.248  0.00  0.00    +0.000 S 
BRANCH   8  11
ATOM     11  C   UNL     1       6.321   6.444  17.367  0.00  0.00    +0.000 C 
BRANCH  11  12
ATOM     12  C   UNL     1       7.732   6.690  17.926  0.00  0.00    +0.000 C 
ATOM     13  C   UNL     1       8.077   8.175  18.073  0.00  0.00    +0.000 C 
ATOM     14  C   UNL     1       7.845   6.012  19.299  0.00  0.00    +0.000 C 
ENDBRANCH  11  12
ENDBRANCH   8  11
ENDBRANCH   1   9
BRANCH   2  15
ATOM     15  C   UNL     1       2.626   3.377  18.315  0.00  0.00    +0.000 C 
ATOM     16  C   UNL     1       2.445   2.098  19.194  0.00  0.00    +0.000 C 
ATOM     17  C   UNL     1       1.449   2.913  20.062  0.00  0.00    +0.000 C 
ATOM     18  C   UNL     1       1.515   2.671  21.560  0.00  0.00    +0.000 C 
ATOM     19  C   UNL     1       2.206   4.179  19.579  0.00  0.00    +0.000 C 
BRANCH  17  20
ATOM     20  O   UNL     1       0.073   2.843  19.627  0.00  0.00    +0.000 OA
ATOM     21  H   UNL     1      -0.457   3.005  20.427  0.00  0.00    +0.000 HD
ENDBRANCH  17  20
ENDBRANCH   2  15
TORSDOF 5
ENDMDL
MODEL 3
REMARK VINA RESULT:      -7.2      0.960      1.381
REMARK  Name = 
REMARK  9 active torsions:
REMARK  status: ('A' for Active; 'I' for Inactive)
REMARK    1  A    between atoms: C_1  and  C_2
REMARK    2  A    between atoms: C_4  and  C_5
REMARK    3  A    between atoms: C_5  and  C_6
REMARK    4  A    between atoms: C_6  and  C_7
REMARK    5  A    between atoms: C_6  and  C_8
REMARK    6  A    between atoms: C_9  and  N_10
REMARK    7  A    between atoms: C_11  and  C_13
REMARK    8  A    between atoms: C_15  and  C_16
REMARK    9  A    between atoms: C_15  and  O_17
REMARK                            x       y       z     vdW  Elec       q    Type
REMARK                         _______ _______ _______ _____ _____    ______ ____
ROOT
ATOM      1  N   UNL     1       4.567   4.410  17.033  0.00  0.00    +0.000 N 
ATOM      2  C   UNL     1       3.826   5.476  17.538  0.00  0.00    +0.000 C 
ATOM      3  O   UNL     1       3.997   6.671  17.274  0.00  0.00    +0.000 OA
ATOM      4  H   UNL     1       4.271   3.471  17.269  0.00  0.00    +0.000 HD
ENDROOT
BRANCH   1   9
ATOM      5  C   UNL     1       7.441   4.939  12.726  0.00  0.00    +0.000 C 
ATOM      6  C   UNL     1       6.975   4.767  14.129  0.00  0.00    +0.000 A 
ATOM      7  N   UNL     1       7.756   4.666  15.178  0.00  0.00    +0.000 NA
ATOM      8  C   UNL     1       6.996   4.544  16.342  0.00  0.00    +0.000 A 
ATOM      9  C   UNL     1       5.620   4.519  16.128  0.00  0.00    +0.000 A 
ATOM     10  S   UNL     1       5.308   4.712  14.457  0.00  0.00    +0.000 S 
BRANCH   8  11
ATOM     11  C   UNL     1       7.785   4.522  17.619  0.00  0.00    +0.000 C 
BRANCH  11  12
ATOM     12  C   UNL     1       7.761   5.787  18.493  0.00  0.00    +0.000 C 
ATOM     13  C   UNL     1       7.485   7.068  17.702  0.00  0.00    +0.000 C 
ATOM     14  C   UNL     1       6.680   5.622  19.571  0.00  0.00    +0.000 C 
ENDBRANCH  11  12
ENDBRANCH   8  11
ENDBRANCH   1   9
BRANCH   2  15
ATOM     15  C   UNL     1       2.673   5.056  18.481  0.00  0.00    +0.000 C 
ATOM     16  C   UNL     1       1.445   4.335  17.837  0.00  0.00    +0.000 C 
ATOM     17  C   UNL     1       1.379   3.449  19.110  0.00  0.00    +0.000 C 
ATOM     18  C   UNL     1       1.040   1.986  18.888  0.00  0.00    +0.000 C 
ATOM     19  C   UNL     1       2.893   3.742  19.283  0.00  0.00    +0.000 C 
BRANCH  17  20
ATOM     20  O   UNL     1       0.549   3.977  20.169  0.00  0.00    +0.000 OA
ATOM     21  H   UNL     1       0.945   3.644  20.994  0.00  0.00    +0.000 HD
ENDBRANCH  17  20
ENDBRANCH   2  15
TORSDOF 5
ENDMDL
MODEL 4
REMARK VINA RESULT:      -7.2      2.992      6.513
REMARK  Name = 
REMARK  9 active torsions:
REMARK  status: ('A' for Active; 'I' for Inactive)
REMARK    1  A    between atoms: C_1  and  C_2
REMARK    2  A    between atoms: C_4  and  C_5
REMARK    3  A    between atoms: C_5  and  C_6
REMARK    4  A    between atoms: C_6  and  C_7
REMARK    5  A    between atoms: C_6  and  C_8
REMARK    6  A    between atoms: C_9  and  N_10
REMARK    7  A    between atoms: C_11  and  C_13
REMARK    8  A    between atoms: C_15  and  C_16
REMARK    9  A    between atoms: C_15  and  O_17
REMARK                            x       y       z     vdW  Elec       q    Type
REMARK                         _______ _______ _______ _____ _____    ______ ____
ROOT
ATOM      1  N   UNL     1       4.368   5.030  18.001  0.00  0.00    +0.000 N 
ATOM      2  C   UNL     1       5.739   5.177  18.194  0.00  0.00    +0.000 C 
ATOM      3  O   UNL     1       6.331   5.127  19.277  0.00  0.00    +0.000 OA
ATOM      4  H   UNL     1       4.020   5.014  17.050  0.00  0.00    +0.000 HD
ENDROOT
BRANCH   1   9
ATOM      5  C   UNL     1       1.382   2.796  21.632  0.00  0.00    +0.000 C 
ATOM      6  C   UNL     1       2.037   3.758  20.705  0.00  0.00    +0.000 A 
ATOM      7  N   UNL     1       1.782   5.043  20.645  0.00  0.00    +0.000 NA
ATOM      8  C   UNL     1       2.591   5.657  19.688  0.00  0.00    +0.000 A 
ATOM      9  C   UNL     1       3.435   4.784  19.006  0.00  0.00    +0.000 A 
ATOM     10  S   UNL     1       3.233   3.205  19.631  0.00  0.00    +0.000 S 
BRANCH   8  11
ATOM     11  C   UNL     1       2.456   7.150  19.603  0.00  0.00    +0.000 C 
BRANCH  11  12
ATOM     12  C   UNL     1       2.115   7.758  18.233  0.00  0.00    +0.000 C 
ATOM     13  C   UNL     1       1.302   9.052  18.327  0.00  0.00    +0.000 C 
ATOM     14  C   UNL     1       3.422   8.042  17.479  0.00  0.00    +0.000 C 
ENDBRANCH  11  12
ENDBRANCH   8  11
ENDBRANCH   1   9
BRANCH   2  15
ATOM     15  C   UNL     1       6.544   5.382  16.888  0.00  0.00    +0.000 C 
ATOM     16  C   UNL     1       7.076   4.104  16.164  0.00  0.00    +0.000 C 
ATOM     17  C   UNL     1       6.763   4.812  14.819  0.00  0.00    +0.000 C 
ATOM     18  C   UNL     1       6.192   3.934  13.719  0.00  0.00    +0.000 C 
ATOM     19  C   UNL     1       5.705   5.635  15.603  0.00  0.00    +0.000 C 
BRANCH  17  20
ATOM     20  O   UNL     1       7.850   5.600  14.285  0.00  0.00    +0.000 OA
ATOM     21  H   UNL     1       8.661   5.173  14.614  0.00  0.00    +0.000 HD
ENDBRANCH  17  20
ENDBRANCH   2  15
TORSDOF 5
ENDMDL
MODEL 5
REMARK VINA RESULT:      -7.1      1.428      1.958
REMARK  Name = 
REMARK  9 active torsions:
REMARK  status: ('A' for Active; 'I' for Inactive)
REMARK    1  A    between atoms: C_1  and  C_2
REMARK    2  A    between atoms: C_4  and  C_5
REMARK    3  A    between atoms: C_5  and  C_6
REMARK    4  A    between atoms: C_6  and  C_7
REMARK    5  A    between atoms: C_6  and  C_8
REMARK    6  A    between atoms: C_9  and  N_10
REMARK    7  A    between atoms: C_11  and  C_13
REMARK    8  A    between atoms: C_15  and  C_16
REMARK    9  A    between atoms: C_15  and  O_17
REMARK                            x       y       z     vdW  Elec       q    Type
REMARK                         _______ _______ _______ _____ _____    ______ ____
ROOT
ATOM      1  N   UNL     1       4.417   4.408  17.421  0.00  0.00    +0.000 N 
ATOM      2  C   UNL     1       4.710   4.084  18.743  0.00  0.00    +0.000 C 
ATOM      3  O   UNL     1       5.837   4.015  19.243  0.00  0.00    +0.000 OA
ATOM      4  H   UNL     1       3.444   4.507  17.159  0.00  0.00    +0.000 HD
ENDROOT
BRANCH   1   9
ATOM      5  C   UNL     1       7.398   4.436  13.154  0.00  0.00    +0.000 C 
ATOM      6  C   UNL     1       6.754   4.754  14.457  0.00  0.00    +0.000 A 
ATOM      7  N   UNL     1       7.038   5.790  15.208  0.00  0.00    +0.000 NA
ATOM      8  C   UNL     1       6.231   5.805  16.346  0.00  0.00    +0.000 A 
ATOM      9  C   UNL     1       5.357   4.724  16.443  0.00  0.00    +0.000 A 
ATOM     10  S   UNL     1       5.531   3.737  15.057  0.00  0.00    +0.000 S 
BRANCH   8  11
ATOM     11  C   UNL     1       6.400   7.005  17.232  0.00  0.00    +0.000 C 
BRANCH  11  12
ATOM     12  C   UNL     1       7.826   7.360  17.687  0.00  0.00    +0.000 C 
ATOM     13  C   UNL     1       8.027   8.856  17.944  0.00  0.00    +0.000 C 
ATOM     14  C   UNL     1       8.141   6.585  18.974  0.00  0.00    +0.000 C 
ENDBRANCH  11  12
ENDBRANCH   8  11
ENDBRANCH   1   9
BRANCH   2  15
ATOM     15  C   UNL     1       3.462   3.837  19.626  0.00  0.00    +0.000 C 
ATOM     16  C   UNL     1       2.078   4.282  19.053  0.00  0.00    +0.000 C 
ATOM     17  C   UNL     1       1.471   3.012  19.707  0.00  0.00    +0.000 C 
ATOM     18  C   UNL     1       0.406   2.290  18.901  0.00  0.00    +0.000 C 
ATOM     19  C   UNL     1       2.890   2.391  19.605  0.00  0.00    +0.000 C 
BRANCH  17  20
ATOM     20  O   UNL     1       1.002   3.197  21.061  0.00  0.00    +0.000 OA
ATOM     21  H   UNL     1       1.500   3.961  21.402  0.00  0.00    +0.000 HD
ENDBRANCH  17  20
ENDBRANCH   2  15
TORSDOF 5
ENDMDL
MODEL 6
REMARK VINA RESULT:      -6.9      2.905      6.739
REMARK  Name = 
REMARK  9 active torsions:
REMARK  status: ('A' for Active; 'I' for Inactive)
REMARK    1  A    between atoms: C_1  and  C_2
REMARK    2  A    between atoms: C_4  and  C_5
REMARK    3  A    between atoms: C_5  and  C_6
REMARK    4  A    between atoms: C_6  and  C_7
REMARK    5  A    between atoms: C_6  and  C_8
REMARK    6  A    between atoms: C_9  and  N_10
REMARK    7  A    between atoms: C_11  and  C_13
REMARK    8  A    between atoms: C_15  and  C_16
REMARK    9  A    between atoms: C_15  and  O_17
REMARK                            x       y       z     vdW  Elec       q    Type
REMARK                         _______ _______ _______ _____ _____    ______ ____
ROOT
ATOM      1  N   UNL     1       3.534   5.583  17.536  0.00  0.00    +0.000 N 
ATOM      2  C   UNL     1       4.859   5.156  17.556  0.00  0.00    +0.000 C 
ATOM      3  O   UNL     1       5.659   5.307  18.485  0.00  0.00    +0.000 OA
ATOM      4  H   UNL     1       2.962   5.325  16.741  0.00  0.00    +0.000 HD
ENDROOT
BRANCH   1   9
ATOM      5  C   UNL     1       1.096   9.101  20.498  0.00  0.00    +0.000 C 
ATOM      6  C   UNL     1       1.745   7.869  19.972  0.00  0.00    +0.000 A 
ATOM      7  N   UNL     1       1.854   6.736  20.623  0.00  0.00    +0.000 NA
ATOM      8  C   UNL     1       2.488   5.778  19.831  0.00  0.00    +0.000 A 
ATOM      9  C   UNL     1       2.885   6.241  18.578  0.00  0.00    +0.000 A 
ATOM     10  S   UNL     1       2.392   7.869  18.401  0.00  0.00    +0.000 S 
BRANCH   8  11
ATOM     11  C   UNL     1       2.579   4.408  20.438  0.00  0.00    +0.000 C 
BRANCH  11  12
ATOM     12  C   UNL     1       1.290   3.571  20.504  0.00  0.00    +0.000 C 
ATOM     13  C   UNL     1       1.001   2.798  19.213  0.00  0.00    +0.000 C 
ATOM     14  C   UNL     1       1.406   2.576  21.667  0.00  0.00    +0.000 C 
ENDBRANCH  11  12
ENDBRANCH   8  11
ENDBRANCH   1   9
BRANCH   2  15
ATOM     15  C   UNL     1       5.299   4.396  16.281  0.00  0.00    +0.000 C 
ATOM     16  C   UNL     1       5.261   5.180  14.929  0.00  0.00    +0.000 C 
ATOM     17  C   UNL     1       6.560   4.429  14.531  0.00  0.00    +0.000 C 
ATOM     18  C   UNL     1       7.598   5.244  13.780  0.00  0.00    +0.000 C 
ATOM     19  C   UNL     1       6.833   4.281  16.052  0.00  0.00    +0.000 C 
BRANCH  17  20
ATOM     20  O   UNL     1       6.346   3.177  13.843  0.00  0.00    +0.000 OA
ATOM     21  H   UNL     1       5.833   3.407  13.048  0.00  0.00    +0.000 HD
ENDBRANCH  17  20
ENDBRANCH   2  15
TORSDOF 5
ENDMDL
MODEL 7
REMARK VINA RESULT:      -6.9      2.818      6.485
REMARK  Name = 
REMARK  9 active torsions:
REMARK  status: ('A' for Active; 'I' for Inactive)
REMARK    1  A    between atoms: C_1  and  C_2
REMARK    2  A    between atoms: C_4  and  C_5
REMARK    3  A    between atoms: C_5  and  C_6
REMARK    4  A    between atoms: C_6  and  C_7
REMARK    5  A    between atoms: C_6  and  C_8
REMARK    6  A    between atoms: C_9  and  N_10
REMARK    7  A    between atoms: C_11  and  C_13
REMARK    8  A    between atoms: C_15  and  C_16
REMARK    9  A    between atoms: C_15  and  O_17
REMARK                            x       y       z     vdW  Elec       q    Type
REMARK                         _______ _______ _______ _____ _____    ______ ____
ROOT
ATOM      1  N   UNL     1       4.496   4.551  17.529  0.00  0.00    +0.000 N 
ATOM      2  C   UNL     1       5.608   5.381  17.638  0.00  0.00    +0.000 C 
ATOM      3  O   UNL     1       5.956   6.003  18.648  0.00  0.00    +0.000 OA
ATOM      4  H   UNL     1       4.368   4.037  16.665  0.00  0.00    +0.000 HD
ENDROOT
BRANCH   1   9
ATOM      5  C   UNL     1       2.074   2.485  21.647  0.00  0.00    +0.000 C 
ATOM      6  C   UNL     1       2.456   3.320  20.476  0.00  0.00    +0.000 A 
ATOM      7  N   UNL     1       1.777   4.349  20.028  0.00  0.00    +0.000 NA
ATOM      8  C   UNL     1       2.427   4.924  18.935  0.00  0.00    +0.000 A 
ATOM      9  C   UNL     1       3.597   4.270  18.555  0.00  0.00    +0.000 A 
ATOM     10  S   UNL     1       3.887   2.970  19.628  0.00  0.00    +0.000 S 
BRANCH   8  11
ATOM     11  C   UNL     1       1.790   6.174  18.401  0.00  0.00    +0.000 C 
BRANCH  11  12
ATOM     12  C   UNL     1       2.414   7.520  18.804  0.00  0.00    +0.000 C 
ATOM     13  C   UNL     1       2.168   8.635  17.783  0.00  0.00    +0.000 C 
ATOM     14  C   UNL     1       1.835   7.947  20.161  0.00  0.00    +0.000 C 
ENDBRANCH  11  12
ENDBRANCH   8  11
ENDBRANCH   1   9
BRANCH   2  15
ATOM     15  C   UNL     1       6.467   5.463  16.353  0.00  0.00    +0.000 C 
ATOM     16  C   UNL     1       7.001   4.119  15.761  0.00  0.00    +0.000 C 
ATOM     17  C   UNL     1       6.754   4.717  14.349  0.00  0.00    +0.000 C 
ATOM     18  C   UNL     1       6.208   3.759  13.305  0.00  0.00    +0.000 C 
ATOM     19  C   UNL     1       5.683   5.620  15.019  0.00  0.00    +0.000 C 
BRANCH  17  20
ATOM     20  O   UNL     1       7.875   5.439  13.796  0.00  0.00    +0.000 OA
ATOM     21  H   UNL     1       8.633   4.833  13.872  0.00  0.00    +0.000 HD
ENDBRANCH  17  20
ENDBRANCH   2  15
TORSDOF 5
ENDMDL
MODEL 8
REMARK VINA RESULT:      -6.8      1.127      1.349
REMARK  Name = 
REMARK  9 active torsions:
REMARK  status: ('A' for Active; 'I' for Inactive)
REMARK    1  A    between atoms: C_1  and  C_2
REMARK    2  A    between atoms: C_4  and  C_5
REMARK    3  A    between atoms: C_5  and  C_6
REMARK    4  A    between atoms: C_6  and  C_7
REMARK    5  A    between atoms: C_6  and  C_8
REMARK    6  A    between atoms: C_9  and  N_10
REMARK    7  A    between atoms: C_11  and  C_13
REMARK    8  A    between atoms: C_15  and  C_16
REMARK    9  A    between atoms: C_15  and  O_17
REMARK                            x       y       z     vdW  Elec       q    Type
REMARK                         _______ _______ _______ _____ _____    ______ ____
ROOT
ATOM      1  N   UNL     1       4.419   4.607  16.831  0.00  0.00    +0.000 N 
ATOM      2  C   UNL     1       3.922   3.461  17.446  0.00  0.00    +0.000 C 
ATOM      3  O   UNL     1       4.384   2.320  17.341  0.00  0.00    +0.000 OA
ATOM      4  H   UNL     1       3.994   5.496  17.064  0.00  0.00    +0.000 HD
ENDROOT
BRANCH   1   9
ATOM      5  C   UNL     1       7.620   4.989  12.745  0.00  0.00    +0.000 C 
ATOM      6  C   UNL     1       7.046   4.834  14.109  0.00  0.00    +0.000 A 
ATOM      7  N   UNL     1       7.742   4.670  15.208  0.00  0.00    +0.000 NA
ATOM      8  C   UNL     1       6.895   4.586  16.313  0.00  0.00    +0.000 A 
ATOM      9  C   UNL     1       5.539   4.655  16.004  0.00  0.00    +0.000 A 
ATOM     10  S   UNL     1       5.360   4.886  14.318  0.00  0.00    +0.000 S 
BRANCH   8  11
ATOM     11  C   UNL     1       7.589   4.499  17.642  0.00  0.00    +0.000 C 
BRANCH  11  12
ATOM     12  C   UNL     1       7.575   5.749  18.537  0.00  0.00    +0.000 C 
ATOM     13  C   UNL     1       7.503   7.060  17.750  0.00  0.00    +0.000 C 
ATOM     14  C   UNL     1       6.368   5.666  19.483  0.00  0.00    +0.000 C 
ENDBRANCH  11  12
ENDBRANCH   8  11
ENDBRANCH   1   9
BRANCH   2  15
ATOM     15  C   UNL     1       2.700   3.713  18.362  0.00  0.00    +0.000 C 
ATOM     16  C   UNL     1       2.029   2.466  19.023  0.00  0.00    +0.000 C 
ATOM     17  C   UNL     1       1.807   3.336  20.289  0.00  0.00    +0.000 C 
ATOM     18  C   UNL     1       2.012   2.638  21.623  0.00  0.00    +0.000 C 
ATOM     19  C   UNL     1       3.019   4.180  19.810  0.00  0.00    +0.000 C 
BRANCH  17  20
ATOM     20  O   UNL     1       0.556   4.057  20.314  0.00  0.00    +0.000 OA
ATOM     21  H   UNL     1       0.307   4.169  19.379  0.00  0.00    +0.000 HD
ENDBRANCH  17  20
ENDBRANCH   2  15
TORSDOF 5
ENDMDL
MODEL 9
REMARK VINA RESULT:      -6.8      1.045      1.352
REMARK  Name = 
REMARK  9 active torsions:
REMARK  status: ('A' for Active; 'I' for Inactive)
REMARK    1  A    between atoms: C_1  and  C_2
REMARK    2  A    between atoms: C_4  and  C_5
REMARK    3  A    between atoms: C_5  and  C_6
REMARK    4  A    between atoms: C_6  and  C_7
REMARK    5  A    between atoms: C_6  and  C_8
REMARK    6  A    between atoms: C_9  and  N_10
REMARK    7  A    between atoms: C_11  and  C_13
REMARK    8  A    between atoms: C_15  and  C_16
REMARK    9  A    between atoms: C_15  and  O_17
REMARK                            x       y       z     vdW  Elec       q    Type
REMARK                         _______ _______ _______ _____ _____    ______ ____
ROOT
ATOM      1  N   UNL     1       4.218   4.505  17.217  0.00  0.00    +0.000 N 
ATOM      2  C   UNL     1       3.254   5.394  17.684  0.00  0.00    +0.000 C 
ATOM      3  O   UNL     1       3.191   6.601  17.428  0.00  0.00    +0.000 OA
ATOM      4  H   UNL     1       4.109   3.523  17.439  0.00  0.00    +0.000 HD
ENDROOT
BRANCH   1   9
ATOM      5  C   UNL     1       7.501   4.787  13.187  0.00  0.00    +0.000 C 
ATOM      6  C   UNL     1       6.807   4.978  14.490  0.00  0.00    +0.000 A 
ATOM      7  N   UNL     1       7.175   5.819  15.427  0.00  0.00    +0.000 NA
ATOM      8  C   UNL     1       6.291   5.767  16.504  0.00  0.00    +0.000 A 
ATOM      9  C   UNL     1       5.268   4.833  16.362  0.00  0.00    +0.000 A 
ATOM     10  S   UNL     1       5.409   4.076  14.835  0.00  0.00    +0.000 S 
BRANCH   8  11
ATOM     11  C   UNL     1       6.557   6.763  17.596  0.00  0.00    +0.000 C 
BRANCH  11  12
ATOM     12  C   UNL     1       7.978   6.814  18.182  0.00  0.00    +0.000 C 
ATOM     13  C   UNL     1       8.411   8.222  18.604  0.00  0.00    +0.000 C 
ATOM     14  C   UNL     1       8.044   5.884  19.402  0.00  0.00    +0.000 C 
ENDBRANCH  11  12
ENDBRANCH   8  11
ENDBRANCH   1   9
BRANCH   2  15
ATOM     15  C   UNL     1       2.168   4.741  18.573  0.00  0.00    +0.000 C 
ATOM     16  C   UNL     1       2.338   3.226  18.918  0.00  0.00    +0.000 C 
ATOM     17  C   UNL     1       1.779   3.551  20.330  0.00  0.00    +0.000 C 
ATOM     18  C   UNL     1       2.434   2.823  21.491  0.00  0.00    +0.000 C 
ATOM     19  C   UNL     1       2.294   4.997  20.102  0.00  0.00    +0.000 C 
BRANCH  17  20
ATOM     20  O   UNL     1       0.343   3.445  20.449  0.00  0.00    +0.000 OA
ATOM     21  H   UNL     1      -0.001   3.611  19.553  0.00  0.00    +0.000 HD
ENDBRANCH  17  20
ENDBRANCH   2  15
TORSDOF 5
ENDMDL
