MODEL 1
REMARK VINA RESULT:      -7.7      0.000      0.000
REMARK  Name = 
REMARK  6 active torsions:
REMARK  status: ('A' for Active; 'I' for Inactive)
REMARK    1  A    between atoms: C_1  and  C_2
REMARK    2  A    between atoms: C_2  and  C_3
REMARK    3  A    between atoms: C_3  and  O_4
REMARK    4  A    between atoms: O_4  and  C_5
REMARK    5  A    between atoms: C_8  and  C_9
REMARK    6  A    between atoms: C_9  and  N_10
REMARK                            x       y       z     vdW  Elec       q    Type
REMARK                         _______ _______ _______ _____ _____    ______ ____
ROOT
ATOM      1  C   UNL     1       7.760   7.003  18.213  0.00  0.00    +0.000 A 
ATOM      2  C   UNL     1       7.784   5.694  18.666  0.00  0.00    +0.000 A 
ATOM      3  C   UNL     1       6.891   4.741  18.137  0.00  0.00    +0.000 A 
ATOM      4  C   UNL     1       5.850   5.075  17.249  0.00  0.00    +0.000 A 
ATOM      5  C   UNL     1       5.893   6.384  16.742  0.00  0.00    +0.000 A 
ATOM      6  C   UNL     1       6.831   7.329  17.221  0.00  0.00    +0.000 A 
ENDROOT
BRANCH   1   7
ATOM      7  O   UNL     1       8.578   8.018  18.637  0.00  0.00    +0.000 OA
BRANCH   7   8
ATOM      8  C   UNL     1       8.348   9.324  18.091  0.00  0.00    +0.000 C 
BRANCH   8  10
ATOM      9  C   UNL     1      10.039  11.230  17.959  0.00  0.00    +0.000 C 
ATOM     10  C   UNL     1       9.150  10.384  18.859  0.00  0.00    +0.000 C 
ENDBRANCH   8  10
ENDBRANCH   7   8
ENDBRANCH   1   7
BRANCH   4  11
ATOM     11  C   UNL     1       4.791   4.062  16.760  0.00  0.00    +0.000 C 
BRANCH  11  12
ATOM     12  N   UNL     1       3.922   3.437  17.788  0.00  0.00    +0.000 N 
ATOM     13  C   UNL     1       3.531   2.127  17.725  0.00  0.00    +0.000 A 
ATOM     14  N   UNL     1       2.263   1.987  18.002  0.00  0.00    +0.000 NA
ATOM     15  C   UNL     1       2.002   3.076  18.766  0.00  0.00    +0.000 A 
ATOM     16  C   UNL     1       0.896   3.238  19.607  0.00  0.00    +0.000 A 
ATOM     17  C   UNL     1       0.990   4.196  20.597  0.00  0.00    +0.000 A 
ATOM     18  C   UNL     1       2.079   5.057  20.638  0.00  0.00    +0.000 A 
ATOM     19  C   UNL     1       3.117   5.049  19.665  0.00  0.00    +0.000 A 
ATOM     20  C   UNL     1       3.072   3.990  18.742  0.00  0.00    +0.000 A 
ENDBRANCH  11  12
ENDBRANCH   4  11
TORSDOF 5
ENDMDL
MODEL 2
REMARK VINA RESULT:      -7.6      0.194      1.078
REMARK  Name = 
REMARK  6 active torsions:
REMARK  status: ('A' for Active; 'I' for Inactive)
REMARK    1  A    between atoms: C_1  and  C_2
REMARK    2  A    between atoms: C_2  and  C_3
REMARK    3  A    between atoms: C_3  and  O_4
REMARK    4  A    between atoms: O_4  and  C_5
REMARK    5  A    between atoms: C_8  and  C_9
REMARK    6  A    between atoms: C_9  and  N_10
REMARK                            x       y       z     vdW  Elec       q    Type
REMARK                         _______ _______ _______ _____ _____    ______ ____
ROOT
ATOM      1  C   UNL     1       7.660   7.131  18.145  0.00  0.00    +0.000 A 
ATOM      2  C   UNL     1       6.718   7.361  17.156  0.00  0.00    +0.000 A 
ATOM      3  C   UNL     1       5.784   6.361  16.817  0.00  0.00    +0.000 A 
ATOM      4  C   UNL     1       5.837   5.053  17.338  0.00  0.00    +0.000 A 
ATOM      5  C   UNL     1       6.744   4.865  18.393  0.00  0.00    +0.000 A 
ATOM      6  C   UNL     1       7.641   5.888  18.784  0.00  0.00    +0.000 A 
ENDROOT
BRANCH   1   7
ATOM      7  O   UNL     1       8.613   8.020  18.574  0.00  0.00    +0.000 OA
BRANCH   7   8
ATOM      8  C   UNL     1       8.425   9.401  18.241  0.00  0.00    +0.000 C 
BRANCH   8  10
ATOM      9  C   UNL     1      10.137  11.286  18.402  0.00  0.00    +0.000 C 
ATOM     10  C   UNL     1       9.259  10.301  19.163  0.00  0.00    +0.000 C 
ENDBRANCH   8  10
ENDBRANCH   7   8
ENDBRANCH   1   7
BRANCH   4  11
ATOM     11  C   UNL     1       4.896   3.917  16.880  0.00  0.00    +0.000 C 
BRANCH  11  12
ATOM     12  N   UNL     1       3.986   3.335  17.896  0.00  0.00    +0.000 N 
ATOM     13  C   UNL     1       3.577   2.030  17.860  0.00  0.00    +0.000 A 
ATOM     14  N   UNL     1       2.299   1.916  18.100  0.00  0.00    +0.000 NA
ATOM     15  C   UNL     1       2.031   3.031  18.824  0.00  0.00    +0.000 A 
ATOM     16  C   UNL     1       0.902   3.235  19.624  0.00  0.00    +0.000 A 
ATOM     17  C   UNL     1       0.980   4.220  20.587  0.00  0.00    +0.000 A 
ATOM     18  C   UNL     1       2.080   5.066  20.638  0.00  0.00    +0.000 A 
ATOM     19  C   UNL     1       3.148   5.014  19.699  0.00  0.00    +0.000 A 
ATOM     20  C   UNL     1       3.115   3.928  18.807  0.00  0.00    +0.000 A 
ENDBRANCH  11  12
ENDBRANCH   4  11
TORSDOF 5
ENDMDL
MODEL 3
REMARK VINA RESULT:      -7.2      3.208      4.965
REMARK  Name = 
REMARK  6 active torsions:
REMARK  status: ('A' for Active; 'I' for Inactive)
REMARK    1  A    between atoms: C_1  and  C_2
REMARK    2  A    between atoms: C_2  and  C_3
REMARK    3  A    between atoms: C_3  and  O_4
REMARK    4  A    between atoms: O_4  and  C_5
REMARK    5  A    between atoms: C_8  and  C_9
REMARK    6  A    between atoms: C_9  and  N_10
REMARK                            x       y       z     vdW  Elec       q    Type
REMARK                         _______ _______ _______ _____ _____    ______ ____
ROOT
ATOM      1  C   UNL     1       6.455   5.018  14.748  0.00  0.00    +0.000 A 
ATOM      2  C   UNL     1       5.450   5.936  15.001  0.00  0.00    +0.000 A 
ATOM      3  C   UNL     1       5.044   6.200  16.324  0.00  0.00    +0.000 A 
ATOM      4  C   UNL     1       5.511   5.465  17.431  0.00  0.00    +0.000 A 
ATOM      5  C   UNL     1       6.583   4.599  17.165  0.00  0.00    +0.000 A 
ATOM      6  C   UNL     1       7.041   4.378  15.844  0.00  0.00    +0.000 A 
ENDROOT
BRANCH   1   7
ATOM      7  O   UNL     1       6.947   4.679  13.513  0.00  0.00    +0.000 OA
BRANCH   7   8
ATOM      8  C   UNL     1       6.395   3.518  12.878  0.00  0.00    +0.000 C 
BRANCH   8  10
ATOM      9  C   UNL     1       4.446   3.025  11.306  0.00  0.00    +0.000 C 
ATOM     10  C   UNL     1       4.901   3.716  12.585  0.00  0.00    +0.000 C 
ENDBRANCH   8  10
ENDBRANCH   7   8
ENDBRANCH   1   7
BRANCH   4  11
ATOM     11  C   UNL     1       4.980   5.663  18.869  0.00  0.00    +0.000 C 
BRANCH  11  12
ATOM     12  N   UNL     1       3.536   5.416  19.100  0.00  0.00    +0.000 N 
ATOM     13  C   UNL     1       2.744   6.280  19.809  0.00  0.00    +0.000 A 
ATOM     14  N   UNL     1       1.966   5.648  20.645  0.00  0.00    +0.000 NA
ATOM     15  C   UNL     1       1.856   4.420  20.081  0.00  0.00    +0.000 A 
ATOM     16  C   UNL     1       0.873   3.470  20.376  0.00  0.00    +0.000 A 
ATOM     17  C   UNL     1       0.661   2.470  19.448  0.00  0.00    +0.000 A 
ATOM     18  C   UNL     1       1.506   2.339  18.353  0.00  0.00    +0.000 A 
ATOM     19  C   UNL     1       2.644   3.168  18.143  0.00  0.00    +0.000 A 
ATOM     20  C   UNL     1       2.770   4.255  19.024  0.00  0.00    +0.000 A 
ENDBRANCH  11  12
ENDBRANCH   4  11
TORSDOF 5
ENDMDL
MODEL 4
REMARK VINA RESULT:      -7.2      1.169      1.413
REMARK  Name = 
REMARK  6 active torsions:
REMARK  status: ('A' for Active; 'I' for Inactive)
REMARK    1  A    between atoms: C_1  and  C_2
REMARK    2  A    between atoms: C_2  and  C_3
REMARK    3  A    between atoms: C_3  and  O_4
REMARK    4  A    between atoms: O_4  and  C_5
REMARK    5  A    between atoms: C_8  and  C_9
REMARK    6  A    between atoms: C_9  and  N_10
REMARK                            x       y       z     vdW  Elec       q    Type
REMARK                         _______ _______ _______ _____ _____    ______ ____
ROOT
ATOM      1  C   UNL     1       7.759   6.939  18.283  0.00  0.00    +0.000 A 
ATOM      2  C   UNL     1       7.827   5.647  18.780  0.00  0.00    +0.000 A 
ATOM      3  C   UNL     1       6.948   4.655  18.303  0.00  0.00    +0.000 A 
ATOM      4  C   UNL     1       5.879   4.932  17.428  0.00  0.00    +0.000 A 
ATOM      5  C   UNL     1       5.876   6.223  16.877  0.00  0.00    +0.000 A 
ATOM      6  C   UNL     1       6.800   7.208  17.302  0.00  0.00    +0.000 A 
ENDROOT
BRANCH   1   7
ATOM      7  O   UNL     1       8.559   7.989  18.654  0.00  0.00    +0.000 OA
BRANCH   7   8
ATOM      8  C   UNL     1       8.287   9.268  18.065  0.00  0.00    +0.000 C 
BRANCH   8  10
ATOM      9  C   UNL     1      10.018  11.139  17.949  0.00  0.00    +0.000 C 
ATOM     10  C   UNL     1       9.024  10.382  18.821  0.00  0.00    +0.000 C 
ENDBRANCH   8  10
ENDBRANCH   7   8
ENDBRANCH   1   7
BRANCH   4  11
ATOM     11  C   UNL     1       4.836   3.877  16.999  0.00  0.00    +0.000 C 
BRANCH  11  12
ATOM     12  N   UNL     1       3.584   3.796  17.790  0.00  0.00    +0.000 N 
ATOM     13  C   UNL     1       2.412   4.373  17.379  0.00  0.00    +0.000 A 
ATOM     14  N   UNL     1       1.812   4.998  18.355  0.00  0.00    +0.000 NA
ATOM     15  C   UNL     1       2.283   4.359  19.454  0.00  0.00    +0.000 A 
ATOM     16  C   UNL     1       1.712   4.397  20.730  0.00  0.00    +0.000 A 
ATOM     17  C   UNL     1       2.064   3.393  21.610  0.00  0.00    +0.000 A 
ATOM     18  C   UNL     1       3.064   2.489  21.278  0.00  0.00    +0.000 A 
ATOM     19  C   UNL     1       3.809   2.559  20.067  0.00  0.00    +0.000 A 
ATOM     20  C   UNL     1       3.354   3.503  19.132  0.00  0.00    +0.000 A 
ENDBRANCH  11  12
ENDBRANCH   4  11
TORSDOF 5
ENDMDL
MODEL 5
REMARK VINA RESULT:      -7.2      3.189      4.986
REMARK  Name = 
REMARK  6 active torsions:
REMARK  status: ('A' for Active; 'I' for Inactive)
REMARK    1  A    between atoms: C_1  and  C_2
REMARK    2  A    between atoms: C_2  and  C_3
REMARK    3  A    between atoms: C_3  and  O_4
REMARK    4  A    between atoms: O_4  and  C_5
REMARK    5  A    between atoms: C_8  and  C_9
REMARK    6  A    between atoms: C_9  and  N_10
REMARK                            x       y       z     vdW  Elec       q    Type
REMARK                         _______ _______ _______ _____ _____    ______ ____
ROOT
ATOM      1  C   UNL     1       6.299   4.115  14.390  0.00  0.00    +0.000 A 
ATOM      2  C   UNL     1       5.090   3.807  14.993  0.00  0.00    +0.000 A 
ATOM      3  C   UNL     1       4.873   4.115  16.351  0.00  0.00    +0.000 A 
ATOM      4  C   UNL     1       5.887   4.603  17.198  0.00  0.00    +0.000 A 
ATOM      5  C   UNL     1       7.075   4.982  16.554  0.00  0.00    +0.000 A 
ATOM      6  C   UNL     1       7.275   4.737  15.174  0.00  0.00    +0.000 A 
ENDROOT
BRANCH   1   7
ATOM      7  O   UNL     1       6.630   3.877  13.081  0.00  0.00    +0.000 OA
BRANCH   7   8
ATOM      8  C   UNL     1       5.579   3.465  12.197  0.00  0.00    +0.000 C 
BRANCH   8  10
ATOM      9  C   UNL     1       7.265   1.940  11.040  0.00  0.00    +0.000 C 
ATOM     10  C   UNL     1       5.865   2.070  11.625  0.00  0.00    +0.000 C 
ENDBRANCH   8  10
ENDBRANCH   7   8
ENDBRANCH   1   7
BRANCH   4  11
ATOM     11  C   UNL     1       5.694   4.826  18.715  0.00  0.00    +0.000 C 
BRANCH  11  12
ATOM     12  N   UNL     1       4.684   3.986  19.403  0.00  0.00    +0.000 N 
ATOM     13  C   UNL     1       4.841   2.637  19.577  0.00  0.00    +0.000 A 
ATOM     14  N   UNL     1       3.743   1.983  19.309  0.00  0.00    +0.000 NA
ATOM     15  C   UNL     1       2.781   2.916  19.516  0.00  0.00    +0.000 A 
ATOM     16  C   UNL     1       1.420   2.658  19.705  0.00  0.00    +0.000 A 
ATOM     17  C   UNL     1       0.665   3.650  20.297  0.00  0.00    +0.000 A 
ATOM     18  C   UNL     1       1.218   4.901  20.541  0.00  0.00    +0.000 A 
ATOM     19  C   UNL     1       2.544   5.254  20.164  0.00  0.00    +0.000 A 
ATOM     20  C   UNL     1       3.336   4.199  19.680  0.00  0.00    +0.000 A 
ENDBRANCH  11  12
ENDBRANCH   4  11
TORSDOF 5
ENDMDL
MODEL 6
REMARK VINA RESULT:      -7.1      3.233      5.142
REMARK  Name = 
REMARK  6 active torsions:
REMARK  status: ('A' for Active; 'I' for Inactive)
REMARK    1  A    between atoms: C_1  and  C_2
REMARK    2  A    between atoms: C_2  and  C_3
REMARK    3  A    between atoms: C_3  and  O_4
REMARK    4  A    between atoms: O_4  and  C_5
REMARK    5  A    between atoms: C_8  and  C_9
REMARK    6  A    between atoms: C_9  and  N_10
REMARK                            x       y       z     vdW  Elec       q    Type
REMARK                         _______ _______ _______ _____ _____    ______ ____
ROOT
ATOM      1  C   UNL     1       6.375   4.234  14.067  0.00  0.00    +0.000 A 
ATOM      2  C   UNL     1       7.307   4.913  14.833  0.00  0.00    +0.000 A 
ATOM      3  C   UNL     1       6.971   5.370  16.123  0.00  0.00    +0.000 A 
ATOM      4  C   UNL     1       5.664   5.302  16.644  0.00  0.00    +0.000 A 
ATOM      5  C   UNL     1       4.757   4.542  15.889  0.00  0.00    +0.000 A 
ATOM      6  C   UNL     1       5.109   4.022  14.620  0.00  0.00    +0.000 A 
ENDROOT
BRANCH   1   7
ATOM      7  O   UNL     1       6.579   3.731  12.807  0.00  0.00    +0.000 OA
BRANCH   7   8
ATOM      8  C   UNL     1       5.432   3.247  12.095  0.00  0.00    +0.000 C 
BRANCH   8  10
ATOM      9  C   UNL     1       7.240   1.767  11.070  0.00  0.00    +0.000 C 
ATOM     10  C   UNL     1       5.757   1.933  11.370  0.00  0.00    +0.000 C 
ENDBRANCH   8  10
ENDBRANCH   7   8
ENDBRANCH   1   7
BRANCH   4  11
ATOM     11  C   UNL     1       5.258   5.911  18.005  0.00  0.00    +0.000 C 
BRANCH  11  12
ATOM     12  N   UNL     1       4.666   4.996  19.011  0.00  0.00    +0.000 N 
ATOM     13  C   UNL     1       5.278   3.838  19.405  0.00  0.00    +0.000 A 
ATOM     14  N   UNL     1       4.436   2.842  19.469  0.00  0.00    +0.000 NA
ATOM     15  C   UNL     1       3.249   3.467  19.667  0.00  0.00    +0.000 A 
ATOM     16  C   UNL     1       2.080   2.867  20.145  0.00  0.00    +0.000 A 
ATOM     17  C   UNL     1       1.110   3.700  20.666  0.00  0.00    +0.000 A 
ATOM     18  C   UNL     1       1.242   5.079  20.565  0.00  0.00    +0.000 A 
ATOM     19  C   UNL     1       2.325   5.712  19.894  0.00  0.00    +0.000 A 
ATOM     20  C   UNL     1       3.363   4.857  19.483  0.00  0.00    +0.000 A 
ENDBRANCH  11  12
ENDBRANCH   4  11
TORSDOF 5
ENDMDL
MODEL 7
REMARK VINA RESULT:      -7.0      1.137      1.648
REMARK  Name = 
REMARK  6 active torsions:
REMARK  status: ('A' for Active; 'I' for Inactive)
REMARK    1  A    between atoms: C_1  and  C_2
REMARK    2  A    between atoms: C_2  and  C_3
REMARK    3  A    between atoms: C_3  and  O_4
REMARK    4  A    between atoms: O_4  and  C_5
REMARK    5  A    between atoms: C_8  and  C_9
REMARK    6  A    between atoms: C_9  and  N_10
REMARK                            x       y       z     vdW  Elec       q    Type
REMARK                         _______ _______ _______ _____ _____    ______ ____
ROOT
ATOM      1  C   UNL     1       7.428   6.917  17.944  0.00  0.00    +0.000 A 
ATOM      2  C   UNL     1       6.280   7.167  17.210  0.00  0.00    +0.000 A 
ATOM      3  C   UNL     1       5.396   6.117  16.894  0.00  0.00    +0.000 A 
ATOM      4  C   UNL     1       5.682   4.765  17.165  0.00  0.00    +0.000 A 
ATOM      5  C   UNL     1       6.806   4.541  17.976  0.00  0.00    +0.000 A 
ATOM      6  C   UNL     1       7.664   5.602  18.354  0.00  0.00    +0.000 A 
ENDROOT
BRANCH   1   7
ATOM      7  O   UNL     1       8.361   7.848  18.323  0.00  0.00    +0.000 OA
BRANCH   7   8
ATOM      8  C   UNL     1       8.103   9.218  17.987  0.00  0.00    +0.000 C 
BRANCH   8  10
ATOM      9  C   UNL     1       9.135  10.923  19.580  0.00  0.00    +0.000 C 
ATOM     10  C   UNL     1       9.319  10.097  18.314  0.00  0.00    +0.000 C 
ENDBRANCH   8  10
ENDBRANCH   7   8
ENDBRANCH   1   7
BRANCH   4  11
ATOM     11  C   UNL     1       4.778   3.596  16.712  0.00  0.00    +0.000 C 
BRANCH  11  12
ATOM     12  N   UNL     1       3.511   3.390  17.454  0.00  0.00    +0.000 N 
ATOM     13  C   UNL     1       2.281   3.573  16.880  0.00  0.00    +0.000 A 
ATOM     14  N   UNL     1       1.473   4.229  17.667  0.00  0.00    +0.000 NA
ATOM     15  C   UNL     1       1.975   3.967  18.899  0.00  0.00    +0.000 A 
ATOM     16  C   UNL     1       1.299   4.136  20.111  0.00  0.00    +0.000 A 
ATOM     17  C   UNL     1       1.786   3.454  21.207  0.00  0.00    +0.000 A 
ATOM     18  C   UNL     1       2.988   2.763  21.125  0.00  0.00    +0.000 A 
ATOM     19  C   UNL     1       3.803   2.750  19.959  0.00  0.00    +0.000 A 
ATOM     20  C   UNL     1       3.233   3.341  18.818  0.00  0.00    +0.000 A 
ENDBRANCH  11  12
ENDBRANCH   4  11
TORSDOF 5
ENDMDL
MODEL 8
REMARK VINA RESULT:      -7.0      3.243      5.327
REMARK  Name = 
REMARK  6 active torsions:
REMARK  status: ('A' for Active; 'I' for Inactive)
REMARK    1  A    between atoms: C_1  and  C_2
REMARK    2  A    between atoms: C_2  and  C_3
REMARK    3  A    between atoms: C_3  and  O_4
REMARK    4  A    between atoms: O_4  and  C_5
REMARK    5  A    between atoms: C_8  and  C_9
REMARK    6  A    between atoms: C_9  and  N_10
REMARK                            x       y       z     vdW  Elec       q    Type
REMARK                         _______ _______ _______ _____ _____    ______ ____
ROOT
ATOM      1  C   UNL     1       6.405   4.277  14.067  0.00  0.00    +0.000 A 
ATOM      2  C   UNL     1       7.249   5.060  14.838  0.00  0.00    +0.000 A 
ATOM      3  C   UNL     1       6.942   5.319  16.188  0.00  0.00    +0.000 A 
ATOM      4  C   UNL     1       5.725   4.939  16.785  0.00  0.00    +0.000 A 
ATOM      5  C   UNL     1       4.922   4.082  16.015  0.00  0.00    +0.000 A 
ATOM      6  C   UNL     1       5.258   3.762  14.678  0.00  0.00    +0.000 A 
ENDROOT
BRANCH   1   7
ATOM      7  O   UNL     1       6.593   3.944  12.750  0.00  0.00    +0.000 OA
BRANCH   7   8
ATOM      8  C   UNL     1       5.656   3.035  12.158  0.00  0.00    +0.000 C 
BRANCH   8  10
ATOM      9  C   UNL     1       3.435   2.994  10.903  0.00  0.00    +0.000 C 
ATOM     10  C   UNL     1       4.705   3.776  11.207  0.00  0.00    +0.000 C 
ENDBRANCH   8  10
ENDBRANCH   7   8
ENDBRANCH   1   7
BRANCH   4  11
ATOM     11  C   UNL     1       5.327   5.326  18.227  0.00  0.00    +0.000 C 
BRANCH  11  12
ATOM     12  N   UNL     1       3.887   5.259  18.577  0.00  0.00    +0.000 N 
ATOM     13  C   UNL     1       3.119   6.378  18.758  0.00  0.00    +0.000 A 
ATOM     14  N   UNL     1       2.357   6.275  19.813  0.00  0.00    +0.000 NA
ATOM     15  C   UNL     1       2.224   4.934  19.957  0.00  0.00    +0.000 A 
ATOM     16  C   UNL     1       1.241   4.285  20.712  0.00  0.00    +0.000 A 
ATOM     17  C   UNL     1       1.000   2.956  20.428  0.00  0.00    +0.000 A 
ATOM     18  C   UNL     1       1.818   2.270  19.539  0.00  0.00    +0.000 A 
ATOM     19  C   UNL     1       2.956   2.854  18.916  0.00  0.00    +0.000 A 
ATOM     20  C   UNL     1       3.112   4.236  19.116  0.00  0.00    +0.000 A 
ENDBRANCH  11  12
ENDBRANCH   4  11
TORSDOF 5
ENDMDL
MODEL 9
REMARK VINA RESULT:      -6.9      3.438      5.188
REMARK  Name = 
REMARK  6 active torsions:
REMARK  status: ('A' for Active; 'I' for Inactive)
REMARK    1  A    between atoms: C_1  and  C_2
REMARK    2  A    between atoms: C_2  and  C_3
REMARK    3  A    between atoms: C_3  and  O_4
REMARK    4  A    between atoms: O_4  and  C_5
REMARK    5  A    between atoms: C_8  and  C_9
REMARK    6  A    between atoms: C_9  and  N_10
REMARK                            x       y       z     vdW  Elec       q    Type
REMARK                         _______ _______ _______ _____ _____    ______ ____
ROOT
ATOM      1  C   UNL     1       6.062   4.054  14.769  0.00  0.00    +0.000 A 
ATOM      2  C   UNL     1       5.949   3.584  16.067  0.00  0.00    +0.000 A 
ATOM      3  C   UNL     1       5.326   4.371  17.056  0.00  0.00    +0.000 A 
ATOM      4  C   UNL     1       4.923   5.702  16.837  0.00  0.00    +0.000 A 
ATOM      5  C   UNL     1       4.972   6.130  15.501  0.00  0.00    +0.000 A 
ATOM      6  C   UNL     1       5.537   5.319  14.487  0.00  0.00    +0.000 A 
ENDROOT
BRANCH   1   7
ATOM      7  O   UNL     1       6.635   3.387  13.716  0.00  0.00    +0.000 OA
BRANCH   7   8
ATOM      8  C   UNL     1       6.275   3.806  12.393  0.00  0.00    +0.000 C 
BRANCH   8  10
ATOM      9  C   UNL     1       4.004   3.297  11.349  0.00  0.00    +0.000 C 
ATOM     10  C   UNL     1       5.381   2.759  11.715  0.00  0.00    +0.000 C 
ENDBRANCH   8  10
ENDBRANCH   7   8
ENDBRANCH   1   7
BRANCH   4  11
ATOM     11  C   UNL     1       4.354   6.613  17.948  0.00  0.00    +0.000 C 
BRANCH  11  12
ATOM     12  N   UNL     1       3.067   6.210  18.565  0.00  0.00    +0.000 N 
ATOM     13  C   UNL     1       2.418   6.983  19.490  0.00  0.00    +0.000 A 
ATOM     14  N   UNL     1       1.977   6.271  20.491  0.00  0.00    +0.000 NA
ATOM     15  C   UNL     1       1.844   5.037  19.945  0.00  0.00    +0.000 A 
ATOM     16  C   UNL     1       1.089   3.985  20.475  0.00  0.00    +0.000 A 
ATOM     17  C   UNL     1       0.734   2.966  19.614  0.00  0.00    +0.000 A 
ATOM     18  C   UNL     1       1.248   2.927  18.325  0.00  0.00    +0.000 A 
ATOM     19  C   UNL     1       2.187   3.875  17.829  0.00  0.00    +0.000 A 
ATOM     20  C   UNL     1       2.439   4.971  18.671  0.00  0.00    +0.000 A 
ENDBRANCH  11  12
ENDBRANCH   4  11
TORSDOF 5
ENDMDL
