MODEL 1
REMARK VINA RESULT:      -9.3      0.000      0.000
REMARK  Name = 
REMARK  6 active torsions:
REMARK  status: ('A' for Active; 'I' for Inactive)
REMARK    1  A    between atoms: C_1  and  C_2
REMARK    2  A    between atoms: C_4  and  C_5
REMARK    3  A    between atoms: C_13  and  C_14
REMARK    4  A    between atoms: C_14  and  N_15
REMARK    5  A    between atoms: C_18  and  C_19
REMARK    6  A    between atoms: N_21  and  C_22
REMARK                            x       y       z     vdW  Elec       q    Type
REMARK                         _______ _______ _______ _____ _____    ______ ____
ROOT
ATOM      1  N   UNL     1       4.326   4.238  19.023  0.00  0.00    +0.000 NA
ATOM      2  C   UNL     1       3.918   4.544  20.405  0.00  0.00    +0.000 C 
ATOM      3  C   UNL     1       2.397   4.634  20.621  0.00  0.00    +0.000 C 
ATOM      4  C   UNL     1       1.660   5.535  19.628  0.00  0.00    +0.000 C 
ATOM      5  C   UNL     1       2.134   5.178  18.205  0.00  0.00    +0.000 C 
ATOM      6  C   UNL     1       3.660   5.133  18.055  0.00  0.00    +0.000 C 
ENDROOT
BRANCH   4   7
ATOM      7  C   UNL     1       1.756   7.051  19.887  0.00  0.00    +0.000 C 
ATOM      8  O   UNL     1       2.520   7.756  19.225  0.00  0.00    +0.000 OA
ATOM      9  N   UNL     1       0.912   7.610  20.850  0.00  0.00    +0.000 N 
ATOM     10  H   UNL     1       0.507   7.014  21.555  0.00  0.00    +0.000 HD
BRANCH   9  11
ATOM     11  C   UNL     1       1.028   9.055  21.124  0.00  0.00    +0.000 C 
ATOM     12  C   UNL     1       1.194   9.297  22.635  0.00  0.00    +0.000 C 
ATOM     13  C   UNL     1      -0.146   9.533  23.321  0.00  0.00    +0.000 C 
ATOM     14  C   UNL     1      -0.742  10.834  22.810  0.00  0.00    +0.000 C 
ATOM     15  C   UNL     1      -0.782  10.880  21.302  0.00  0.00    +0.000 A 
ATOM     16  C   UNL     1      -1.512  11.928  20.709  0.00  0.00    +0.000 A 
ATOM     17  C   UNL     1      -1.534  12.080  19.327  0.00  0.00    +0.000 A 
ATOM     18  C   UNL     1      -0.856  11.166  18.525  0.00  0.00    +0.000 A 
ATOM     19  C   UNL     1      -0.118  10.121  19.106  0.00  0.00    +0.000 A 
ATOM     20  C   UNL     1      -0.035   9.980  20.504  0.00  0.00    +0.000 A 
ENDBRANCH   9  11
ENDBRANCH   4   7
BRANCH   1  21
ATOM     21  C   UNL     1       5.800   4.410  18.870  0.00  0.00    +0.000 C 
BRANCH  21  27
ATOM     22  C   UNL     1       7.655   7.041  17.791  0.00  0.00    +0.000 C 
ATOM     23  C   UNL     1       7.005   5.909  17.107  0.00  0.00    +0.000 A 
ATOM     24  O   UNL     1       7.216   5.824  15.765  0.00  0.00    +0.000 OA
ATOM     25  C   UNL     1       6.548   4.688  15.383  0.00  0.00    +0.000 A 
ATOM     26  N   UNL     1       5.913   4.087  16.372  0.00  0.00    +0.000 NA
ATOM     27  C   UNL     1       6.219   4.845  17.493  0.00  0.00    +0.000 A 
BRANCH  25  28
ATOM     28  C   UNL     1       6.621   4.369  13.968  0.00  0.00    +0.000 A 
ATOM     29  C   UNL     1       5.698   3.474  13.397  0.00  0.00    +0.000 A 
ATOM     30  C   UNL     1       5.719   3.199  12.024  0.00  0.00    +0.000 A 
ATOM     31  C   UNL     1       6.676   3.797  11.203  0.00  0.00    +0.000 A 
ATOM     32  C   UNL     1       7.615   4.660  11.758  0.00  0.00    +0.000 A 
ATOM     33  C   UNL     1       7.584   4.937  13.125  0.00  0.00    +0.000 A 
ATOM     34  F   UNL     1       8.521   5.764  13.614  0.00  0.00    +0.000 F 
ENDBRANCH  25  28
ENDBRANCH  21  27
ENDBRANCH   1  21
TORSDOF 5
ENDMDL
MODEL 2
REMARK VINA RESULT:      -9.2      3.408      6.057
REMARK  Name = 
REMARK  6 active torsions:
REMARK  status: ('A' for Active; 'I' for Inactive)
REMARK    1  A    between atoms: C_1  and  C_2
REMARK    2  A    between atoms: C_4  and  C_5
REMARK    3  A    between atoms: C_13  and  C_14
REMARK    4  A    between atoms: C_14  and  N_15
REMARK    5  A    between atoms: C_18  and  C_19
REMARK    6  A    between atoms: N_21  and  C_22
REMARK                            x       y       z     vdW  Elec       q    Type
REMARK                         _______ _______ _______ _____ _____    ______ ____
ROOT
ATOM      1  N   UNL     1       1.089  10.086  19.919  0.00  0.00    +0.000 NA
ATOM      2  C   UNL     1       1.272  11.514  19.608  0.00  0.00    +0.000 C 
ATOM      3  C   UNL     1       1.013  12.468  20.788  0.00  0.00    +0.000 C 
ATOM      4  C   UNL     1      -0.312  12.240  21.517  0.00  0.00    +0.000 C 
ATOM      5  C   UNL     1      -0.454  10.732  21.806  0.00  0.00    +0.000 C 
ATOM      6  C   UNL     1      -0.209   9.842  20.580  0.00  0.00    +0.000 C 
ENDROOT
BRANCH   4   7
ATOM      7  C   UNL     1      -1.571  12.799  20.827  0.00  0.00    +0.000 C 
ATOM      8  O   UNL     1      -1.501  13.315  19.710  0.00  0.00    +0.000 OA
ATOM      9  N   UNL     1      -2.799  12.653  21.477  0.00  0.00    +0.000 N 
ATOM     10  H   UNL     1      -2.813  12.490  22.472  0.00  0.00    +0.000 HD
BRANCH   9  11
ATOM     11  C   UNL     1      -4.000  13.220  20.835  0.00  0.00    +0.000 C 
ATOM     12  C   UNL     1      -4.808  14.044  21.853  0.00  0.00    +0.000 C 
ATOM     13  C   UNL     1      -5.881  13.205  22.536  0.00  0.00    +0.000 C 
ATOM     14  C   UNL     1      -6.917  12.789  21.505  0.00  0.00    +0.000 C 
ATOM     15  C   UNL     1      -6.280  12.147  20.296  0.00  0.00    +0.000 A 
ATOM     16  C   UNL     1      -7.138  11.520  19.373  0.00  0.00    +0.000 A 
ATOM     17  C   UNL     1      -6.634  10.972  18.198  0.00  0.00    +0.000 A 
ATOM     18  C   UNL     1      -5.264  11.016  17.953  0.00  0.00    +0.000 A 
ATOM     19  C   UNL     1      -4.399  11.647  18.863  0.00  0.00    +0.000 A 
ATOM     20  C   UNL     1      -4.893  12.258  20.031  0.00  0.00    +0.000 A 
ENDBRANCH   9  11
ENDBRANCH   4   7
BRANCH   1  21
ATOM     21  C   UNL     1       1.126   9.275  18.667  0.00  0.00    +0.000 C 
BRANCH  21  27
ATOM     22  C   UNL     1       1.502   6.680  20.824  0.00  0.00    +0.000 C 
ATOM     23  C   UNL     1       2.203   7.087  19.593  0.00  0.00    +0.000 A 
ATOM     24  O   UNL     1       3.175   6.241  19.154  0.00  0.00    +0.000 OA
ATOM     25  C   UNL     1       3.637   6.817  17.998  0.00  0.00    +0.000 A 
ATOM     26  N   UNL     1       3.056   7.966  17.708  0.00  0.00    +0.000 NA
ATOM     27  C   UNL     1       2.112   8.141  18.709  0.00  0.00    +0.000 A 
BRANCH  25  28
ATOM     28  C   UNL     1       4.700   6.093  17.323  0.00  0.00    +0.000 A 
ATOM     29  C   UNL     1       5.978   6.668  17.197  0.00  0.00    +0.000 A 
ATOM     30  C   UNL     1       7.028   5.961  16.599  0.00  0.00    +0.000 A 
ATOM     31  C   UNL     1       6.813   4.676  16.098  0.00  0.00    +0.000 A 
ATOM     32  C   UNL     1       5.547   4.106  16.187  0.00  0.00    +0.000 A 
ATOM     33  C   UNL     1       4.507   4.812  16.792  0.00  0.00    +0.000 A 
ATOM     34  F   UNL     1       3.301   4.225  16.839  0.00  0.00    +0.000 F 
ENDBRANCH  25  28
ENDBRANCH  21  27
ENDBRANCH   1  21
TORSDOF 5
ENDMDL
MODEL 3
REMARK VINA RESULT:      -9.2      4.403     11.615
REMARK  Name = 
REMARK  6 active torsions:
REMARK  status: ('A' for Active; 'I' for Inactive)
REMARK    1  A    between atoms: C_1  and  C_2
REMARK    2  A    between atoms: C_4  and  C_5
REMARK    3  A    between atoms: C_13  and  C_14
REMARK    4  A    between atoms: C_14  and  N_15
REMARK    5  A    between atoms: C_18  and  C_19
REMARK    6  A    between atoms: N_21  and  C_22
REMARK                            x       y       z     vdW  Elec       q    Type
REMARK                         _______ _______ _______ _____ _____    ______ ____
ROOT
ATOM      1  N   UNL     1       0.606  11.781  19.756  0.00  0.00    +0.000 NA
ATOM      2  C   UNL     1       1.971  11.699  19.209  0.00  0.00    +0.000 C 
ATOM      3  C   UNL     1       2.071  11.035  17.824  0.00  0.00    +0.000 C 
ATOM      4  C   UNL     1       1.361   9.685  17.708  0.00  0.00    +0.000 C 
ATOM      5  C   UNL     1      -0.054   9.828  18.304  0.00  0.00    +0.000 C 
ATOM      6  C   UNL     1      -0.075  10.472  19.696  0.00  0.00    +0.000 C 
ENDROOT
BRANCH   4   7
ATOM      7  C   UNL     1       2.103   8.475  18.308  0.00  0.00    +0.000 C 
ATOM      8  O   UNL     1       2.017   8.215  19.509  0.00  0.00    +0.000 OA
ATOM      9  N   UNL     1       2.826   7.650  17.443  0.00  0.00    +0.000 N 
ATOM     10  H   UNL     1       3.112   8.008  16.545  0.00  0.00    +0.000 HD
BRANCH   9  11
ATOM     11  C   UNL     1       3.566   6.511  18.021  0.00  0.00    +0.000 C 
ATOM     12  C   UNL     1       5.036   6.550  17.569  0.00  0.00    +0.000 C 
ATOM     13  C   UNL     1       5.262   5.727  16.306  0.00  0.00    +0.000 C 
ATOM     14  C   UNL     1       5.019   4.260  16.620  0.00  0.00    +0.000 C 
ATOM     15  C   UNL     1       3.684   4.043  17.292  0.00  0.00    +0.000 A 
ATOM     16  C   UNL     1       3.243   2.713  17.432  0.00  0.00    +0.000 A 
ATOM     17  C   UNL     1       2.060   2.429  18.106  0.00  0.00    +0.000 A 
ATOM     18  C   UNL     1       1.292   3.472  18.614  0.00  0.00    +0.000 A 
ATOM     19  C   UNL     1       1.726   4.803  18.487  0.00  0.00    +0.000 A 
ATOM     20  C   UNL     1       2.948   5.111  17.859  0.00  0.00    +0.000 A 
ENDBRANCH   9  11
ENDBRANCH   4   7
BRANCH   1  21
ATOM     21  C   UNL     1       0.646  12.213  21.183  0.00  0.00    +0.000 C 
BRANCH  21  27
ATOM     22  C   UNL     1      -0.706   9.958  23.330  0.00  0.00    +0.000 C 
ATOM     23  C   UNL     1      -1.182  11.232  22.764  0.00  0.00    +0.000 A 
ATOM     24  O   UNL     1      -2.389  11.670  23.216  0.00  0.00    +0.000 OA
ATOM     25  C   UNL     1      -2.582  12.869  22.576  0.00  0.00    +0.000 A 
ATOM     26  N   UNL     1      -1.611  13.188  21.741  0.00  0.00    +0.000 NA
ATOM     27  C   UNL     1      -0.690  12.158  21.870  0.00  0.00    +0.000 A 
BRANCH  25  28
ATOM     28  C   UNL     1      -3.824  13.552  22.895  0.00  0.00    +0.000 A 
ATOM     29  C   UNL     1      -3.832  14.604  23.828  0.00  0.00    +0.000 A 
ATOM     30  C   UNL     1      -5.010  15.310  24.105  0.00  0.00    +0.000 A 
ATOM     31  C   UNL     1      -6.203  14.962  23.468  0.00  0.00    +0.000 A 
ATOM     32  C   UNL     1      -6.216  13.903  22.565  0.00  0.00    +0.000 A 
ATOM     33  C   UNL     1      -5.038  13.209  22.287  0.00  0.00    +0.000 A 
ATOM     34  F   UNL     1      -5.108  12.187  21.421  0.00  0.00    +0.000 F 
ENDBRANCH  25  28
ENDBRANCH  21  27
ENDBRANCH   1  21
TORSDOF 5
ENDMDL
MODEL 4
REMARK VINA RESULT:      -9.1      4.529     11.686
REMARK  Name = 
REMARK  6 active torsions:
REMARK  status: ('A' for Active; 'I' for Inactive)
REMARK    1  A    between atoms: C_1  and  C_2
REMARK    2  A    between atoms: C_4  and  C_5
REMARK    3  A    between atoms: C_13  and  C_14
REMARK    4  A    between atoms: C_14  and  N_15
REMARK    5  A    between atoms: C_18  and  C_19
REMARK    6  A    between atoms: N_21  and  C_22
REMARK                            x       y       z     vdW  Elec       q    Type
REMARK                         _______ _______ _______ _____ _____    ______ ____
ROOT
ATOM      1  N   UNL     1       0.121  11.568  19.872  0.00  0.00    +0.000 NA
ATOM      2  C   UNL     1       1.552  11.634  19.528  0.00  0.00    +0.000 C 
ATOM      3  C   UNL     1       1.898  11.125  18.118  0.00  0.00    +0.000 C 
ATOM      4  C   UNL     1       1.322   9.751  17.772  0.00  0.00    +0.000 C 
ATOM      5  C   UNL     1      -0.169   9.738  18.162  0.00  0.00    +0.000 C 
ATOM      6  C   UNL     1      -0.439  10.231  19.590  0.00  0.00    +0.000 C 
ENDROOT
BRANCH   4   7
ATOM      7  C   UNL     1       2.066   8.536  18.360  0.00  0.00    +0.000 C 
ATOM      8  O   UNL     1       1.986   8.268  19.560  0.00  0.00    +0.000 OA
ATOM      9  N   UNL     1       2.783   7.716  17.486  0.00  0.00    +0.000 N 
ATOM     10  H   UNL     1       3.065   8.080  16.589  0.00  0.00    +0.000 HD
BRANCH   9  11
ATOM     11  C   UNL     1       3.526   6.573  18.052  0.00  0.00    +0.000 C 
ATOM     12  C   UNL     1       4.994   6.614  17.594  0.00  0.00    +0.000 C 
ATOM     13  C   UNL     1       5.214   5.801  16.325  0.00  0.00    +0.000 C 
ATOM     14  C   UNL     1       4.972   4.332  16.629  0.00  0.00    +0.000 C 
ATOM     15  C   UNL     1       3.640   4.110  17.304  0.00  0.00    +0.000 A 
ATOM     16  C   UNL     1       3.199   2.779  17.436  0.00  0.00    +0.000 A 
ATOM     17  C   UNL     1       2.019   2.490  18.113  0.00  0.00    +0.000 A 
ATOM     18  C   UNL     1       1.253   3.530  18.633  0.00  0.00    +0.000 A 
ATOM     19  C   UNL     1       1.688   4.862  18.514  0.00  0.00    +0.000 A 
ATOM     20  C   UNL     1       2.907   5.174  17.882  0.00  0.00    +0.000 A 
ENDBRANCH   9  11
ENDBRANCH   4   7
BRANCH   1  21
ATOM     21  C   UNL     1      -0.076  11.852  21.323  0.00  0.00    +0.000 C 
BRANCH  21  27
ATOM     22  C   UNL     1      -0.886  15.136  21.047  0.00  0.00    +0.000 C 
ATOM     23  C   UNL     1      -1.634  13.939  21.467  0.00  0.00    +0.000 A 
ATOM     24  O   UNL     1      -2.950  14.130  21.756  0.00  0.00    +0.000 OA
ATOM     25  C   UNL     1      -3.417  12.881  22.077  0.00  0.00    +0.000 A 
ATOM     26  N   UNL     1      -2.490  11.942  22.046  0.00  0.00    +0.000 NA
ATOM     27  C   UNL     1      -1.343  12.601  21.628  0.00  0.00    +0.000 A 
BRANCH  25  28
ATOM     28  C   UNL     1      -4.825  12.814  22.431  0.00  0.00    +0.000 A 
ATOM     29  C   UNL     1      -5.226  12.985  23.769  0.00  0.00    +0.000 A 
ATOM     30  C   UNL     1      -6.582  12.979  24.118  0.00  0.00    +0.000 A 
ATOM     31  C   UNL     1      -7.558  12.781  23.139  0.00  0.00    +0.000 A 
ATOM     32  C   UNL     1      -7.175  12.579  21.818  0.00  0.00    +0.000 A 
ATOM     33  C   UNL     1      -5.823  12.594  21.474  0.00  0.00    +0.000 A 
ATOM     34  F   UNL     1      -5.505  12.380  20.188  0.00  0.00    +0.000 F 
ENDBRANCH  25  28
ENDBRANCH  21  27
ENDBRANCH   1  21
TORSDOF 5
ENDMDL
MODEL 5
REMARK VINA RESULT:      -9.1      0.826      1.178
REMARK  Name = 
REMARK  6 active torsions:
REMARK  status: ('A' for Active; 'I' for Inactive)
REMARK    1  A    between atoms: C_1  and  C_2
REMARK    2  A    between atoms: C_4  and  C_5
REMARK    3  A    between atoms: C_13  and  C_14
REMARK    4  A    between atoms: C_14  and  N_15
REMARK    5  A    between atoms: C_18  and  C_19
REMARK    6  A    between atoms: N_21  and  C_22
REMARK                            x       y       z     vdW  Elec       q    Type
REMARK                         _______ _______ _______ _____ _____    ______ ____
ROOT
ATOM      1  N   UNL     1       4.315   4.271  19.089  0.00  0.00    +0.000 NA
ATOM      2  C   UNL     1       3.806   4.563  20.440  0.00  0.00    +0.000 C 
ATOM      3  C   UNL     1       2.274   4.675  20.539  0.00  0.00    +0.000 C 
ATOM      4  C   UNL     1       1.631   5.603  19.507  0.00  0.00    +0.000 C 
ATOM      5  C   UNL     1       2.208   5.260  18.119  0.00  0.00    +0.000 C 
ATOM      6  C   UNL     1       3.741   5.192  18.087  0.00  0.00    +0.000 C 
ENDROOT
BRANCH   4   7
ATOM      7  C   UNL     1       1.730   7.113  19.798  0.00  0.00    +0.000 C 
ATOM      8  O   UNL     1       2.466   7.838  19.125  0.00  0.00    +0.000 OA
ATOM      9  N   UNL     1       0.920   7.646  20.804  0.00  0.00    +0.000 N 
ATOM     10  H   UNL     1       0.543   7.032  21.509  0.00  0.00    +0.000 HD
BRANCH   9  11
ATOM     11  C   UNL     1       1.041   9.085  21.107  0.00  0.00    +0.000 C 
ATOM     12  C   UNL     1       1.199   9.296  22.623  0.00  0.00    +0.000 C 
ATOM     13  C   UNL     1      -0.144   9.524  23.307  0.00  0.00    +0.000 C 
ATOM     14  C   UNL     1      -0.732  10.837  22.819  0.00  0.00    +0.000 C 
ATOM     15  C   UNL     1      -0.764  10.913  21.312  0.00  0.00    +0.000 A 
ATOM     16  C   UNL     1      -1.486  11.976  20.736  0.00  0.00    +0.000 A 
ATOM     17  C   UNL     1      -1.500  12.155  19.357  0.00  0.00    +0.000 A 
ATOM     18  C   UNL     1      -0.821  11.254  18.541  0.00  0.00    +0.000 A 
ATOM     19  C   UNL     1      -0.091  10.195  19.105  0.00  0.00    +0.000 A 
ATOM     20  C   UNL     1      -0.016  10.026  20.500  0.00  0.00    +0.000 A 
ENDBRANCH   9  11
ENDBRANCH   4   7
BRANCH   1  21
ATOM     21  C   UNL     1       5.799   4.421  19.053  0.00  0.00    +0.000 C 
BRANCH  21  27
ATOM     22  C   UNL     1       7.851   7.025  18.324  0.00  0.00    +0.000 C 
ATOM     23  C   UNL     1       7.186   5.998  17.505  0.00  0.00    +0.000 A 
ATOM     24  O   UNL     1       7.472   6.019  16.174  0.00  0.00    +0.000 OA
ATOM     25  C   UNL     1       6.770   4.962  15.653  0.00  0.00    +0.000 A 
ATOM     26  N   UNL     1       6.045   4.314  16.546  0.00  0.00    +0.000 NA
ATOM     27  C   UNL     1       6.323   4.950  17.747  0.00  0.00    +0.000 A 
BRANCH  25  28
ATOM     28  C   UNL     1       6.912   4.765  14.221  0.00  0.00    +0.000 A 
ATOM     29  C   UNL     1       7.838   5.532  13.491  0.00  0.00    +0.000 A 
ATOM     30  C   UNL     1       8.026   5.316  12.120  0.00  0.00    +0.000 A 
ATOM     31  C   UNL     1       7.277   4.345  11.452  0.00  0.00    +0.000 A 
ATOM     32  C   UNL     1       6.335   3.601  12.155  0.00  0.00    +0.000 A 
ATOM     33  C   UNL     1       6.157   3.815  13.523  0.00  0.00    +0.000 A 
ATOM     34  F   UNL     1       5.225   3.082  14.151  0.00  0.00    +0.000 F 
ENDBRANCH  25  28
ENDBRANCH  21  27
ENDBRANCH   1  21
TORSDOF 5
ENDMDL
MODEL 6
REMARK VINA RESULT:      -9.1      4.487     11.505
REMARK  Name = 
REMARK  6 active torsions:
REMARK  status: ('A' for Active; 'I' for Inactive)
REMARK    1  A    between atoms: C_1  and  C_2
REMARK    2  A    between atoms: C_4  and  C_5
REMARK    3  A    between atoms: C_13  and  C_14
REMARK    4  A    between atoms: C_14  and  N_15
REMARK    5  A    between atoms: C_18  and  C_19
REMARK    6  A    between atoms: N_21  and  C_22
REMARK                            x       y       z     vdW  Elec       q    Type
REMARK                         _______ _______ _______ _____ _____    ______ ____
ROOT
ATOM      1  N   UNL     1       0.598  11.704  19.679  0.00  0.00    +0.000 NA
ATOM      2  C   UNL     1       1.982  11.627  19.181  0.00  0.00    +0.000 C 
ATOM      3  C   UNL     1       2.133  10.965  17.800  0.00  0.00    +0.000 C 
ATOM      4  C   UNL     1       1.432   9.612  17.658  0.00  0.00    +0.000 C 
ATOM      5  C   UNL     1      -0.003   9.750  18.203  0.00  0.00    +0.000 C 
ATOM      6  C   UNL     1      -0.077  10.393  19.594  0.00  0.00    +0.000 C 
ENDROOT
BRANCH   4   7
ATOM      7  C   UNL     1       2.156   8.404  18.283  0.00  0.00    +0.000 C 
ATOM      8  O   UNL     1       2.061   8.167  19.489  0.00  0.00    +0.000 OA
ATOM      9  N   UNL     1       2.873   7.555  17.437  0.00  0.00    +0.000 N 
ATOM     10  H   UNL     1       3.168   7.893  16.534  0.00  0.00    +0.000 HD
BRANCH   9  11
ATOM     11  C   UNL     1       3.596   6.418  18.039  0.00  0.00    +0.000 C 
ATOM     12  C   UNL     1       5.077   6.452  17.625  0.00  0.00    +0.000 C 
ATOM     13  C   UNL     1       5.335   5.623  16.373  0.00  0.00    +0.000 C 
ATOM     14  C   UNL     1       5.081   4.159  16.686  0.00  0.00    +0.000 C 
ATOM     15  C   UNL     1       3.730   3.946  17.324  0.00  0.00    +0.000 A 
ATOM     16  C   UNL     1       3.283   2.617  17.458  0.00  0.00    +0.000 A 
ATOM     17  C   UNL     1       2.082   2.338  18.103  0.00  0.00    +0.000 A 
ATOM     18  C   UNL     1       1.303   3.385  18.586  0.00  0.00    +0.000 A 
ATOM     19  C   UNL     1       1.742   4.714  18.465  0.00  0.00    +0.000 A 
ATOM     20  C   UNL     1       2.980   5.017  17.867  0.00  0.00    +0.000 A 
ENDBRANCH   9  11
ENDBRANCH   4   7
BRANCH   1  21
ATOM     21  C   UNL     1       0.585  12.135  21.107  0.00  0.00    +0.000 C 
BRANCH  21  27
ATOM     22  C   UNL     1      -0.416   9.928  23.484  0.00  0.00    +0.000 C 
ATOM     23  C   UNL     1      -1.087  11.035  22.780  0.00  0.00    +0.000 A 
ATOM     24  O   UNL     1      -2.361  11.307  23.175  0.00  0.00    +0.000 OA
ATOM     25  C   UNL     1      -2.738  12.379  22.407  0.00  0.00    +0.000 A 
ATOM     26  N   UNL     1      -1.816  12.766  21.545  0.00  0.00    +0.000 NA
ATOM     27  C   UNL     1      -0.738  11.929  21.791  0.00  0.00    +0.000 A 
BRANCH  25  28
ATOM     28  C   UNL     1      -4.084  12.872  22.642  0.00  0.00    +0.000 A 
ATOM     29  C   UNL     1      -5.071  12.735  21.649  0.00  0.00    +0.000 A 
ATOM     30  C   UNL     1      -6.387  13.153  21.882  0.00  0.00    +0.000 A 
ATOM     31  C   UNL     1      -6.733  13.735  23.103  0.00  0.00    +0.000 A 
ATOM     32  C   UNL     1      -5.761  13.906  24.083  0.00  0.00    +0.000 A 
ATOM     33  C   UNL     1      -4.453  13.479  23.849  0.00  0.00    +0.000 A 
ATOM     34  F   UNL     1      -3.550  13.681  24.820  0.00  0.00    +0.000 F 
ENDBRANCH  25  28
ENDBRANCH  21  27
ENDBRANCH   1  21
TORSDOF 5
ENDMDL
MODEL 7
REMARK VINA RESULT:      -9.0      3.780      6.823
REMARK  Name = 
REMARK  6 active torsions:
REMARK  status: ('A' for Active; 'I' for Inactive)
REMARK    1  A    between atoms: C_1  and  C_2
REMARK    2  A    between atoms: C_4  and  C_5
REMARK    3  A    between atoms: C_13  and  C_14
REMARK    4  A    between atoms: C_14  and  N_15
REMARK    5  A    between atoms: C_18  and  C_19
REMARK    6  A    between atoms: N_21  and  C_22
REMARK                            x       y       z     vdW  Elec       q    Type
REMARK                         _______ _______ _______ _____ _____    ______ ____
ROOT
ATOM      1  N   UNL     1       0.770  11.161  20.100  0.00  0.00    +0.000 NA
ATOM      2  C   UNL     1       0.822  12.563  19.650  0.00  0.00    +0.000 C 
ATOM      3  C   UNL     1       0.691  13.604  20.776  0.00  0.00    +0.000 C 
ATOM      4  C   UNL     1      -0.493  13.383  21.719  0.00  0.00    +0.000 C 
ATOM      5  C   UNL     1      -0.503  11.902  22.146  0.00  0.00    +0.000 C 
ATOM      6  C   UNL     1      -0.397  10.920  20.972  0.00  0.00    +0.000 C 
ENDROOT
BRANCH   4   7
ATOM      7  C   UNL     1      -1.872  13.824  21.191  0.00  0.00    +0.000 C 
ATOM      8  O   UNL     1      -1.999  14.873  20.556  0.00  0.00    +0.000 OA
ATOM      9  N   UNL     1      -2.960  12.974  21.401  0.00  0.00    +0.000 N 
ATOM     10  H   UNL     1      -2.911  12.281  22.132  0.00  0.00    +0.000 HD
BRANCH   9  11
ATOM     11  C   UNL     1      -4.288  13.412  20.928  0.00  0.00    +0.000 C 
ATOM     12  C   UNL     1      -5.092  14.020  22.091  0.00  0.00    +0.000 C 
ATOM     13  C   UNL     1      -5.963  12.979  22.783  0.00  0.00    +0.000 C 
ATOM     14  C   UNL     1      -7.033  12.505  21.815  0.00  0.00    +0.000 C 
ATOM     15  C   UNL     1      -6.443  12.066  20.496  0.00  0.00    +0.000 A 
ATOM     16  C   UNL     1      -7.298  11.398  19.598  0.00  0.00    +0.000 A 
ATOM     17  C   UNL     1      -6.847  11.030  18.335  0.00  0.00    +0.000 A 
ATOM     18  C   UNL     1      -5.529  11.294  17.972  0.00  0.00    +0.000 A 
ATOM     19  C   UNL     1      -4.669  11.966  18.857  0.00  0.00    +0.000 A 
ATOM     20  C   UNL     1      -5.119  12.399  20.119  0.00  0.00    +0.000 A 
ENDBRANCH   9  11
ENDBRANCH   4   7
BRANCH   1  21
ATOM     21  C   UNL     1       0.663  10.246  18.926  0.00  0.00    +0.000 C 
BRANCH  21  27
ATOM     22  C   UNL     1       1.244   8.140  21.525  0.00  0.00    +0.000 C 
ATOM     23  C   UNL     1       1.687   8.164  20.120  0.00  0.00    +0.000 A 
ATOM     24  O   UNL     1       2.440   7.105  19.714  0.00  0.00    +0.000 OA
ATOM     25  C   UNL     1       2.686   7.346  18.386  0.00  0.00    +0.000 A 
ATOM     26  N   UNL     1       2.178   8.483  17.949  0.00  0.00    +0.000 NA
ATOM     27  C   UNL     1       1.508   9.008  19.045  0.00  0.00    +0.000 A 
BRANCH  25  28
ATOM     28  C   UNL     1       3.487   6.341  17.709  0.00  0.00    +0.000 A 
ATOM     29  C   UNL     1       4.680   6.707  17.060  0.00  0.00    +0.000 A 
ATOM     30  C   UNL     1       5.492   5.742  16.451  0.00  0.00    +0.000 A 
ATOM     31  C   UNL     1       5.114   4.398  16.462  0.00  0.00    +0.000 A 
ATOM     32  C   UNL     1       3.921   4.025  17.072  0.00  0.00    +0.000 A 
ATOM     33  C   UNL     1       3.120   4.989  17.685  0.00  0.00    +0.000 A 
ATOM     34  F   UNL     1       1.972   4.580  18.246  0.00  0.00    +0.000 F 
ENDBRANCH  25  28
ENDBRANCH  21  27
ENDBRANCH   1  21
TORSDOF 5
ENDMDL
MODEL 8
REMARK VINA RESULT:      -9.0      4.614      7.908
REMARK  Name = 
REMARK  6 active torsions:
REMARK  status: ('A' for Active; 'I' for Inactive)
REMARK    1  A    between atoms: C_1  and  C_2
REMARK    2  A    between atoms: C_4  and  C_5
REMARK    3  A    between atoms: C_13  and  C_14
REMARK    4  A    between atoms: C_14  and  N_15
REMARK    5  A    between atoms: C_18  and  C_19
REMARK    6  A    between atoms: N_21  and  C_22
REMARK                            x       y       z     vdW  Elec       q    Type
REMARK                         _______ _______ _______ _____ _____    ______ ____
ROOT
ATOM      1  N   UNL     1      -0.350  10.516  21.180  0.00  0.00    +0.000 NA
ATOM      2  C   UNL     1      -0.715  11.224  22.419  0.00  0.00    +0.000 C 
ATOM      3  C   UNL     1      -2.093  11.908  22.387  0.00  0.00    +0.000 C 
ATOM      4  C   UNL     1      -2.340  12.796  21.166  0.00  0.00    +0.000 C 
ATOM      5  C   UNL     1      -1.932  12.009  19.904  0.00  0.00    +0.000 C 
ATOM      6  C   UNL     1      -0.537  11.377  19.995  0.00  0.00    +0.000 C 
ENDROOT
BRANCH   4   7
ATOM      7  C   UNL     1      -1.683  14.189  21.195  0.00  0.00    +0.000 C 
ATOM      8  O   UNL     1      -1.186  14.630  22.233  0.00  0.00    +0.000 OA
ATOM      9  N   UNL     1      -1.614  14.910  20.000  0.00  0.00    +0.000 N 
ATOM     10  H   UNL     1      -2.242  14.677  19.247  0.00  0.00    +0.000 HD
BRANCH   9  11
ATOM     11  C   UNL     1      -1.017  16.259  20.034  0.00  0.00    +0.000 C 
ATOM     12  C   UNL     1      -2.112  17.319  20.251  0.00  0.00    +0.000 C 
ATOM     13  C   UNL     1      -2.643  17.864  18.931  0.00  0.00    +0.000 C 
ATOM     14  C   UNL     1      -1.534  18.629  18.229  0.00  0.00    +0.000 C 
ATOM     15  C   UNL     1      -0.269  17.812  18.119  0.00  0.00    +0.000 A 
ATOM     16  C   UNL     1       0.755  18.320  17.297  0.00  0.00    +0.000 A 
ATOM     17  C   UNL     1       1.977  17.661  17.203  0.00  0.00    +0.000 A 
ATOM     18  C   UNL     1       2.172  16.474  17.903  0.00  0.00    +0.000 A 
ATOM     19  C   UNL     1       1.159  15.962  18.732  0.00  0.00    +0.000 A 
ATOM     20  C   UNL     1      -0.065  16.640  18.886  0.00  0.00    +0.000 A 
ENDBRANCH   9  11
ENDBRANCH   4   7
BRANCH   1  21
ATOM     21  C   UNL     1       1.082  10.100  21.225  0.00  0.00    +0.000 C 
BRANCH  21  27
ATOM     22  C   UNL     1       1.913   9.581  17.975  0.00  0.00    +0.000 C 
ATOM     23  C   UNL     1       1.739   8.687  19.133  0.00  0.00    +0.000 A 
ATOM     24  O   UNL     1       2.020   7.373  18.918  0.00  0.00    +0.000 OA
ATOM     25  C   UNL     1       1.819   6.774  20.136  0.00  0.00    +0.000 A 
ATOM     26  N   UNL     1       1.402   7.604  21.074  0.00  0.00    +0.000 NA
ATOM     27  C   UNL     1       1.372   8.844  20.452  0.00  0.00    +0.000 A 
BRANCH  25  28
ATOM     28  C   UNL     1       2.058   5.342  20.173  0.00  0.00    +0.000 A 
ATOM     29  C   UNL     1       0.995   4.454  20.421  0.00  0.00    +0.000 A 
ATOM     30  C   UNL     1       1.198   3.068  20.405  0.00  0.00    +0.000 A 
ATOM     31  C   UNL     1       2.470   2.548  20.161  0.00  0.00    +0.000 A 
ATOM     32  C   UNL     1       3.537   3.414  19.945  0.00  0.00    +0.000 A 
ATOM     33  C   UNL     1       3.328   4.793  19.954  0.00  0.00    +0.000 A 
ATOM     34  F   UNL     1       4.393   5.586  19.756  0.00  0.00    +0.000 F 
ENDBRANCH  25  28
ENDBRANCH  21  27
ENDBRANCH   1  21
TORSDOF 5
ENDMDL
MODEL 9
REMARK VINA RESULT:      -8.9      3.372      5.937
REMARK  Name = 
REMARK  6 active torsions:
REMARK  status: ('A' for Active; 'I' for Inactive)
REMARK    1  A    between atoms: C_1  and  C_2
REMARK    2  A    between atoms: C_4  and  C_5
REMARK    3  A    between atoms: C_13  and  C_14
REMARK    4  A    between atoms: C_14  and  N_15
REMARK    5  A    between atoms: C_18  and  C_19
REMARK    6  A    between atoms: N_21  and  C_22
REMARK                            x       y       z     vdW  Elec       q    Type
REMARK                         _______ _______ _______ _____ _____    ______ ____
ROOT
ATOM      1  N   UNL     1       1.159   9.888  19.887  0.00  0.00    +0.000 NA
ATOM      2  C   UNL     1       1.408  11.307  19.584  0.00  0.00    +0.000 C 
ATOM      3  C   UNL     1       1.131  12.273  20.750  0.00  0.00    +0.000 C 
ATOM      4  C   UNL     1      -0.233  12.095  21.419  0.00  0.00    +0.000 C 
ATOM      5  C   UNL     1      -0.442  10.594  21.702  0.00  0.00    +0.000 C 
ATOM      6  C   UNL     1      -0.175   9.693  20.489  0.00  0.00    +0.000 C 
ENDROOT
BRANCH   4   7
ATOM      7  C   UNL     1      -1.438  12.698  20.673  0.00  0.00    +0.000 C 
ATOM      8  O   UNL     1      -1.316  13.137  19.528  0.00  0.00    +0.000 OA
ATOM      9  N   UNL     1      -2.683  12.680  21.308  0.00  0.00    +0.000 N 
ATOM     10  H   UNL     1      -2.723  12.581  22.310  0.00  0.00    +0.000 HD
BRANCH   9  11
ATOM     11  C   UNL     1      -3.830  13.290  20.609  0.00  0.00    +0.000 C 
ATOM     12  C   UNL     1      -4.557  14.275  21.542  0.00  0.00    +0.000 C 
ATOM     13  C   UNL     1      -5.698  13.603  22.296  0.00  0.00    +0.000 C 
ATOM     14  C   UNL     1      -6.771  13.187  21.304  0.00  0.00    +0.000 C 
ATOM     15  C   UNL     1      -6.200  12.380  20.163  0.00  0.00    +0.000 A 
ATOM     16  C   UNL     1      -7.115  11.748  19.300  0.00  0.00    +0.000 A 
ATOM     17  C   UNL     1      -6.666  11.049  18.184  0.00  0.00    +0.000 A 
ATOM     18  C   UNL     1      -5.299  10.947  17.942  0.00  0.00    +0.000 A 
ATOM     19  C   UNL     1      -4.377  11.580  18.793  0.00  0.00    +0.000 A 
ATOM     20  C   UNL     1      -4.810  12.340  19.896  0.00  0.00    +0.000 A 
ENDBRANCH   9  11
ENDBRANCH   4   7
BRANCH   1  21
ATOM     21  C   UNL     1       1.223   9.073  18.638  0.00  0.00    +0.000 C 
BRANCH  21  27
ATOM     22  C   UNL     1       1.532   6.395  20.702  0.00  0.00    +0.000 C 
ATOM     23  C   UNL     1       2.296   6.871  19.535  0.00  0.00    +0.000 A 
ATOM     24  O   UNL     1       3.313   6.067  19.121  0.00  0.00    +0.000 OA
ATOM     25  C   UNL     1       3.829   6.703  18.021  0.00  0.00    +0.000 A 
ATOM     26  N   UNL     1       3.239   7.851  17.744  0.00  0.00    +0.000 NA
ATOM     27  C   UNL     1       2.232   7.960  18.693  0.00  0.00    +0.000 A 
BRANCH  25  28
ATOM     28  C   UNL     1       4.949   6.033  17.381  0.00  0.00    +0.000 A 
ATOM     29  C   UNL     1       4.975   5.878  15.983  0.00  0.00    +0.000 A 
ATOM     30  C   UNL     1       6.073   5.285  15.347  0.00  0.00    +0.000 A 
ATOM     31  C   UNL     1       7.152   4.817  16.099  0.00  0.00    +0.000 A 
ATOM     32  C   UNL     1       7.126   4.935  17.485  0.00  0.00    +0.000 A 
ATOM     33  C   UNL     1       6.034   5.535  18.113  0.00  0.00    +0.000 A 
ATOM     34  F   UNL     1       6.050   5.610  19.453  0.00  0.00    +0.000 F 
ENDBRANCH  25  28
ENDBRANCH  21  27
ENDBRANCH   1  21
TORSDOF 5
ENDMDL
