MODEL 1
REMARK VINA RESULT:      -7.6      0.000      0.000
REMARK  Name = 
REMARK  8 active torsions:
REMARK  status: ('A' for Active; 'I' for Inactive)
REMARK    1  A    between atoms: C_1  and  C_2
REMARK    2  A    between atoms: C_2  and  C_3
REMARK    3  A    between atoms: C_2  and  O_4
REMARK    4  A    between atoms: O_4  and  N_5
REMARK    5  A    between atoms: C_6  and  C_7
REMARK    6  A    between atoms: C_6  and  C_21
REMARK    7  A    between atoms: C_7  and  C_8
REMARK    8  A    between atoms: C_8  and  N_9
REMARK                            x       y       z     vdW  Elec       q    Type
REMARK                         _______ _______ _______ _____ _____    ______ ____
ROOT
ATOM      1  C   UNL     1       4.109   5.679  20.078  0.00  0.00    +0.000 C 
ENDROOT
BRANCH   1   3
ATOM      2  N   UNL     1       1.829   4.917  19.355  0.00  0.00    +0.000 NA
ATOM      3  C   UNL     1       2.668   5.885  19.597  0.00  0.00    +0.000 C 
BRANCH   3   4
ATOM      4  C   UNL     1       2.189   7.286  19.371  0.00  0.00    +0.000 A 
ATOM      5  C   UNL     1       1.552   8.021  20.377  0.00  0.00    +0.000 A 
ATOM      6  C   UNL     1       1.050   9.298  20.117  0.00  0.00    +0.000 A 
ATOM      7  C   UNL     1       1.201   9.865  18.853  0.00  0.00    +0.000 A 
ATOM      8  C   UNL     1       1.861   9.159  17.850  0.00  0.00    +0.000 A 
ATOM      9  C   UNL     1       2.349   7.873  18.104  0.00  0.00    +0.000 A 
ENDBRANCH   3   4
BRANCH   2  10
ATOM     10  O   UNL     1       2.387   3.655  19.591  0.00  0.00    +0.000 OA
BRANCH  10  12
ATOM     11  C   UNL     1       3.157   1.728  18.417  0.00  0.00    +0.000 C 
ATOM     12  C   UNL     1       2.062   2.783  18.500  0.00  0.00    +0.000 C 
ATOM     13  C   UNL     1       0.706   2.136  18.751  0.00  0.00    +0.000 C 
ENDBRANCH  10  12
ENDBRANCH   2  10
ENDBRANCH   1   3
BRANCH   1  14
ATOM     14  C   UNL     1       4.980   4.929  19.051  0.00  0.00    +0.000 C 
BRANCH  14  15
ATOM     15  N   UNL     1       5.174   5.670  17.789  0.00  0.00    +0.000 NA
ATOM     16  C   UNL     1       6.575   5.768  17.317  0.00  0.00    +0.000 C 
ATOM     17  C   UNL     1       7.148   4.491  16.668  0.00  0.00    +0.000 C 
ATOM     18  N   UNL     1       6.312   4.001  15.567  0.00  0.00    +0.000 N 
ATOM     19  C   UNL     1       6.695   4.357  14.272  0.00  0.00    +0.000 A 
ATOM     20  C   UNL     1       6.266   3.592  13.185  0.00  0.00    +0.000 A 
ATOM     21  C   UNL     1       6.764   3.844  11.904  0.00  0.00    +0.000 A 
ATOM     22  C   UNL     1       7.671   4.873  11.720  0.00  0.00    +0.000 A 
ATOM     23  C   UNL     1       8.038   5.603  12.832  0.00  0.00    +0.000 A 
ATOM     24  N   UNL     1       7.583   5.357  14.085  0.00  0.00    +0.000 NA
ATOM     25  C   UNL     1       4.877   3.909  15.891  0.00  0.00    +0.000 C 
ATOM     26  C   UNL     1       4.345   5.141  16.680  0.00  0.00    +0.000 C 
ENDBRANCH  14  15
ENDBRANCH   1  14
TORSDOF 6
ENDMDL
MODEL 2
REMARK VINA RESULT:      -7.5      1.064      1.746
REMARK  Name = 
REMARK  8 active torsions:
REMARK  status: ('A' for Active; 'I' for Inactive)
REMARK    1  A    between atoms: C_1  and  C_2
REMARK    2  A    between atoms: C_2  and  C_3
REMARK    3  A    between atoms: C_2  and  O_4
REMARK    4  A    between atoms: O_4  and  N_5
REMARK    5  A    between atoms: C_6  and  C_7
REMARK    6  A    between atoms: C_6  and  C_21
REMARK    7  A    between atoms: C_7  and  C_8
REMARK    8  A    between atoms: C_8  and  N_9
REMARK                            x       y       z     vdW  Elec       q    Type
REMARK                         _______ _______ _______ _____ _____    ______ ____
ROOT
ATOM      1  C   UNL     1       4.424   5.070  19.952  0.00  0.00    +0.000 C 
ENDROOT
BRANCH   1   3
ATOM      2  N   UNL     1       2.174   4.351  19.101  0.00  0.00    +0.000 NA
ATOM      3  C   UNL     1       3.006   5.303  19.418  0.00  0.00    +0.000 C 
BRANCH   3   4
ATOM      4  C   UNL     1       2.542   6.715  19.230  0.00  0.00    +0.000 A 
ATOM      5  C   UNL     1       1.904   7.427  20.252  0.00  0.00    +0.000 A 
ATOM      6  C   UNL     1       1.416   8.716  20.025  0.00  0.00    +0.000 A 
ATOM      7  C   UNL     1       1.583   9.318  18.780  0.00  0.00    +0.000 A 
ATOM      8  C   UNL     1       2.245   8.636  17.762  0.00  0.00    +0.000 A 
ATOM      9  C   UNL     1       2.719   7.337  17.981  0.00  0.00    +0.000 A 
ENDBRANCH   3   4
BRANCH   2  10
ATOM     10  O   UNL     1       2.717   3.077  19.308  0.00  0.00    +0.000 OA
BRANCH  10  12
ATOM     11  C   UNL     1       1.365   2.672  21.230  0.00  0.00    +0.000 C 
ATOM     12  C   UNL     1       1.698   2.206  19.818  0.00  0.00    +0.000 C 
ATOM     13  C   UNL     1       0.469   2.278  18.921  0.00  0.00    +0.000 C 
ENDBRANCH  10  12
ENDBRANCH   2  10
ENDBRANCH   1   3
BRANCH   1  14
ATOM     14  C   UNL     1       5.516   5.484  18.946  0.00  0.00    +0.000 C 
BRANCH  14  15
ATOM     15  N   UNL     1       5.866   4.422  17.984  0.00  0.00    +0.000 NA
ATOM     16  C   UNL     1       4.889   4.203  16.892  0.00  0.00    +0.000 C 
ATOM     17  C   UNL     1       4.912   5.251  15.760  0.00  0.00    +0.000 C 
ATOM     18  N   UNL     1       6.248   5.409  15.173  0.00  0.00    +0.000 N 
ATOM     19  C   UNL     1       6.510   4.707  13.995  0.00  0.00    +0.000 A 
ATOM     20  C   UNL     1       7.532   5.135  13.144  0.00  0.00    +0.000 A 
ATOM     21  C   UNL     1       7.705   4.538  11.892  0.00  0.00    +0.000 A 
ATOM     22  C   UNL     1       6.867   3.504  11.514  0.00  0.00    +0.000 A 
ATOM     23  C   UNL     1       5.891   3.116  12.409  0.00  0.00    +0.000 A 
ATOM     24  N   UNL     1       5.695   3.700  13.617  0.00  0.00    +0.000 NA
ATOM     25  C   UNL     1       7.328   5.579  16.163  0.00  0.00    +0.000 C 
ATOM     26  C   UNL     1       7.206   4.614  17.378  0.00  0.00    +0.000 C 
ENDBRANCH  14  15
ENDBRANCH   1  14
TORSDOF 6
ENDMDL
MODEL 3
REMARK VINA RESULT:      -7.4      1.664      4.209
REMARK  Name = 
REMARK  8 active torsions:
REMARK  status: ('A' for Active; 'I' for Inactive)
REMARK    1  A    between atoms: C_1  and  C_2
REMARK    2  A    between atoms: C_2  and  C_3
REMARK    3  A    between atoms: C_2  and  O_4
REMARK    4  A    between atoms: O_4  and  N_5
REMARK    5  A    between atoms: C_6  and  C_7
REMARK    6  A    between atoms: C_6  and  C_21
REMARK    7  A    between atoms: C_7  and  C_8
REMARK    8  A    between atoms: C_8  and  N_9
REMARK                            x       y       z     vdW  Elec       q    Type
REMARK                         _______ _______ _______ _____ _____    ______ ____
ROOT
ATOM      1  C   UNL     1       3.817   6.272  18.645  0.00  0.00    +0.000 C 
ENDROOT
BRANCH   1   3
ATOM      2  N   UNL     1       1.825   7.245  19.822  0.00  0.00    +0.000 NA
ATOM      3  C   UNL     1       2.537   6.207  19.485  0.00  0.00    +0.000 C 
BRANCH   3   4
ATOM      4  C   UNL     1       2.073   4.867  19.969  0.00  0.00    +0.000 A 
ATOM      5  C   UNL     1       2.253   4.455  21.294  0.00  0.00    +0.000 A 
ATOM      6  C   UNL     1       1.877   3.171  21.698  0.00  0.00    +0.000 A 
ATOM      7  C   UNL     1       1.293   2.295  20.787  0.00  0.00    +0.000 A 
ATOM      8  C   UNL     1       1.076   2.700  19.473  0.00  0.00    +0.000 A 
ATOM      9  C   UNL     1       1.468   3.979  19.061  0.00  0.00    +0.000 A 
ENDBRANCH   3   4
BRANCH   2  10
ATOM     10  O   UNL     1       2.357   8.441  19.325  0.00  0.00    +0.000 OA
BRANCH  10  12
ATOM     11  C   UNL     1       0.474   9.723  20.027  0.00  0.00    +0.000 C 
ATOM     12  C   UNL     1       1.292   9.261  18.827  0.00  0.00    +0.000 C 
ATOM     13  C   UNL     1       1.872  10.454  18.078  0.00  0.00    +0.000 C 
ENDBRANCH  10  12
ENDBRANCH   2  10
ENDBRANCH   1   3
BRANCH   1  14
ATOM     14  C   UNL     1       4.940   5.372  19.197  0.00  0.00    +0.000 C 
BRANCH  14  15
ATOM     15  N   UNL     1       5.427   4.373  18.227  0.00  0.00    +0.000 NA
ATOM     16  C   UNL     1       4.574   4.175  17.032  0.00  0.00    +0.000 C 
ATOM     17  C   UNL     1       4.667   5.280  15.959  0.00  0.00    +0.000 C 
ATOM     18  N   UNL     1       6.047   5.516  15.519  0.00  0.00    +0.000 N 
ATOM     19  C   UNL     1       6.454   4.885  14.342  0.00  0.00    +0.000 A 
ATOM     20  C   UNL     1       7.537   5.393  13.620  0.00  0.00    +0.000 A 
ATOM     21  C   UNL     1       7.859   4.866  12.366  0.00  0.00    +0.000 A 
ATOM     22  C   UNL     1       7.105   3.823  11.855  0.00  0.00    +0.000 A 
ATOM     23  C   UNL     1       6.062   3.356  12.628  0.00  0.00    +0.000 A 
ATOM     24  N   UNL     1       5.722   3.869  13.836  0.00  0.00    +0.000 NA
ATOM     25  C   UNL     1       7.015   5.674  16.620  0.00  0.00    +0.000 C 
ATOM     26  C   UNL     1       6.812   4.644  17.770  0.00  0.00    +0.000 C 
ENDBRANCH  14  15
ENDBRANCH   1  14
TORSDOF 6
ENDMDL
MODEL 4
REMARK VINA RESULT:      -7.4      1.313      4.007
REMARK  Name = 
REMARK  8 active torsions:
REMARK  status: ('A' for Active; 'I' for Inactive)
REMARK    1  A    between atoms: C_1  and  C_2
REMARK    2  A    between atoms: C_2  and  C_3
REMARK    3  A    between atoms: C_2  and  O_4
REMARK    4  A    between atoms: O_4  and  N_5
REMARK    5  A    between atoms: C_6  and  C_7
REMARK    6  A    between atoms: C_6  and  C_21
REMARK    7  A    between atoms: C_7  and  C_8
REMARK    8  A    between atoms: C_8  and  N_9
REMARK                            x       y       z     vdW  Elec       q    Type
REMARK                         _______ _______ _______ _____ _____    ______ ____
ROOT
ATOM      1  C   UNL     1       3.950   6.225  19.909  0.00  0.00    +0.000 C 
ENDROOT
BRANCH   1   3
ATOM      2  N   UNL     1       1.786   6.898  18.830  0.00  0.00    +0.000 NA
ATOM      3  C   UNL     1       2.536   5.980  19.370  0.00  0.00    +0.000 C 
BRANCH   3   4
ATOM      4  C   UNL     1       1.965   4.599  19.479  0.00  0.00    +0.000 A 
ATOM      5  C   UNL     1       1.608   3.855  18.349  0.00  0.00    +0.000 A 
ATOM      6  C   UNL     1       1.009   2.599  18.483  0.00  0.00    +0.000 A 
ATOM      7  C   UNL     1       0.785   2.064  19.749  0.00  0.00    +0.000 A 
ATOM      8  C   UNL     1       1.164   2.778  20.883  0.00  0.00    +0.000 A 
ATOM      9  C   UNL     1       1.748   4.043  20.752  0.00  0.00    +0.000 A 
ENDBRANCH   3   4
BRANCH   2  10
ATOM     10  O   UNL     1       2.417   8.148  18.790  0.00  0.00    +0.000 OA
BRANCH  10  12
ATOM     11  C   UNL     1       0.836   9.474  19.985  0.00  0.00    +0.000 C 
ATOM     12  C   UNL     1       1.428   9.171  18.614  0.00  0.00    +0.000 C 
ATOM     13  C   UNL     1       2.080  10.414  18.021  0.00  0.00    +0.000 C 
ENDBRANCH  10  12
ENDBRANCH   2  10
ENDBRANCH   1   3
BRANCH   1  14
ATOM     14  C   UNL     1       5.036   5.506  19.085  0.00  0.00    +0.000 C 
BRANCH  14  15
ATOM     15  N   UNL     1       5.289   6.128  17.771  0.00  0.00    +0.000 NA
ATOM     16  C   UNL     1       6.685   6.046  17.284  0.00  0.00    +0.000 C 
ATOM     17  C   UNL     1       7.115   4.672  16.728  0.00  0.00    +0.000 C 
ATOM     18  N   UNL     1       6.218   4.192  15.671  0.00  0.00    +0.000 N 
ATOM     19  C   UNL     1       6.618   4.411  14.352  0.00  0.00    +0.000 A 
ATOM     20  C   UNL     1       6.098   3.617  13.327  0.00  0.00    +0.000 A 
ATOM     21  C   UNL     1       6.602   3.721  12.027  0.00  0.00    +0.000 A 
ATOM     22  C   UNL     1       7.608   4.634  11.762  0.00  0.00    +0.000 A 
ATOM     23  C   UNL     1       8.063   5.401  12.815  0.00  0.00    +0.000 A 
ATOM     24  N   UNL     1       7.602   5.297  14.085  0.00  0.00    +0.000 NA
ATOM     25  C   UNL     1       4.785   4.274  16.010  0.00  0.00    +0.000 C 
ATOM     26  C   UNL     1       4.394   5.609  16.708  0.00  0.00    +0.000 C 
ENDBRANCH  14  15
ENDBRANCH   1  14
TORSDOF 6
ENDMDL
MODEL 5
REMARK VINA RESULT:      -7.3      1.656      4.181
REMARK  Name = 
REMARK  8 active torsions:
REMARK  status: ('A' for Active; 'I' for Inactive)
REMARK    1  A    between atoms: C_1  and  C_2
REMARK    2  A    between atoms: C_2  and  C_3
REMARK    3  A    between atoms: C_2  and  O_4
REMARK    4  A    between atoms: O_4  and  N_5
REMARK    5  A    between atoms: C_6  and  C_7
REMARK    6  A    between atoms: C_6  and  C_21
REMARK    7  A    between atoms: C_7  and  C_8
REMARK    8  A    between atoms: C_8  and  N_9
REMARK                            x       y       z     vdW  Elec       q    Type
REMARK                         _______ _______ _______ _____ _____    ______ ____
ROOT
ATOM      1  C   UNL     1       3.989   6.276  18.679  0.00  0.00    +0.000 C 
ENDROOT
BRANCH   1   3
ATOM      2  N   UNL     1       1.839   7.211  19.577  0.00  0.00    +0.000 NA
ATOM      3  C   UNL     1       2.626   6.192  19.376  0.00  0.00    +0.000 C 
BRANCH   3   4
ATOM      4  C   UNL     1       2.166   4.857  19.876  0.00  0.00    +0.000 A 
ATOM      5  C   UNL     1       1.514   3.940  19.044  0.00  0.00    +0.000 A 
ATOM      6  C   UNL     1       1.030   2.733  19.555  0.00  0.00    +0.000 A 
ATOM      7  C   UNL     1       1.216   2.419  20.899  0.00  0.00    +0.000 A 
ATOM      8  C   UNL     1       1.892   3.305  21.733  0.00  0.00    +0.000 A 
ATOM      9  C   UNL     1       2.362   4.523  21.227  0.00  0.00    +0.000 A 
ENDBRANCH   3   4
BRANCH   2  10
ATOM     10  O   UNL     1       2.374   8.405  19.078  0.00  0.00    +0.000 OA
BRANCH  10  12
ATOM     11  C   UNL     1       0.592   9.642  18.089  0.00  0.00    +0.000 C 
ATOM     12  C   UNL     1       1.456   9.477  19.332  0.00  0.00    +0.000 C 
ATOM     13  C   UNL     1       0.600   9.139  20.546  0.00  0.00    +0.000 C 
ENDBRANCH  10  12
ENDBRANCH   2  10
ENDBRANCH   1   3
BRANCH   1  14
ATOM     14  C   UNL     1       5.018   5.287  19.260  0.00  0.00    +0.000 C 
BRANCH  14  15
ATOM     15  N   UNL     1       5.521   4.311  18.273  0.00  0.00    +0.000 NA
ATOM     16  C   UNL     1       4.657   4.098  17.089  0.00  0.00    +0.000 C 
ATOM     17  C   UNL     1       4.702   5.214  16.025  0.00  0.00    +0.000 C 
ATOM     18  N   UNL     1       6.068   5.496  15.568  0.00  0.00    +0.000 N 
ATOM     19  C   UNL     1       6.477   4.887  14.380  0.00  0.00    +0.000 A 
ATOM     20  C   UNL     1       7.534   5.433  13.647  0.00  0.00    +0.000 A 
ATOM     21  C   UNL     1       7.853   4.928  12.384  0.00  0.00    +0.000 A 
ATOM     22  C   UNL     1       7.124   3.867  11.875  0.00  0.00    +0.000 A 
ATOM     23  C   UNL     1       6.106   3.362  12.658  0.00  0.00    +0.000 A 
ATOM     24  N   UNL     1       5.769   3.854  13.874  0.00  0.00    +0.000 NA
ATOM     25  C   UNL     1       7.046   5.673  16.657  0.00  0.00    +0.000 C 
ATOM     26  C   UNL     1       6.890   4.628  17.799  0.00  0.00    +0.000 C 
ENDBRANCH  14  15
ENDBRANCH   1  14
TORSDOF 6
ENDMDL
MODEL 6
REMARK VINA RESULT:      -7.3      3.120      8.691
REMARK  Name = 
REMARK  8 active torsions:
REMARK  status: ('A' for Active; 'I' for Inactive)
REMARK    1  A    between atoms: C_1  and  C_2
REMARK    2  A    between atoms: C_2  and  C_3
REMARK    3  A    between atoms: C_2  and  O_4
REMARK    4  A    between atoms: O_4  and  N_5
REMARK    5  A    between atoms: C_6  and  C_7
REMARK    6  A    between atoms: C_6  and  C_21
REMARK    7  A    between atoms: C_7  and  C_8
REMARK    8  A    between atoms: C_8  and  N_9
REMARK                            x       y       z     vdW  Elec       q    Type
REMARK                         _______ _______ _______ _____ _____    ______ ____
ROOT
ATOM      1  C   UNL     1       2.985   7.052  17.571  0.00  0.00    +0.000 C 
ENDROOT
BRANCH   1   3
ATOM      2  N   UNL     1       4.773   5.473  18.352  0.00  0.00    +0.000 NA
ATOM      3  C   UNL     1       3.512   5.790  18.265  0.00  0.00    +0.000 C 
BRANCH   3   4
ATOM      4  C   UNL     1       2.519   4.847  18.871  0.00  0.00    +0.000 A 
ATOM      5  C   UNL     1       2.222   4.865  20.238  0.00  0.00    +0.000 A 
ATOM      6  C   UNL     1       1.347   3.925  20.789  0.00  0.00    +0.000 A 
ATOM      7  C   UNL     1       0.741   2.972  19.973  0.00  0.00    +0.000 A 
ATOM      8  C   UNL     1       1.001   2.962  18.606  0.00  0.00    +0.000 A 
ATOM      9  C   UNL     1       1.890   3.891  18.055  0.00  0.00    +0.000 A 
ENDBRANCH   3   4
BRANCH   2  10
ATOM     10  O   UNL     1       5.606   6.420  17.744  0.00  0.00    +0.000 OA
BRANCH  10  12
ATOM     11  C   UNL     1       7.465   4.931  17.639  0.00  0.00    +0.000 C 
ATOM     12  C   UNL     1       6.948   6.242  18.217  0.00  0.00    +0.000 C 
ATOM     13  C   UNL     1       7.810   7.411  17.758  0.00  0.00    +0.000 C 
ENDBRANCH  10  12
ENDBRANCH   2  10
ENDBRANCH   1   3
BRANCH   1  14
ATOM     14  C   UNL     1       1.744   7.642  18.269  0.00  0.00    +0.000 C 
BRANCH  14  15
ATOM     15  N   UNL     1       2.048   8.797  19.137  0.00  0.00    +0.000 NA
ATOM     16  C   UNL     1       1.439  10.082  18.725  0.00  0.00    +0.000 C 
ATOM     17  C   UNL     1      -0.065  10.233  19.033  0.00  0.00    +0.000 C 
ATOM     18  N   UNL     1      -0.371   9.998  20.449  0.00  0.00    +0.000 N 
ATOM     19  C   UNL     1      -0.493  11.123  21.267  0.00  0.00    +0.000 A 
ATOM     20  C   UNL     1      -1.211  11.038  22.462  0.00  0.00    +0.000 A 
ATOM     21  C   UNL     1      -1.470  12.189  23.213  0.00  0.00    +0.000 A 
ATOM     22  C   UNL     1      -0.990  13.409  22.770  0.00  0.00    +0.000 A 
ATOM     23  C   UNL     1      -0.272  13.420  21.591  0.00  0.00    +0.000 A 
ATOM     24  N   UNL     1      -0.030  12.318  20.840  0.00  0.00    +0.000 NA
ATOM     25  C   UNL     1       0.228   8.770  21.002  0.00  0.00    +0.000 C 
ATOM     26  C   UNL     1       1.704   8.553  20.559  0.00  0.00    +0.000 C 
ENDBRANCH  14  15
ENDBRANCH   1  14
TORSDOF 6
ENDMDL
MODEL 7
REMARK VINA RESULT:      -7.3      3.366      9.104
REMARK  Name = 
REMARK  8 active torsions:
REMARK  status: ('A' for Active; 'I' for Inactive)
REMARK    1  A    between atoms: C_1  and  C_2
REMARK    2  A    between atoms: C_2  and  C_3
REMARK    3  A    between atoms: C_2  and  O_4
REMARK    4  A    between atoms: O_4  and  N_5
REMARK    5  A    between atoms: C_6  and  C_7
REMARK    6  A    between atoms: C_6  and  C_21
REMARK    7  A    between atoms: C_7  and  C_8
REMARK    8  A    between atoms: C_8  and  N_9
REMARK                            x       y       z     vdW  Elec       q    Type
REMARK                         _______ _______ _______ _____ _____    ______ ____
ROOT
ATOM      1  C   UNL     1       2.493   7.436  18.020  0.00  0.00    +0.000 C 
ENDROOT
BRANCH   1   3
ATOM      2  N   UNL     1       4.382   5.783  17.980  0.00  0.00    +0.000 NA
ATOM      3  C   UNL     1       3.139   6.064  18.250  0.00  0.00    +0.000 C 
BRANCH   3   4
ATOM      4  C   UNL     1       2.288   4.964  18.809  0.00  0.00    +0.000 A 
ATOM      5  C   UNL     1       1.927   4.922  20.160  0.00  0.00    +0.000 A 
ATOM      6  C   UNL     1       1.195   3.845  20.668  0.00  0.00    +0.000 A 
ATOM      7  C   UNL     1       0.795   2.812  19.824  0.00  0.00    +0.000 A 
ATOM      8  C   UNL     1       1.119   2.855  18.470  0.00  0.00    +0.000 A 
ATOM      9  C   UNL     1       1.867   3.924  17.963  0.00  0.00    +0.000 A 
ENDBRANCH   3   4
BRANCH   2  10
ATOM     10  O   UNL     1       5.076   6.881  17.456  0.00  0.00    +0.000 OA
BRANCH  10  12
ATOM     11  C   UNL     1       7.385   7.472  17.511  0.00  0.00    +0.000 C 
ATOM     12  C   UNL     1       6.370   6.453  17.010  0.00  0.00    +0.000 C 
ATOM     13  C   UNL     1       6.671   5.069  17.571  0.00  0.00    +0.000 C 
ENDBRANCH  10  12
ENDBRANCH   2  10
ENDBRANCH   1   3
BRANCH   1  14
ATOM     14  C   UNL     1       2.358   8.257  19.318  0.00  0.00    +0.000 C 
BRANCH  14  15
ATOM     15  N   UNL     1       0.974   8.675  19.611  0.00  0.00    +0.000 NA
ATOM     16  C   UNL     1       0.583   8.632  21.039  0.00  0.00    +0.000 C 
ATOM     17  C   UNL     1       1.127   9.782  21.912  0.00  0.00    +0.000 C 
ATOM     18  N   UNL     1       0.787  11.103  21.369  0.00  0.00    +0.000 N 
ATOM     19  C   UNL     1      -0.328  11.744  21.912  0.00  0.00    +0.000 A 
ATOM     20  C   UNL     1      -0.453  13.131  21.806  0.00  0.00    +0.000 A 
ATOM     21  C   UNL     1      -1.481  13.801  22.475  0.00  0.00    +0.000 A 
ATOM     22  C   UNL     1      -2.387  13.073  23.227  0.00  0.00    +0.000 A 
ATOM     23  C   UNL     1      -2.219  11.703  23.274  0.00  0.00    +0.000 A 
ATOM     24  N   UNL     1      -1.215  11.041  22.650  0.00  0.00    +0.000 NA
ATOM     25  C   UNL     1       1.076  11.260  19.932  0.00  0.00    +0.000 C 
ATOM     26  C   UNL     1       0.657  10.024  19.083  0.00  0.00    +0.000 C 
ENDBRANCH  14  15
ENDBRANCH   1  14
TORSDOF 6
ENDMDL
MODEL 8
REMARK VINA RESULT:      -7.2      3.164      8.772
REMARK  Name = 
REMARK  8 active torsions:
REMARK  status: ('A' for Active; 'I' for Inactive)
REMARK    1  A    between atoms: C_1  and  C_2
REMARK    2  A    between atoms: C_2  and  C_3
REMARK    3  A    between atoms: C_2  and  O_4
REMARK    4  A    between atoms: O_4  and  N_5
REMARK    5  A    between atoms: C_6  and  C_7
REMARK    6  A    between atoms: C_6  and  C_21
REMARK    7  A    between atoms: C_7  and  C_8
REMARK    8  A    between atoms: C_8  and  N_9
REMARK                            x       y       z     vdW  Elec       q    Type
REMARK                         _______ _______ _______ _____ _____    ______ ____
ROOT
ATOM      1  C   UNL     1       3.024   7.231  17.684  0.00  0.00    +0.000 C 
ENDROOT
BRANCH   1   3
ATOM      2  N   UNL     1       4.895   5.627  18.161  0.00  0.00    +0.000 NA
ATOM      3  C   UNL     1       3.631   5.934  18.233  0.00  0.00    +0.000 C 
BRANCH   3   4
ATOM      4  C   UNL     1       2.716   4.942  18.884  0.00  0.00    +0.000 A 
ATOM      5  C   UNL     1       1.928   4.061  18.136  0.00  0.00    +0.000 A 
ATOM      6  C   UNL     1       1.029   3.197  18.767  0.00  0.00    +0.000 A 
ATOM      7  C   UNL     1       0.928   3.189  20.157  0.00  0.00    +0.000 A 
ATOM      8  C   UNL     1       1.728   4.037  20.918  0.00  0.00    +0.000 A 
ATOM      9  C   UNL     1       2.616   4.915  20.286  0.00  0.00    +0.000 A 
ENDBRANCH   3   4
BRANCH   2  10
ATOM     10  O   UNL     1       5.651   6.621  17.527  0.00  0.00    +0.000 OA
BRANCH  10  12
ATOM     11  C   UNL     1       7.599   6.060  18.781  0.00  0.00    +0.000 C 
ATOM     12  C   UNL     1       7.003   6.167  17.384  0.00  0.00    +0.000 C 
ATOM     13  C   UNL     1       7.016   4.813  16.685  0.00  0.00    +0.000 C 
ENDBRANCH  10  12
ENDBRANCH   2  10
ENDBRANCH   1   3
BRANCH   1  14
ATOM     14  C   UNL     1       1.780   7.688  18.472  0.00  0.00    +0.000 C 
BRANCH  14  15
ATOM     15  N   UNL     1       2.042   8.820  19.382  0.00  0.00    +0.000 NA
ATOM     16  C   UNL     1       1.451  10.116  18.975  0.00  0.00    +0.000 C 
ATOM     17  C   UNL     1      -0.067  10.258  19.217  0.00  0.00    +0.000 C 
ATOM     18  N   UNL     1      -0.438   9.987  20.610  0.00  0.00    +0.000 N 
ATOM     19  C   UNL     1      -0.599  11.090  21.450  0.00  0.00    +0.000 A 
ATOM     20  C   UNL     1      -1.372  10.976  22.608  0.00  0.00    +0.000 A 
ATOM     21  C   UNL     1      -1.668  12.107  23.374  0.00  0.00    +0.000 A 
ATOM     22  C   UNL     1      -1.170  13.338  22.985  0.00  0.00    +0.000 A 
ATOM     23  C   UNL     1      -0.397  13.379  21.842  0.00  0.00    +0.000 A 
ATOM     24  N   UNL     1      -0.119  12.296  21.075  0.00  0.00    +0.000 NA
ATOM     25  C   UNL     1       0.137   8.745  21.159  0.00  0.00    +0.000 C 
ATOM     26  C   UNL     1       1.632   8.540  20.780  0.00  0.00    +0.000 C 
ENDBRANCH  14  15
ENDBRANCH   1  14
TORSDOF 6
ENDMDL
MODEL 9
REMARK VINA RESULT:      -7.2      0.965      1.999
REMARK  Name = 
REMARK  8 active torsions:
REMARK  status: ('A' for Active; 'I' for Inactive)
REMARK    1  A    between atoms: C_1  and  C_2
REMARK    2  A    between atoms: C_2  and  C_3
REMARK    3  A    between atoms: C_2  and  O_4
REMARK    4  A    between atoms: O_4  and  N_5
REMARK    5  A    between atoms: C_6  and  C_7
REMARK    6  A    between atoms: C_6  and  C_21
REMARK    7  A    between atoms: C_7  and  C_8
REMARK    8  A    between atoms: C_8  and  N_9
REMARK                            x       y       z     vdW  Elec       q    Type
REMARK                         _______ _______ _______ _____ _____    ______ ____
ROOT
ATOM      1  C   UNL     1       4.144   4.753  20.231  0.00  0.00    +0.000 C 
ENDROOT
BRANCH   1   3
ATOM      2  N   UNL     1       1.707   4.177  20.068  0.00  0.00    +0.000 NA
ATOM      3  C   UNL     1       2.664   5.055  19.970  0.00  0.00    +0.000 C 
BRANCH   3   4
ATOM      4  C   UNL     1       2.285   6.446  19.560  0.00  0.00    +0.000 A 
ATOM      5  C   UNL     1       2.457   6.903  18.249  0.00  0.00    +0.000 A 
ATOM      6  C   UNL     1       2.164   8.227  17.913  0.00  0.00    +0.000 A 
ATOM      7  C   UNL     1       1.671   9.101  18.880  0.00  0.00    +0.000 A 
ATOM      8  C   UNL     1       1.464   8.653  20.181  0.00  0.00    +0.000 A 
ATOM      9  C   UNL     1       1.774   7.332  20.525  0.00  0.00    +0.000 A 
ENDBRANCH   3   4
BRANCH   2  10
ATOM     10  O   UNL     1       2.178   2.914  20.447  0.00  0.00    +0.000 OA
BRANCH  10  12
ATOM     11  C   UNL     1       0.638   2.557  18.662  0.00  0.00    +0.000 C 
ATOM     12  C   UNL     1       1.778   1.947  19.467  0.00  0.00    +0.000 C 
ATOM     13  C   UNL     1       2.960   1.616  18.564  0.00  0.00    +0.000 C 
ENDBRANCH  10  12
ENDBRANCH   2  10
ENDBRANCH   1   3
BRANCH   1  14
ATOM     14  C   UNL     1       5.073   5.347  19.153  0.00  0.00    +0.000 C 
BRANCH  14  15
ATOM     15  N   UNL     1       5.539   4.355  18.164  0.00  0.00    +0.000 NA
ATOM     16  C   UNL     1       4.667   4.179  16.979  0.00  0.00    +0.000 C 
ATOM     17  C   UNL     1       4.755   5.295  15.918  0.00  0.00    +0.000 C 
ATOM     18  N   UNL     1       6.131   5.525  15.462  0.00  0.00    +0.000 N 
ATOM     19  C   UNL     1       6.516   4.905  14.272  0.00  0.00    +0.000 A 
ATOM     20  C   UNL     1       7.594   5.412  13.541  0.00  0.00    +0.000 A 
ATOM     21  C   UNL     1       7.893   4.898  12.276  0.00  0.00    +0.000 A 
ATOM     22  C   UNL     1       7.124   3.868  11.764  0.00  0.00    +0.000 A 
ATOM     23  C   UNL     1       6.087   3.400  12.545  0.00  0.00    +0.000 A 
ATOM     24  N   UNL     1       5.769   3.901  13.764  0.00  0.00    +0.000 NA
ATOM     25  C   UNL     1       7.115   5.662  16.551  0.00  0.00    +0.000 C 
ATOM     26  C   UNL     1       6.919   4.620  17.691  0.00  0.00    +0.000 C 
ENDBRANCH  14  15
ENDBRANCH   1  14
TORSDOF 6
ENDMDL
