MODEL 1
REMARK VINA RESULT:      -7.0      0.000      0.000
REMARK  Name = 
REMARK  5 active torsions:
REMARK  status: ('A' for Active; 'I' for Inactive)
REMARK    1  A    between atoms: C_1  and  C_2
REMARK    2  A    between atoms: C_4  and  C_5
REMARK    3  A    between atoms: C_13  and  C_15
REMARK    4  A    between atoms: C_19  and  C_20
REMARK    5  A    between atoms: C_21  and  N_22
REMARK                            x       y       z     vdW  Elec       q    Type
REMARK                         _______ _______ _______ _____ _____    ______ ____
ROOT
ATOM      1  C   UNL     1       4.042   6.679  17.196  0.00  0.00    +0.000 C 
ATOM      2  C   UNL     1       3.123   6.607  18.374  0.00  0.00    +0.000 A 
ATOM      3  C   UNL     1       2.881   5.426  19.041  0.00  0.00    +0.000 A 
ATOM      4  C   UNL     1       2.033   5.504  20.125  0.00  0.00    +0.000 A 
ATOM      5  C   UNL     1       1.700   4.307  20.960  0.00  0.00    +0.000 C 
ATOM      6  N   UNL     1       1.466   6.654  20.517  0.00  0.00    +0.000 NA
ATOM      7  C   UNL     1       1.758   7.762  19.828  0.00  0.00    +0.000 A 
ATOM      8  N   UNL     1       1.213   8.950  20.246  0.00  0.00    +0.000 N 
ATOM      9  C   UNL     1       1.944  10.157  19.904  0.00  0.00    +0.000 C 
ATOM     10  C   UNL     1       1.355  11.230  20.824  0.00  0.00    +0.000 C 
ATOM     11  C   UNL     1       0.564  12.292  20.075  0.00  0.00    +0.000 C 
ATOM     12  N   UNL     1      -0.830  11.913  20.176  0.00  0.00    +0.000 N 
ATOM     13  C   UNL     1      -1.781  12.486  19.334  0.00  0.00    +0.000 C 
ATOM     14  O   UNL     1      -1.501  13.311  18.469  0.00  0.00    +0.000 OA
ATOM     15  C   UNL     1      -1.022  10.782  21.074  0.00  0.00    +0.000 C 
ATOM     16  C   UNL     1       0.335  10.497  21.709  0.00  0.00    +0.000 C 
ATOM     17  C   UNL     1       0.695   9.024  21.596  0.00  0.00    +0.000 C 
ATOM     18  N   UNL     1       2.570   7.770  18.761  0.00  0.00    +0.000 NA
ENDROOT
BRANCH  13  19
ATOM     19  C   UNL     1      -3.216  12.207  19.618  0.00  0.00    +0.000 A 
ATOM     20  C   UNL     1      -3.710  12.843  20.776  0.00  0.00    +0.000 A 
ATOM     21  C   UNL     1      -5.039  12.737  21.154  0.00  0.00    +0.000 A 
ATOM     22  C   UNL     1      -5.922  12.060  20.329  0.00  0.00    +0.000 A 
ATOM     23  C   UNL     1      -5.493  11.487  19.114  0.00  0.00    +0.000 A 
ATOM     24  C   UNL     1      -6.563  10.805  18.294  0.00  0.00    +0.000 C 
ATOM     25  C   UNL     1      -4.115  11.560  18.745  0.00  0.00    +0.000 A 
BRANCH  25  26
ATOM     26  N   UNL     1      -3.665  10.998  17.512  0.00  0.00    +0.000 N 
ATOM     27  N   UNL     1      -3.049   9.786  17.419  0.00  0.00    +0.000 NA
ATOM     28  C   UNL     1      -2.813   9.675  16.110  0.00  0.00    +0.000 A 
ATOM     29  C   UNL     1      -3.351  10.776  15.434  0.00  0.00    +0.000 A 
ATOM     30  N   UNL     1      -3.926  11.597  16.311  0.00  0.00    +0.000 NA
ENDBRANCH  25  26
ENDBRANCH  13  19
TORSDOF 2
ENDMDL
MODEL 2
REMARK VINA RESULT:      -6.5      7.690     11.510
REMARK  Name = 
REMARK  5 active torsions:
REMARK  status: ('A' for Active; 'I' for Inactive)
REMARK    1  A    between atoms: C_1  and  C_2
REMARK    2  A    between atoms: C_4  and  C_5
REMARK    3  A    between atoms: C_13  and  C_15
REMARK    4  A    between atoms: C_19  and  C_20
REMARK    5  A    between atoms: C_21  and  N_22
REMARK                            x       y       z     vdW  Elec       q    Type
REMARK                         _______ _______ _______ _____ _____    ______ ____
ROOT
ATOM      1  C   UNL     1      -0.004  14.479  22.324  0.00  0.00    +0.000 C 
ATOM      2  C   UNL     1       0.746  13.837  21.199  0.00  0.00    +0.000 A 
ATOM      3  C   UNL     1       0.247  12.750  20.515  0.00  0.00    +0.000 A 
ATOM      4  C   UNL     1       1.028  12.271  19.486  0.00  0.00    +0.000 A 
ATOM      5  C   UNL     1       0.600  11.113  18.638  0.00  0.00    +0.000 C 
ATOM      6  N   UNL     1       2.209  12.816  19.160  0.00  0.00    +0.000 NA
ATOM      7  C   UNL     1       2.622  13.877  19.861  0.00  0.00    +0.000 A 
ATOM      8  N   UNL     1       3.811  14.466  19.510  0.00  0.00    +0.000 N 
ATOM      9  C   UNL     1       3.963  15.871  19.842  0.00  0.00    +0.000 C 
ATOM     10  C   UNL     1       5.148  16.335  18.988  0.00  0.00    +0.000 C 
ATOM     11  C   UNL     1       6.376  16.689  19.812  0.00  0.00    +0.000 C 
ATOM     12  N   UNL     1       7.240  15.526  19.782  0.00  0.00    +0.000 N 
ATOM     13  C   UNL     1       8.285  15.400  20.694  0.00  0.00    +0.000 C 
ATOM     14  O   UNL     1       8.521  16.233  21.565  0.00  0.00    +0.000 OA
ATOM     15  C   UNL     1       6.747  14.507  18.866  0.00  0.00    +0.000 C 
ATOM     16  C   UNL     1       5.549  15.116  18.145  0.00  0.00    +0.000 C 
ATOM     17  C   UNL     1       4.347  14.183  18.195  0.00  0.00    +0.000 C 
ATOM     18  N   UNL     1       1.924  14.402  20.878  0.00  0.00    +0.000 NA
ENDROOT
BRANCH  13  19
ATOM     19  C   UNL     1       9.254  14.287  20.487  0.00  0.00    +0.000 A 
ATOM     20  C   UNL     1       8.951  13.116  21.213  0.00  0.00    +0.000 A 
ATOM     21  C   UNL     1       9.716  11.968  21.091  0.00  0.00    +0.000 A 
ATOM     22  C   UNL     1      10.752  11.941  20.171  0.00  0.00    +0.000 A 
ATOM     23  C   UNL     1      11.033  13.057  19.357  0.00  0.00    +0.000 A 
ATOM     24  C   UNL     1      12.168  12.886  18.374  0.00  0.00    +0.000 C 
ATOM     25  C   UNL     1      10.271  14.255  19.511  0.00  0.00    +0.000 A 
BRANCH  25  26
ATOM     26  N   UNL     1      10.532  15.391  18.684  0.00  0.00    +0.000 N 
ATOM     27  N   UNL     1       9.934  15.593  17.477  0.00  0.00    +0.000 NA
ATOM     28  C   UNL     1      10.467  16.750  17.076  0.00  0.00    +0.000 A 
ATOM     29  C   UNL     1      11.312  17.256  18.071  0.00  0.00    +0.000 A 
ATOM     30  N   UNL     1      11.326  16.420  19.107  0.00  0.00    +0.000 NA
ENDBRANCH  25  26
ENDBRANCH  13  19
TORSDOF 2
ENDMDL
MODEL 3
REMARK VINA RESULT:      -6.4      6.060      9.951
REMARK  Name = 
REMARK  5 active torsions:
REMARK  status: ('A' for Active; 'I' for Inactive)
REMARK    1  A    between atoms: C_1  and  C_2
REMARK    2  A    between atoms: C_4  and  C_5
REMARK    3  A    between atoms: C_13  and  C_15
REMARK    4  A    between atoms: C_19  and  C_20
REMARK    5  A    between atoms: C_21  and  N_22
REMARK                            x       y       z     vdW  Elec       q    Type
REMARK                         _______ _______ _______ _____ _____    ______ ____
ROOT
ATOM      1  C   UNL     1      -1.418  13.650  23.224  0.00  0.00    +0.000 C 
ATOM      2  C   UNL     1      -0.500  12.923  22.293  0.00  0.00    +0.000 A 
ATOM      3  C   UNL     1      -0.476  11.548  22.218  0.00  0.00    +0.000 A 
ATOM      4  C   UNL     1       0.400  11.006  21.301  0.00  0.00    +0.000 A 
ATOM      5  C   UNL     1       0.515   9.528  21.091  0.00  0.00    +0.000 C 
ATOM      6  N   UNL     1       1.190  11.760  20.524  0.00  0.00    +0.000 NA
ATOM      7  C   UNL     1       1.100  13.089  20.644  0.00  0.00    +0.000 A 
ATOM      8  N   UNL     1       1.877  13.870  19.824  0.00  0.00    +0.000 N 
ATOM      9  C   UNL     1       1.386  15.207  19.544  0.00  0.00    +0.000 C 
ATOM     10  C   UNL     1       2.197  15.659  18.325  0.00  0.00    +0.000 C 
ATOM     11  C   UNL     1       3.159  16.795  18.636  0.00  0.00    +0.000 C 
ATOM     12  N   UNL     1       4.455  16.187  18.855  0.00  0.00    +0.000 N 
ATOM     13  C   UNL     1       5.476  16.905  19.473  0.00  0.00    +0.000 C 
ATOM     14  O   UNL     1       5.339  18.058  19.873  0.00  0.00    +0.000 OA
ATOM     15  C   UNL     1       4.446  14.764  18.546  0.00  0.00    +0.000 C 
ATOM     16  C   UNL     1       3.077  14.459  17.949  0.00  0.00    +0.000 C 
ATOM     17  C   UNL     1       2.434  13.262  18.634  0.00  0.00    +0.000 C 
ATOM     18  N   UNL     1       0.278  13.694  21.513  0.00  0.00    +0.000 NA
ENDROOT
BRANCH  13  19
ATOM     19  C   UNL     1       6.837  16.299  19.490  0.00  0.00    +0.000 A 
ATOM     20  C   UNL     1       7.639  16.650  18.384  0.00  0.00    +0.000 A 
ATOM     21  C   UNL     1       8.951  16.221  18.272  0.00  0.00    +0.000 A 
ATOM     22  C   UNL     1       9.515  15.500  19.312  0.00  0.00    +0.000 A 
ATOM     23  C   UNL     1       8.782  15.205  20.479  0.00  0.00    +0.000 A 
ATOM     24  C   UNL     1       9.525  14.439  21.549  0.00  0.00    +0.000 C 
ATOM     25  C   UNL     1       7.416  15.611  20.577  0.00  0.00    +0.000 A 
BRANCH  25  26
ATOM     26  N   UNL     1       6.660  15.334  21.757  0.00  0.00    +0.000 N 
ATOM     27  N   UNL     1       5.934  14.194  21.933  0.00  0.00    +0.000 NA
ATOM     28  C   UNL     1       5.411  14.365  23.149  0.00  0.00    +0.000 A 
ATOM     29  C   UNL     1       5.884  15.557  23.709  0.00  0.00    +0.000 A 
ATOM     30  N   UNL     1       6.707  16.155  22.849  0.00  0.00    +0.000 NA
ENDBRANCH  25  26
ENDBRANCH  13  19
TORSDOF 2
ENDMDL
MODEL 4
REMARK VINA RESULT:      -6.4      1.828      3.049
REMARK  Name = 
REMARK  5 active torsions:
REMARK  status: ('A' for Active; 'I' for Inactive)
REMARK    1  A    between atoms: C_1  and  C_2
REMARK    2  A    between atoms: C_4  and  C_5
REMARK    3  A    between atoms: C_13  and  C_15
REMARK    4  A    between atoms: C_19  and  C_20
REMARK    5  A    between atoms: C_21  and  N_22
REMARK                            x       y       z     vdW  Elec       q    Type
REMARK                         _______ _______ _______ _____ _____    ______ ____
ROOT
ATOM      1  C   UNL     1       5.006   5.484  18.890  0.00  0.00    +0.000 C 
ATOM      2  C   UNL     1       3.625   5.395  19.459  0.00  0.00    +0.000 A 
ATOM      3  C   UNL     1       3.003   4.186  19.682  0.00  0.00    +0.000 A 
ATOM      4  C   UNL     1       1.741   4.246  20.233  0.00  0.00    +0.000 A 
ATOM      5  C   UNL     1       0.957   3.011  20.555  0.00  0.00    +0.000 C 
ATOM      6  N   UNL     1       1.138   5.404  20.535  0.00  0.00    +0.000 NA
ATOM      7  C   UNL     1       1.810   6.537  20.302  0.00  0.00    +0.000 A 
ATOM      8  N   UNL     1       1.216   7.727  20.645  0.00  0.00    +0.000 N 
ATOM      9  C   UNL     1       2.106   8.837  20.935  0.00  0.00    +0.000 C 
ATOM     10  C   UNL     1       1.220   9.850  21.667  0.00  0.00    +0.000 C 
ATOM     11  C   UNL     1       0.976  11.119  20.865  0.00  0.00    +0.000 C 
ATOM     12  N   UNL     1      -0.312  10.958  20.222  0.00  0.00    +0.000 N 
ATOM     13  C   UNL     1      -0.684  11.789  19.168  0.00  0.00    +0.000 C 
ATOM     14  O   UNL     1       0.042  12.672  18.720  0.00  0.00    +0.000 OA
ATOM     15  C   UNL     1      -1.000   9.757  20.678  0.00  0.00    +0.000 C 
ATOM     16  C   UNL     1      -0.152   9.173  21.802  0.00  0.00    +0.000 C 
ATOM     17  C   UNL     1       0.110   7.691  21.578  0.00  0.00    +0.000 C 
ATOM     18  N   UNL     1       3.038   6.566  19.766  0.00  0.00    +0.000 NA
ENDROOT
BRANCH  13  19
ATOM     19  C   UNL     1      -2.091  11.705  18.684  0.00  0.00    +0.000 A 
ATOM     20  C   UNL     1      -2.272  10.842  17.583  0.00  0.00    +0.000 A 
ATOM     21  C   UNL     1      -3.526  10.604  17.044  0.00  0.00    +0.000 A 
ATOM     22  C   UNL     1      -4.638  11.160  17.654  0.00  0.00    +0.000 A 
ATOM     23  C   UNL     1      -4.516  11.954  18.813  0.00  0.00    +0.000 A 
ATOM     24  C   UNL     1      -5.809  12.473  19.396  0.00  0.00    +0.000 C 
ATOM     25  C   UNL     1      -3.219  12.234  19.344  0.00  0.00    +0.000 A 
BRANCH  25  26
ATOM     26  N   UNL     1      -3.076  13.024  20.525  0.00  0.00    +0.000 N 
ATOM     27  N   UNL     1      -3.123  12.507  21.785  0.00  0.00    +0.000 NA
ATOM     28  C   UNL     1      -2.946  13.585  22.552  0.00  0.00    +0.000 A 
ATOM     29  C   UNL     1      -2.725  14.710  21.749  0.00  0.00    +0.000 A 
ATOM     30  N   UNL     1      -2.766  14.354  20.466  0.00  0.00    +0.000 NA
ENDBRANCH  25  26
ENDBRANCH  13  19
TORSDOF 2
ENDMDL
MODEL 5
REMARK VINA RESULT:      -6.3      4.332      7.007
REMARK  Name = 
REMARK  5 active torsions:
REMARK  status: ('A' for Active; 'I' for Inactive)
REMARK    1  A    between atoms: C_1  and  C_2
REMARK    2  A    between atoms: C_4  and  C_5
REMARK    3  A    between atoms: C_13  and  C_15
REMARK    4  A    between atoms: C_19  and  C_20
REMARK    5  A    between atoms: C_21  and  N_22
REMARK                            x       y       z     vdW  Elec       q    Type
REMARK                         _______ _______ _______ _____ _____    ______ ____
ROOT
ATOM      1  C   UNL     1       5.184  14.834  20.916  0.00  0.00    +0.000 C 
ATOM      2  C   UNL     1       3.992  15.079  20.045  0.00  0.00    +0.000 A 
ATOM      3  C   UNL     1       3.997  16.035  19.052  0.00  0.00    +0.000 A 
ATOM      4  C   UNL     1       2.843  16.140  18.307  0.00  0.00    +0.000 A 
ATOM      5  C   UNL     1       2.714  17.116  17.178  0.00  0.00    +0.000 C 
ATOM      6  N   UNL     1       1.768  15.370  18.525  0.00  0.00    +0.000 NA
ATOM      7  C   UNL     1       1.843  14.455  19.498  0.00  0.00    +0.000 A 
ATOM      8  N   UNL     1       0.761  13.635  19.703  0.00  0.00    +0.000 N 
ATOM      9  C   UNL     1       1.032  12.341  20.303  0.00  0.00    +0.000 C 
ATOM     10  C   UNL     1      -0.233  11.522  20.024  0.00  0.00    +0.000 C 
ATOM     11  C   UNL     1      -1.025  11.199  21.282  0.00  0.00    +0.000 C 
ATOM     12  N   UNL     1      -2.082  12.185  21.366  0.00  0.00    +0.000 N 
ATOM     13  C   UNL     1      -2.781  12.370  22.557  0.00  0.00    +0.000 C 
ATOM     14  O   UNL     1      -2.538  11.739  23.583  0.00  0.00    +0.000 OA
ATOM     15  C   UNL     1      -2.143  13.020  20.175  0.00  0.00    +0.000 C 
ATOM     16  C   UNL     1      -1.138  12.439  19.187  0.00  0.00    +0.000 C 
ATOM     17  C   UNL     1      -0.217  13.520  18.642  0.00  0.00    +0.000 C 
ATOM     18  N   UNL     1       2.926  14.290  20.270  0.00  0.00    +0.000 NA
ENDROOT
BRANCH  13  19
ATOM     19  C   UNL     1      -3.982  13.251  22.526  0.00  0.00    +0.000 A 
ATOM     20  C   UNL     1      -5.091  12.691  21.858  0.00  0.00    +0.000 A 
ATOM     21  C   UNL     1      -6.306  13.352  21.786  0.00  0.00    +0.000 A 
ATOM     22  C   UNL     1      -6.461  14.552  22.460  0.00  0.00    +0.000 A 
ATOM     23  C   UNL     1      -5.410  15.105  23.219  0.00  0.00    +0.000 A 
ATOM     24  C   UNL     1      -5.721  16.402  23.930  0.00  0.00    +0.000 C 
ATOM     25  C   UNL     1      -4.144  14.445  23.259  0.00  0.00    +0.000 A 
BRANCH  25  26
ATOM     26  N   UNL     1      -3.071  14.982  24.034  0.00  0.00    +0.000 N 
ATOM     27  N   UNL     1      -2.887  14.705  25.355  0.00  0.00    +0.000 NA
ATOM     28  C   UNL     1      -1.792  15.407  25.653  0.00  0.00    +0.000 A 
ATOM     29  C   UNL     1      -1.296  16.029  24.501  0.00  0.00    +0.000 A 
ATOM     30  N   UNL     1      -2.079  15.732  23.466  0.00  0.00    +0.000 NA
ENDBRANCH  25  26
ENDBRANCH  13  19
TORSDOF 2
ENDMDL
MODEL 6
REMARK VINA RESULT:      -6.3      6.149     10.229
REMARK  Name = 
REMARK  5 active torsions:
REMARK  status: ('A' for Active; 'I' for Inactive)
REMARK    1  A    between atoms: C_1  and  C_2
REMARK    2  A    between atoms: C_4  and  C_5
REMARK    3  A    between atoms: C_13  and  C_15
REMARK    4  A    between atoms: C_19  and  C_20
REMARK    5  A    between atoms: C_21  and  N_22
REMARK                            x       y       z     vdW  Elec       q    Type
REMARK                         _______ _______ _______ _____ _____    ______ ____
ROOT
ATOM      1  C   UNL     1      -0.811  11.565  22.698  0.00  0.00    +0.000 C 
ATOM      2  C   UNL     1      -0.125  11.529  21.369  0.00  0.00    +0.000 A 
ATOM      3  C   UNL     1      -0.457  10.608  20.399  0.00  0.00    +0.000 A 
ATOM      4  C   UNL     1       0.236  10.701  19.212  0.00  0.00    +0.000 A 
ATOM      5  C   UNL     1      -0.037   9.784  18.060  0.00  0.00    +0.000 C 
ATOM      6  N   UNL     1       1.182  11.626  18.997  0.00  0.00    +0.000 NA
ATOM      7  C   UNL     1       1.440  12.495  19.980  0.00  0.00    +0.000 A 
ATOM      8  N   UNL     1       2.380  13.470  19.756  0.00  0.00    +0.000 N 
ATOM      9  C   UNL     1       2.246  14.692  20.529  0.00  0.00    +0.000 C 
ATOM     10  C   UNL     1       3.129  15.704  19.791  0.00  0.00    +0.000 C 
ATOM     11  C   UNL     1       4.356  16.119  20.588  0.00  0.00    +0.000 C 
ATOM     12  N   UNL     1       5.454  15.310  20.102  0.00  0.00    +0.000 N 
ATOM     13  C   UNL     1       6.635  15.209  20.834  0.00  0.00    +0.000 C 
ATOM     14  O   UNL     1       6.806  15.770  21.913  0.00  0.00    +0.000 OA
ATOM     15  C   UNL     1       5.075  14.522  18.937  0.00  0.00    +0.000 C 
ATOM     16  C   UNL     1       3.664  14.960  18.558  0.00  0.00    +0.000 C 
ATOM     17  C   UNL     1       2.745  13.761  18.385  0.00  0.00    +0.000 C 
ATOM     18  N   UNL     1       0.815  12.470  21.166  0.00  0.00    +0.000 NA
ENDROOT
BRANCH  13  19
ATOM     19  C   UNL     1       7.794  14.529  20.190  0.00  0.00    +0.000 A 
ATOM     20  C   UNL     1       8.165  15.076  18.944  0.00  0.00    +0.000 A 
ATOM     21  C   UNL     1       9.257  14.600  18.238  0.00  0.00    +0.000 A 
ATOM     22  C   UNL     1      10.054  13.621  18.808  0.00  0.00    +0.000 A 
ATOM     23  C   UNL     1       9.777  13.109  20.091  0.00  0.00    +0.000 A 
ATOM     24  C   UNL     1      10.742  12.068  20.609  0.00  0.00    +0.000 C 
ATOM     25  C   UNL     1       8.627  13.569  20.803  0.00  0.00    +0.000 A 
BRANCH  25  26
ATOM     26  N   UNL     1       8.337  13.074  22.111  0.00  0.00    +0.000 N 
ATOM     27  N   UNL     1       8.836  13.628  23.251  0.00  0.00    +0.000 NA
ATOM     28  C   UNL     1       8.312  12.856  24.206  0.00  0.00    +0.000 A 
ATOM     29  C   UNL     1       7.458  11.906  23.636  0.00  0.00    +0.000 A 
ATOM     30  N   UNL     1       7.438  12.064  22.314  0.00  0.00    +0.000 NA
ENDBRANCH  25  26
ENDBRANCH  13  19
TORSDOF 2
ENDMDL
MODEL 7
REMARK VINA RESULT:      -6.3      3.974      7.941
REMARK  Name = 
REMARK  5 active torsions:
REMARK  status: ('A' for Active; 'I' for Inactive)
REMARK    1  A    between atoms: C_1  and  C_2
REMARK    2  A    between atoms: C_4  and  C_5
REMARK    3  A    between atoms: C_13  and  C_15
REMARK    4  A    between atoms: C_19  and  C_20
REMARK    5  A    between atoms: C_21  and  N_22
REMARK                            x       y       z     vdW  Elec       q    Type
REMARK                         _______ _______ _______ _____ _____    ______ ____
ROOT
ATOM      1  C   UNL     1      -3.370  10.150  14.819  0.00  0.00    +0.000 C 
ATOM      2  C   UNL     1      -3.513  10.789  16.165  0.00  0.00    +0.000 A 
ATOM      3  C   UNL     1      -4.745  11.031  16.731  0.00  0.00    +0.000 A 
ATOM      4  C   UNL     1      -4.734  11.603  17.985  0.00  0.00    +0.000 A 
ATOM      5  C   UNL     1      -5.997  11.898  18.735  0.00  0.00    +0.000 C 
ATOM      6  N   UNL     1      -3.599  11.915  18.628  0.00  0.00    +0.000 NA
ATOM      7  C   UNL     1      -2.441  11.638  18.019  0.00  0.00    +0.000 A 
ATOM      8  N   UNL     1      -1.274  11.918  18.685  0.00  0.00    +0.000 N 
ATOM      9  C   UNL     1      -0.112  11.129  18.320  0.00  0.00    +0.000 C 
ATOM     10  C   UNL     1       0.876  11.356  19.469  0.00  0.00    +0.000 C 
ATOM     11  C   UNL     1       2.107  12.146  19.052  0.00  0.00    +0.000 C 
ATOM     12  N   UNL     1       1.861  13.521  19.434  0.00  0.00    +0.000 N 
ATOM     13  C   UNL     1       2.640  14.550  18.909  0.00  0.00    +0.000 C 
ATOM     14  O   UNL     1       3.546  14.361  18.101  0.00  0.00    +0.000 OA
ATOM     15  C   UNL     1       0.641  13.657  20.217  0.00  0.00    +0.000 C 
ATOM     16  C   UNL     1       0.134  12.243  20.479  0.00  0.00    +0.000 C 
ATOM     17  C   UNL     1      -1.338  12.113  20.119  0.00  0.00    +0.000 C 
ATOM     18  N   UNL     1      -2.365  11.087  16.800  0.00  0.00    +0.000 NA
ENDROOT
BRANCH  13  19
ATOM     19  C   UNL     1       2.471  15.912  19.488  0.00  0.00    +0.000 A 
ATOM     20  C   UNL     1       1.479  16.689  18.855  0.00  0.00    +0.000 A 
ATOM     21  C   UNL     1       1.152  17.958  19.304  0.00  0.00    +0.000 A 
ATOM     22  C   UNL     1       1.754  18.441  20.455  0.00  0.00    +0.000 A 
ATOM     23  C   UNL     1       2.683  17.663  21.175  0.00  0.00    +0.000 A 
ATOM     24  C   UNL     1       3.241  18.296  22.429  0.00  0.00    +0.000 C 
ATOM     25  C   UNL     1       3.051  16.372  20.689  0.00  0.00    +0.000 A 
BRANCH  25  26
ATOM     26  N   UNL     1       3.980  15.562  21.413  0.00  0.00    +0.000 N 
ATOM     27  N   UNL     1       3.608  14.668  22.371  0.00  0.00    +0.000 NA
ATOM     28  C   UNL     1       4.777  14.156  22.763  0.00  0.00    +0.000 A 
ATOM     29  C   UNL     1       5.815  14.690  21.991  0.00  0.00    +0.000 A 
ATOM     30  N   UNL     1       5.312  15.551  21.108  0.00  0.00    +0.000 NA
ENDBRANCH  25  26
ENDBRANCH  13  19
TORSDOF 2
ENDMDL
MODEL 8
REMARK VINA RESULT:      -6.2      1.634      2.963
REMARK  Name = 
REMARK  5 active torsions:
REMARK  status: ('A' for Active; 'I' for Inactive)
REMARK    1  A    between atoms: C_1  and  C_2
REMARK    2  A    between atoms: C_4  and  C_5
REMARK    3  A    between atoms: C_13  and  C_15
REMARK    4  A    between atoms: C_19  and  C_20
REMARK    5  A    between atoms: C_21  and  N_22
REMARK                            x       y       z     vdW  Elec       q    Type
REMARK                         _______ _______ _______ _____ _____    ______ ____
ROOT
ATOM      1  C   UNL     1       4.600   6.138  17.993  0.00  0.00    +0.000 C 
ATOM      2  C   UNL     1       3.407   6.054  18.892  0.00  0.00    +0.000 A 
ATOM      3  C   UNL     1       2.960   4.854  19.401  0.00  0.00    +0.000 A 
ATOM      4  C   UNL     1       1.865   4.920  20.235  0.00  0.00    +0.000 A 
ATOM      5  C   UNL     1       1.286   3.700  20.883  0.00  0.00    +0.000 C 
ATOM      6  N   UNL     1       1.257   6.075  20.540  0.00  0.00    +0.000 NA
ATOM      7  C   UNL     1       1.757   7.201  20.018  0.00  0.00    +0.000 A 
ATOM      8  N   UNL     1       1.165   8.392  20.356  0.00  0.00    +0.000 N 
ATOM      9  C   UNL     1       2.002   9.576  20.286  0.00  0.00    +0.000 C 
ATOM     10  C   UNL     1       1.234  10.631  21.090  0.00  0.00    +0.000 C 
ATOM     11  C   UNL     1       0.701  11.767  20.231  0.00  0.00    +0.000 C 
ATOM     12  N   UNL     1      -0.685  11.454  19.951  0.00  0.00    +0.000 N 
ATOM     13  C   UNL     1      -1.366  12.116  18.931  0.00  0.00    +0.000 C 
ATOM     14  O   UNL     1      -0.843  12.968  18.218  0.00  0.00    +0.000 OA
ATOM     15  C   UNL     1      -1.141  10.290  20.698  0.00  0.00    +0.000 C 
ATOM     16  C   UNL     1      -0.004   9.906  21.639  0.00  0.00    +0.000 C 
ATOM     17  C   UNL     1       0.320   8.424  21.531  0.00  0.00    +0.000 C 
ATOM     18  N   UNL     1       2.815   7.222  19.196  0.00  0.00    +0.000 NA
ENDROOT
BRANCH  13  19
ATOM     19  C   UNL     1      -2.835  11.895  18.823  0.00  0.00    +0.000 A 
ATOM     20  C   UNL     1      -3.207  10.971  17.824  0.00  0.00    +0.000 A 
ATOM     21  C   UNL     1      -4.529  10.606  17.627  0.00  0.00    +0.000 A 
ATOM     22  C   UNL     1      -5.498  11.095  18.488  0.00  0.00    +0.000 A 
ATOM     23  C   UNL     1      -5.162  11.948  19.558  0.00  0.00    +0.000 A 
ATOM     24  C   UNL     1      -6.309  12.384  20.440  0.00  0.00    +0.000 C 
ATOM     25  C   UNL     1      -3.805  12.358  19.736  0.00  0.00    +0.000 A 
BRANCH  25  26
ATOM     26  N   UNL     1      -3.442  13.210  20.824  0.00  0.00    +0.000 N 
ATOM     27  N   UNL     1      -3.377  14.567  20.725  0.00  0.00    +0.000 NA
ATOM     28  C   UNL     1      -3.007  14.934  21.954  0.00  0.00    +0.000 A 
ATOM     29  C   UNL     1      -2.929  13.809  22.783  0.00  0.00    +0.000 A 
ATOM     30  N   UNL     1      -3.241  12.720  22.084  0.00  0.00    +0.000 NA
ENDBRANCH  25  26
ENDBRANCH  13  19
TORSDOF 2
ENDMDL
MODEL 9
REMARK VINA RESULT:      -6.2      7.562     11.678
REMARK  Name = 
REMARK  5 active torsions:
REMARK  status: ('A' for Active; 'I' for Inactive)
REMARK    1  A    between atoms: C_1  and  C_2
REMARK    2  A    between atoms: C_4  and  C_5
REMARK    3  A    between atoms: C_13  and  C_15
REMARK    4  A    between atoms: C_19  and  C_20
REMARK    5  A    between atoms: C_21  and  N_22
REMARK                            x       y       z     vdW  Elec       q    Type
REMARK                         _______ _______ _______ _____ _____    ______ ____
ROOT
ATOM      1  C   UNL     1       1.066  11.920  20.825  0.00  0.00    +0.000 C 
ATOM      2  C   UNL     1       1.740  13.187  20.403  0.00  0.00    +0.000 A 
ATOM      3  C   UNL     1       1.134  14.091  19.558  0.00  0.00    +0.000 A 
ATOM      4  C   UNL     1       1.857  15.229  19.269  0.00  0.00    +0.000 A 
ATOM      5  C   UNL     1       1.314  16.310  18.387  0.00  0.00    +0.000 C 
ATOM      6  N   UNL     1       3.079  15.456  19.769  0.00  0.00    +0.000 NA
ATOM      7  C   UNL     1       3.597  14.538  20.594  0.00  0.00    +0.000 A 
ATOM      8  N   UNL     1       4.832  14.780  21.141  0.00  0.00    +0.000 N 
ATOM      9  C   UNL     1       5.119  14.132  22.409  0.00  0.00    +0.000 C 
ATOM     10  C   UNL     1       6.332  14.891  22.955  0.00  0.00    +0.000 C 
ATOM     11  C   UNL     1       7.597  14.048  22.995  0.00  0.00    +0.000 C 
ATOM     12  N   UNL     1       8.348  14.377  21.801  0.00  0.00    +0.000 N 
ATOM     13  C   UNL     1       9.386  13.555  21.370  0.00  0.00    +0.000 C 
ATOM     14  O   UNL     1       9.708  12.521  21.949  0.00  0.00    +0.000 OA
ATOM     15  C   UNL     1       7.752  15.491  21.075  0.00  0.00    +0.000 C 
ATOM     16  C   UNL     1       6.609  16.009  21.940  0.00  0.00    +0.000 C 
ATOM     17  C   UNL     1       5.326  16.141  21.132  0.00  0.00    +0.000 C 
ATOM     18  N   UNL     1       2.962  13.404  20.922  0.00  0.00    +0.000 NA
ENDROOT
BRANCH  13  19
ATOM     19  C   UNL     1      10.245  14.048  20.257  0.00  0.00    +0.000 A 
ATOM     20  C   UNL     1      11.077  15.132  20.607  0.00  0.00    +0.000 A 
ATOM     21  C   UNL     1      11.980  15.675  19.708  0.00  0.00    +0.000 A 
ATOM     22  C   UNL     1      12.130  15.086  18.463  0.00  0.00    +0.000 A 
ATOM     23  C   UNL     1      11.387  13.943  18.103  0.00  0.00    +0.000 A 
ATOM     24  C   UNL     1      11.669  13.381  16.729  0.00  0.00    +0.000 C 
ATOM     25  C   UNL     1      10.426  13.408  19.013  0.00  0.00    +0.000 A 
BRANCH  25  26
ATOM     26  N   UNL     1       9.674  12.242  18.671  0.00  0.00    +0.000 N 
ATOM     27  N   UNL     1       8.578  12.266  17.862  0.00  0.00    +0.000 NA
ATOM     28  C   UNL     1       8.212  10.983  17.825  0.00  0.00    +0.000 A 
ATOM     29  C   UNL     1       9.128  10.206  18.543  0.00  0.00    +0.000 A 
ATOM     30  N   UNL     1      10.077  10.992  19.048  0.00  0.00    +0.000 NA
ENDBRANCH  25  26
ENDBRANCH  13  19
TORSDOF 2
ENDMDL
