MODEL 1
REMARK VINA RESULT:      -6.2      0.000      0.000
REMARK  Name = 
REMARK  8 active torsions:
REMARK  status: ('A' for Active; 'I' for Inactive)
REMARK    1  A    between atoms: C_1  and  N_2
REMARK    2  A    between atoms: N_2  and  C_3
REMARK    3  A    between atoms: N_2  and  C_4
REMARK    4  A    between atoms: N_2  and  C_5
REMARK    5  A    between atoms: C_5  and  C_6
REMARK    6  A    between atoms: C_6  and  N_7
REMARK    7  A    between atoms: N_7  and  N_8
REMARK    8  A    between atoms: N_8  and  C_9
REMARK                            x       y       z     vdW  Elec       q    Type
REMARK                         _______ _______ _______ _____ _____    ______ ____
ROOT
ATOM      1  N   UNL     1       2.247   3.300  18.719  0.00  0.00    +0.000 NA
ATOM      2  C   UNL     1       0.773   2.836  18.533  0.00  0.00    +0.000 C 
ATOM      3  C   UNL     1       2.958   2.555  19.866  0.00  0.00    +0.000 C 
ATOM      4  C   UNL     1       2.297   2.798  21.209  0.00  0.00    +0.000 C 
ATOM      5  C   UNL     1       2.206   4.279  21.551  0.00  0.00    +0.000 C 
ATOM      6  C   UNL     1       2.103   5.205  20.375  0.00  0.00    +0.000 A 
ATOM      7  C   UNL     1       1.979   6.578  20.662  0.00  0.00    +0.000 A 
ATOM      8  C   UNL     1       2.053   7.530  19.650  0.00  0.00    +0.000 A 
ATOM      9  C   UNL     1       2.241   7.118  18.335  0.00  0.00    +0.000 A 
ATOM     10  C   UNL     1       2.298   5.755  18.025  0.00  0.00    +0.000 A 
ATOM     11  C   UNL     1       2.225   4.784  19.042  0.00  0.00    +0.000 A 
ENDROOT
BRANCH   1  12
ATOM     12  N   UNL     1       2.937   3.049  17.375  0.00  0.00    +0.000 NA
ATOM     13  H   UNL     1       2.611   2.178  16.936  0.00  0.00    +0.000 HD
BRANCH  12  14
ATOM     14  C   UNL     1       4.409   3.034  17.459  0.00  0.00    +0.000 C 
BRANCH  14  15
ATOM     15  C   UNL     1       5.191   4.060  16.598  0.00  0.00    +0.000 C 
BRANCH  15  17
ATOM     16  C   UNL     1       7.556   4.599  17.306  0.00  0.00    +0.000 C 
ATOM     17  N   UNL     1       6.079   4.986  17.491  0.00  0.00    +0.000 N 
ATOM     18  C   UNL     1       5.757   4.842  18.978  0.00  0.00    +0.000 C 
ATOM     19  C   UNL     1       5.934   6.453  17.077  0.00  0.00    +0.000 C 
ENDBRANCH  15  17
ENDBRANCH  14  15
ENDBRANCH  12  14
ENDBRANCH   1  12
TORSDOF 4
ENDMDL
MODEL 2
REMARK VINA RESULT:      -6.2      0.051      1.003
REMARK  Name = 
REMARK  8 active torsions:
REMARK  status: ('A' for Active; 'I' for Inactive)
REMARK    1  A    between atoms: C_1  and  N_2
REMARK    2  A    between atoms: N_2  and  C_3
REMARK    3  A    between atoms: N_2  and  C_4
REMARK    4  A    between atoms: N_2  and  C_5
REMARK    5  A    between atoms: C_5  and  C_6
REMARK    6  A    between atoms: C_6  and  N_7
REMARK    7  A    between atoms: N_7  and  N_8
REMARK    8  A    between atoms: N_8  and  C_9
REMARK                            x       y       z     vdW  Elec       q    Type
REMARK                         _______ _______ _______ _____ _____    ______ ____
ROOT
ATOM      1  N   UNL     1       2.234   3.328  18.691  0.00  0.00    +0.000 NA
ATOM      2  C   UNL     1       0.762   2.869  18.484  0.00  0.00    +0.000 C 
ATOM      3  C   UNL     1       2.931   2.569  19.837  0.00  0.00    +0.000 C 
ATOM      4  C   UNL     1       2.255   2.796  21.176  0.00  0.00    +0.000 C 
ATOM      5  C   UNL     1       2.163   4.273  21.535  0.00  0.00    +0.000 C 
ATOM      6  C   UNL     1       2.074   5.214  20.369  0.00  0.00    +0.000 A 
ATOM      7  C   UNL     1       1.949   6.583  20.671  0.00  0.00    +0.000 A 
ATOM      8  C   UNL     1       2.036   7.547  19.672  0.00  0.00    +0.000 A 
ATOM      9  C   UNL     1       2.239   7.150  18.354  0.00  0.00    +0.000 A 
ATOM     10  C   UNL     1       2.297   5.791  18.028  0.00  0.00    +0.000 A 
ATOM     11  C   UNL     1       2.210   4.809  19.032  0.00  0.00    +0.000 A 
ENDROOT
BRANCH   1  12
ATOM     12  N   UNL     1       2.939   3.092  17.353  0.00  0.00    +0.000 NA
ATOM     13  H   UNL     1       2.616   2.228  16.899  0.00  0.00    +0.000 HD
BRANCH  12  14
ATOM     14  C   UNL     1       4.410   3.071  17.454  0.00  0.00    +0.000 C 
BRANCH  14  15
ATOM     15  C   UNL     1       5.206   4.080  16.586  0.00  0.00    +0.000 C 
BRANCH  15  17
ATOM     16  C   UNL     1       5.776   4.763  18.951  0.00  0.00    +0.000 C 
ATOM     17  N   UNL     1       6.128   4.981  17.470  0.00  0.00    +0.000 N 
ATOM     18  C   UNL     1       5.941   6.469  17.176  0.00  0.00    +0.000 C 
ATOM     19  C   UNL     1       7.602   4.607  17.289  0.00  0.00    +0.000 C 
ENDBRANCH  15  17
ENDBRANCH  14  15
ENDBRANCH  12  14
ENDBRANCH   1  12
TORSDOF 4
ENDMDL
MODEL 3
REMARK VINA RESULT:      -6.0      0.330      1.085
REMARK  Name = 
REMARK  8 active torsions:
REMARK  status: ('A' for Active; 'I' for Inactive)
REMARK    1  A    between atoms: C_1  and  N_2
REMARK    2  A    between atoms: N_2  and  C_3
REMARK    3  A    between atoms: N_2  and  C_4
REMARK    4  A    between atoms: N_2  and  C_5
REMARK    5  A    between atoms: C_5  and  C_6
REMARK    6  A    between atoms: C_6  and  N_7
REMARK    7  A    between atoms: N_7  and  N_8
REMARK    8  A    between atoms: N_8  and  C_9
REMARK                            x       y       z     vdW  Elec       q    Type
REMARK                         _______ _______ _______ _____ _____    ______ ____
ROOT
ATOM      1  N   UNL     1       2.106   3.254  18.770  0.00  0.00    +0.000 NA
ATOM      2  C   UNL     1       0.616   2.819  18.651  0.00  0.00    +0.000 C 
ATOM      3  C   UNL     1       2.853   2.497  19.885  0.00  0.00    +0.000 C 
ATOM      4  C   UNL     1       2.257   2.753  21.256  0.00  0.00    +0.000 C 
ATOM      5  C   UNL     1       2.210   4.235  21.600  0.00  0.00    +0.000 C 
ATOM      6  C   UNL     1       2.071   5.163  20.429  0.00  0.00    +0.000 A 
ATOM      7  C   UNL     1       1.986   6.538  20.719  0.00  0.00    +0.000 A 
ATOM      8  C   UNL     1       2.033   7.488  19.703  0.00  0.00    +0.000 A 
ATOM      9  C   UNL     1       2.154   7.072  18.381  0.00  0.00    +0.000 A 
ATOM     10  C   UNL     1       2.172   5.708  18.071  0.00  0.00    +0.000 A 
ATOM     11  C   UNL     1       2.125   4.740  19.092  0.00  0.00    +0.000 A 
ENDROOT
BRANCH   1  12
ATOM     12  N   UNL     1       2.730   2.990  17.397  0.00  0.00    +0.000 NA
ATOM     13  H   UNL     1       2.378   2.118  16.980  0.00  0.00    +0.000 HD
BRANCH  12  14
ATOM     14  C   UNL     1       4.204   2.966  17.412  0.00  0.00    +0.000 C 
BRANCH  14  15
ATOM     15  C   UNL     1       4.949   3.806  16.341  0.00  0.00    +0.000 C 
BRANCH  15  17
ATOM     16  C   UNL     1       5.491   6.268  16.518  0.00  0.00    +0.000 C 
ATOM     17  N   UNL     1       5.887   4.864  17.007  0.00  0.00    +0.000 N 
ATOM     18  C   UNL     1       7.355   4.655  16.636  0.00  0.00    +0.000 C 
ATOM     19  C   UNL     1       5.740   4.850  18.531  0.00  0.00    +0.000 C 
ENDBRANCH  15  17
ENDBRANCH  14  15
ENDBRANCH  12  14
ENDBRANCH   1  12
TORSDOF 4
ENDMDL
MODEL 4
REMARK VINA RESULT:      -6.0      1.742      5.541
REMARK  Name = 
REMARK  8 active torsions:
REMARK  status: ('A' for Active; 'I' for Inactive)
REMARK    1  A    between atoms: C_1  and  N_2
REMARK    2  A    between atoms: N_2  and  C_3
REMARK    3  A    between atoms: N_2  and  C_4
REMARK    4  A    between atoms: N_2  and  C_5
REMARK    5  A    between atoms: C_5  and  C_6
REMARK    6  A    between atoms: C_6  and  N_7
REMARK    7  A    between atoms: N_7  and  N_8
REMARK    8  A    between atoms: N_8  and  C_9
REMARK                            x       y       z     vdW  Elec       q    Type
REMARK                         _______ _______ _______ _____ _____    ______ ____
ROOT
ATOM      1  N   UNL     1       5.862   4.839  18.554  0.00  0.00    +0.000 NA
ATOM      2  C   UNL     1       4.640   5.774  18.789  0.00  0.00    +0.000 C 
ATOM      3  C   UNL     1       7.160   5.403  19.164  0.00  0.00    +0.000 C 
ATOM      4  C   UNL     1       7.557   6.732  18.549  0.00  0.00    +0.000 C 
ATOM      5  C   UNL     1       7.707   6.649  17.037  0.00  0.00    +0.000 C 
ATOM      6  C   UNL     1       6.842   5.626  16.360  0.00  0.00    +0.000 A 
ATOM      7  C   UNL     1       6.931   5.553  14.957  0.00  0.00    +0.000 A 
ATOM      8  C   UNL     1       6.309   4.527  14.253  0.00  0.00    +0.000 A 
ATOM      9  C   UNL     1       5.578   3.567  14.945  0.00  0.00    +0.000 A 
ATOM     10  C   UNL     1       5.423   3.664  16.332  0.00  0.00    +0.000 A 
ATOM     11  C   UNL     1       6.050   4.698  17.053  0.00  0.00    +0.000 A 
ENDROOT
BRANCH   1  12
ATOM     12  N   UNL     1       5.486   3.493  19.181  0.00  0.00    +0.000 NA
ATOM     13  H   UNL     1       5.603   2.718  18.517  0.00  0.00    +0.000 HD
BRANCH  12  14
ATOM     14  C   UNL     1       4.121   3.460  19.737  0.00  0.00    +0.000 C 
BRANCH  14  15
ATOM     15  C   UNL     1       3.091   2.516  19.063  0.00  0.00    +0.000 C 
BRANCH  15  17
ATOM     16  C   UNL     1       1.438   4.068  20.179  0.00  0.00    +0.000 C 
ATOM     17  N   UNL     1       1.695   3.207  18.930  0.00  0.00    +0.000 N 
ATOM     18  C   UNL     1       0.553   2.196  18.836  0.00  0.00    +0.000 C 
ATOM     19  C   UNL     1       1.655   4.137  17.715  0.00  0.00    +0.000 C 
ENDBRANCH  15  17
ENDBRANCH  14  15
ENDBRANCH  12  14
ENDBRANCH   1  12
TORSDOF 4
ENDMDL
MODEL 5
REMARK VINA RESULT:      -6.0      1.753      5.537
REMARK  Name = 
REMARK  8 active torsions:
REMARK  status: ('A' for Active; 'I' for Inactive)
REMARK    1  A    between atoms: C_1  and  N_2
REMARK    2  A    between atoms: N_2  and  C_3
REMARK    3  A    between atoms: N_2  and  C_4
REMARK    4  A    between atoms: N_2  and  C_5
REMARK    5  A    between atoms: C_5  and  C_6
REMARK    6  A    between atoms: C_6  and  N_7
REMARK    7  A    between atoms: N_7  and  N_8
REMARK    8  A    between atoms: N_8  and  C_9
REMARK                            x       y       z     vdW  Elec       q    Type
REMARK                         _______ _______ _______ _____ _____    ______ ____
ROOT
ATOM      1  N   UNL     1       5.836   4.774  18.616  0.00  0.00    +0.000 NA
ATOM      2  C   UNL     1       4.645   5.732  18.908  0.00  0.00    +0.000 C 
ATOM      3  C   UNL     1       7.159   5.275  19.227  0.00  0.00    +0.000 C 
ATOM      4  C   UNL     1       7.585   6.617  18.661  0.00  0.00    +0.000 C 
ATOM      5  C   UNL     1       7.709   6.593  17.144  0.00  0.00    +0.000 C 
ATOM      6  C   UNL     1       6.805   5.624  16.440  0.00  0.00    +0.000 A 
ATOM      7  C   UNL     1       6.871   5.607  15.033  0.00  0.00    +0.000 A 
ATOM      8  C   UNL     1       6.208   4.630  14.298  0.00  0.00    +0.000 A 
ATOM      9  C   UNL     1       5.460   3.663  14.962  0.00  0.00    +0.000 A 
ATOM     10  C   UNL     1       5.330   3.706  16.354  0.00  0.00    +0.000 A 
ATOM     11  C   UNL     1       5.997   4.691  17.107  0.00  0.00    +0.000 A 
ENDROOT
BRANCH   1  12
ATOM     12  N   UNL     1       5.431   3.415  19.192  0.00  0.00    +0.000 NA
ATOM     13  H   UNL     1       5.478   2.671  18.484  0.00  0.00    +0.000 HD
BRANCH  12  14
ATOM     14  C   UNL     1       4.097   3.411  19.818  0.00  0.00    +0.000 C 
BRANCH  14  15
ATOM     15  C   UNL     1       3.022   2.466  19.220  0.00  0.00    +0.000 C 
BRANCH  15  17
ATOM     16  C   UNL     1       0.542   2.186  18.824  0.00  0.00    +0.000 C 
ATOM     17  N   UNL     1       1.670   3.217  18.997  0.00  0.00    +0.000 N 
ATOM     18  C   UNL     1       1.686   4.083  17.739  0.00  0.00    +0.000 C 
ATOM     19  C   UNL     1       1.316   4.085  20.209  0.00  0.00    +0.000 C 
ENDBRANCH  15  17
ENDBRANCH  14  15
ENDBRANCH  12  14
ENDBRANCH   1  12
TORSDOF 4
ENDMDL
MODEL 6
REMARK VINA RESULT:      -6.0      1.748      5.435
REMARK  Name = 
REMARK  8 active torsions:
REMARK  status: ('A' for Active; 'I' for Inactive)
REMARK    1  A    between atoms: C_1  and  N_2
REMARK    2  A    between atoms: N_2  and  C_3
REMARK    3  A    between atoms: N_2  and  C_4
REMARK    4  A    between atoms: N_2  and  C_5
REMARK    5  A    between atoms: C_5  and  C_6
REMARK    6  A    between atoms: C_6  and  N_7
REMARK    7  A    between atoms: N_7  and  N_8
REMARK    8  A    between atoms: N_8  and  C_9
REMARK                            x       y       z     vdW  Elec       q    Type
REMARK                         _______ _______ _______ _____ _____    ______ ____
ROOT
ATOM      1  N   UNL     1       5.866   4.685  18.747  0.00  0.00    +0.000 NA
ATOM      2  C   UNL     1       4.693   5.636  19.123  0.00  0.00    +0.000 C 
ATOM      3  C   UNL     1       7.213   5.150  19.334  0.00  0.00    +0.000 C 
ATOM      4  C   UNL     1       7.629   6.513  18.814  0.00  0.00    +0.000 C 
ATOM      5  C   UNL     1       7.702   6.555  17.294  0.00  0.00    +0.000 C 
ATOM      6  C   UNL     1       6.767   5.624  16.579  0.00  0.00    +0.000 A 
ATOM      7  C   UNL     1       6.785   5.669  15.172  0.00  0.00    +0.000 A 
ATOM      8  C   UNL     1       6.090   4.729  14.418  0.00  0.00    +0.000 A 
ATOM      9  C   UNL     1       5.358   3.738  15.063  0.00  0.00    +0.000 A 
ATOM     10  C   UNL     1       5.275   3.721  16.460  0.00  0.00    +0.000 A 
ATOM     11  C   UNL     1       5.975   4.667  17.232  0.00  0.00    +0.000 A 
ENDROOT
BRANCH   1  12
ATOM     12  N   UNL     1       5.471   3.304  19.277  0.00  0.00    +0.000 NA
ATOM     13  H   UNL     1       5.568   2.577  18.557  0.00  0.00    +0.000 HD
BRANCH  12  14
ATOM     14  C   UNL     1       4.110   3.254  19.842  0.00  0.00    +0.000 C 
BRANCH  14  15
ATOM     15  C   UNL     1       3.046   2.417  19.086  0.00  0.00    +0.000 C 
BRANCH  15  17
ATOM     16  C   UNL     1       1.711   4.100  17.756  0.00  0.00    +0.000 C 
ATOM     17  N   UNL     1       1.687   3.184  18.991  0.00  0.00    +0.000 N 
ATOM     18  C   UNL     1       1.436   4.073  20.207  0.00  0.00    +0.000 C 
ATOM     19  C   UNL     1       0.517   2.212  18.818  0.00  0.00    +0.000 C 
ENDBRANCH  15  17
ENDBRANCH  14  15
ENDBRANCH  12  14
ENDBRANCH   1  12
TORSDOF 4
ENDMDL
MODEL 7
REMARK VINA RESULT:      -5.9      1.747      5.619
REMARK  Name = 
REMARK  8 active torsions:
REMARK  status: ('A' for Active; 'I' for Inactive)
REMARK    1  A    between atoms: C_1  and  N_2
REMARK    2  A    between atoms: N_2  and  C_3
REMARK    3  A    between atoms: N_2  and  C_4
REMARK    4  A    between atoms: N_2  and  C_5
REMARK    5  A    between atoms: C_5  and  C_6
REMARK    6  A    between atoms: C_6  and  N_7
REMARK    7  A    between atoms: N_7  and  N_8
REMARK    8  A    between atoms: N_8  and  C_9
REMARK                            x       y       z     vdW  Elec       q    Type
REMARK                         _______ _______ _______ _____ _____    ______ ____
ROOT
ATOM      1  N   UNL     1       5.075   4.218  17.479  0.00  0.00    +0.000 NA
ATOM      2  C   UNL     1       3.843   5.169  17.450  0.00  0.00    +0.000 C 
ATOM      3  C   UNL     1       6.048   4.549  18.627  0.00  0.00    +0.000 C 
ATOM      4  C   UNL     1       6.630   5.945  18.505  0.00  0.00    +0.000 C 
ATOM      5  C   UNL     1       7.332   6.167  17.173  0.00  0.00    +0.000 C 
ATOM      6  C   UNL     1       6.791   5.371  16.021  0.00  0.00    +0.000 A 
ATOM      7  C   UNL     1       7.396   5.583  14.768  0.00  0.00    +0.000 A 
ATOM      8  C   UNL     1       7.090   4.773  13.680  0.00  0.00    +0.000 A 
ATOM      9  C   UNL     1       6.165   3.745  13.830  0.00  0.00    +0.000 A 
ATOM     10  C   UNL     1       5.505   3.563  15.050  0.00  0.00    +0.000 A 
ATOM     11  C   UNL     1       5.809   4.378  16.157  0.00  0.00    +0.000 A 
ENDROOT
BRANCH   1  12
ATOM     12  N   UNL     1       4.509   2.802  17.615  0.00  0.00    +0.000 NA
ATOM     13  H   UNL     1       4.436   2.332  16.704  0.00  0.00    +0.000 HD
BRANCH  12  14
ATOM     14  C   UNL     1       3.204   2.750  18.299  0.00  0.00    +0.000 C 
BRANCH  14  15
ATOM     15  C   UNL     1       3.203   2.542  19.836  0.00  0.00    +0.000 C 
BRANCH  15  17
ATOM     16  C   UNL     1       0.799   3.256  19.531  0.00  0.00    +0.000 C 
ATOM     17  N   UNL     1       1.990   3.267  20.503  0.00  0.00    +0.000 N 
ATOM     18  C   UNL     1       2.293   4.729  20.828  0.00  0.00    +0.000 C 
ATOM     19  C   UNL     1       1.548   2.542  21.778  0.00  0.00    +0.000 C 
ENDBRANCH  15  17
ENDBRANCH  14  15
ENDBRANCH  12  14
ENDBRANCH   1  12
TORSDOF 4
ENDMDL
MODEL 8
REMARK VINA RESULT:      -5.9      1.439      4.641
REMARK  Name = 
REMARK  8 active torsions:
REMARK  status: ('A' for Active; 'I' for Inactive)
REMARK    1  A    between atoms: C_1  and  N_2
REMARK    2  A    between atoms: N_2  and  C_3
REMARK    3  A    between atoms: N_2  and  C_4
REMARK    4  A    between atoms: N_2  and  C_5
REMARK    5  A    between atoms: C_5  and  C_6
REMARK    6  A    between atoms: C_6  and  N_7
REMARK    7  A    between atoms: N_7  and  N_8
REMARK    8  A    between atoms: N_8  and  C_9
REMARK                            x       y       z     vdW  Elec       q    Type
REMARK                         _______ _______ _______ _____ _____    ______ ____
ROOT
ATOM      1  N   UNL     1       5.509   4.816  18.360  0.00  0.00    +0.000 NA
ATOM      2  C   UNL     1       6.795   5.450  18.965  0.00  0.00    +0.000 C 
ATOM      3  C   UNL     1       5.711   4.346  16.907  0.00  0.00    +0.000 C 
ATOM      4  C   UNL     1       6.062   5.490  15.974  0.00  0.00    +0.000 C 
ATOM      5  C   UNL     1       5.022   6.600  16.002  0.00  0.00    +0.000 C 
ATOM      6  C   UNL     1       4.288   6.761  17.301  0.00  0.00    +0.000 A 
ATOM      7  C   UNL     1       3.346   7.806  17.370  0.00  0.00    +0.000 A 
ATOM      8  C   UNL     1       2.492   7.928  18.460  0.00  0.00    +0.000 A 
ATOM      9  C   UNL     1       2.577   7.012  19.503  0.00  0.00    +0.000 A 
ATOM     10  C   UNL     1       3.552   6.009  19.482  0.00  0.00    +0.000 A 
ATOM     11  C   UNL     1       4.420   5.876  18.382  0.00  0.00    +0.000 A 
ENDROOT
BRANCH   1  12
ATOM     12  N   UNL     1       5.146   3.648  19.282  0.00  0.00    +0.000 NA
ATOM     13  H   UNL     1       5.971   3.086  19.527  0.00  0.00    +0.000 HD
BRANCH  12  14
ATOM     14  C   UNL     1       4.097   2.768  18.736  0.00  0.00    +0.000 C 
BRANCH  14  15
ATOM     15  C   UNL     1       2.924   2.376  19.672  0.00  0.00    +0.000 C 
BRANCH  15  17
ATOM     16  C   UNL     1       0.608   1.782  18.855  0.00  0.00    +0.000 C 
ATOM     17  N   UNL     1       1.568   2.948  19.147  0.00  0.00    +0.000 N 
ATOM     18  C   UNL     1       1.732   3.734  17.847  0.00  0.00    +0.000 C 
ATOM     19  C   UNL     1       0.901   3.838  20.200  0.00  0.00    +0.000 C 
ENDBRANCH  15  17
ENDBRANCH  14  15
ENDBRANCH  12  14
ENDBRANCH   1  12
TORSDOF 4
ENDMDL
MODEL 9
REMARK VINA RESULT:      -5.9      1.549      5.293
REMARK  Name = 
REMARK  8 active torsions:
REMARK  status: ('A' for Active; 'I' for Inactive)
REMARK    1  A    between atoms: C_1  and  N_2
REMARK    2  A    between atoms: N_2  and  C_3
REMARK    3  A    between atoms: N_2  and  C_4
REMARK    4  A    between atoms: N_2  and  C_5
REMARK    5  A    between atoms: C_5  and  C_6
REMARK    6  A    between atoms: C_6  and  N_7
REMARK    7  A    between atoms: N_7  and  N_8
REMARK    8  A    between atoms: N_8  and  C_9
REMARK                            x       y       z     vdW  Elec       q    Type
REMARK                         _______ _______ _______ _____ _____    ______ ____
ROOT
ATOM      1  N   UNL     1       4.580   4.645  17.645  0.00  0.00    +0.000 NA
ATOM      2  C   UNL     1       3.832   6.010  17.669  0.00  0.00    +0.000 C 
ATOM      3  C   UNL     1       5.468   4.438  18.886  0.00  0.00    +0.000 C 
ATOM      4  C   UNL     1       6.562   5.485  18.995  0.00  0.00    +0.000 C 
ATOM      5  C   UNL     1       7.439   5.537  17.753  0.00  0.00    +0.000 C 
ATOM      6  C   UNL     1       6.763   5.147  16.471  0.00  0.00    +0.000 A 
ATOM      7  C   UNL     1       7.540   5.223  15.299  0.00  0.00    +0.000 A 
ATOM      8  C   UNL     1       7.065   4.718  14.092  0.00  0.00    +0.000 A 
ATOM      9  C   UNL     1       5.800   4.142  14.041  0.00  0.00    +0.000 A 
ATOM     10  C   UNL     1       4.989   4.120  15.181  0.00  0.00    +0.000 A 
ATOM     11  C   UNL     1       5.461   4.627  16.406  0.00  0.00    +0.000 A 
ENDROOT
BRANCH   1  12
ATOM     12  N   UNL     1       3.491   3.573  17.549  0.00  0.00    +0.000 NA
ATOM     13  H   UNL     1       3.310   3.300  16.575  0.00  0.00    +0.000 HD
BRANCH  12  14
ATOM     14  C   UNL     1       2.222   3.958  18.193  0.00  0.00    +0.000 C 
BRANCH  14  15
ATOM     15  C   UNL     1       1.592   2.961  19.200  0.00  0.00    +0.000 C 
BRANCH  15  17
ATOM     16  C   UNL     1       3.474   2.475  20.815  0.00  0.00    +0.000 C 
ATOM     17  N   UNL     1       2.130   3.204  20.647  0.00  0.00    +0.000 N 
ATOM     18  C   UNL     1       1.186   2.659  21.718  0.00  0.00    +0.000 C 
ATOM     19  C   UNL     1       2.382   4.693  20.898  0.00  0.00    +0.000 C 
ENDBRANCH  15  17
ENDBRANCH  14  15
ENDBRANCH  12  14
ENDBRANCH   1  12
TORSDOF 4
ENDMDL
