MODEL 1
REMARK VINA RESULT:      -7.3      0.000      0.000
REMARK  Name = 
REMARK  6 active torsions:
REMARK  status: ('A' for Active; 'I' for Inactive)
REMARK    1  A    between atoms: C_1  and  C_2
REMARK    2  A    between atoms: N_6  and  C_7
REMARK    3  A    between atoms: C_7  and  C_8
REMARK    4  A    between atoms: C_11  and  C_12
REMARK    5  A    between atoms: C_12  and  N_13
REMARK    6  A    between atoms: C_17  and  C_18
REMARK                            x       y       z     vdW  Elec       q    Type
REMARK                         _______ _______ _______ _____ _____    ______ ____
ROOT
ATOM      1  C   UNL     1       2.748   6.916  18.350  0.00  0.00    +0.000 A 
ATOM      2  C   UNL     1       2.539   8.037  17.534  0.00  0.00    +0.000 A 
ATOM      3  C   UNL     1       1.911   9.212  18.030  0.00  0.00    +0.000 A 
ATOM      4  C   UNL     1       1.443   9.277  19.361  0.00  0.00    +0.000 A 
ATOM      5  C   UNL     1       1.670   8.150  20.168  0.00  0.00    +0.000 A 
ATOM      6  C   UNL     1       2.301   7.001  19.678  0.00  0.00    +0.000 A 
ENDROOT
BRANCH   1   7
ATOM      7  C   UNL     1       3.298   5.569  17.887  0.00  0.00    +0.000 C 
BRANCH   7  13
ATOM      8  C   UNL     1       5.757   4.359  14.359  0.00  0.00    +0.000 C 
ATOM      9  C   UNL     1       6.000   3.875  15.789  0.00  0.00    +0.000 C 
ATOM     10  C   UNL     1       7.229   4.543  16.415  0.00  0.00    +0.000 C 
ATOM     11  C   UNL     1       6.930   5.980  16.829  0.00  0.00    +0.000 C 
ATOM     12  C   UNL     1       5.685   6.063  17.717  0.00  0.00    +0.000 C 
ATOM     13  N   UNL     1       4.504   5.513  17.028  0.00  0.00    +0.000 NA
ATOM     14  C   UNL     1       4.762   4.089  16.681  0.00  0.00    +0.000 C 
ENDBRANCH   7  13
ENDBRANCH   1   7
BRANCH   4  15
ATOM     15  C   UNL     1       0.820  10.496  20.047  0.00  0.00    +0.000 C 
BRANCH  15  16
ATOM     16  N   UNL     1      -0.636  10.552  20.273  0.00  0.00    +0.000 NA
ATOM     17  C   UNL     1      -1.166  11.903  20.488  0.00  0.00    +0.000 C 
ATOM     18  C   UNL     1      -1.304  12.787  19.241  0.00  0.00    +0.000 C 
ATOM     19  C   UNL     1      -1.988  12.088  18.072  0.00  0.00    +0.000 C 
ATOM     20  C   UNL     1      -1.417  10.688  17.841  0.00  0.00    +0.000 C 
ATOM     21  C   UNL     1      -2.245   9.971  16.770  0.00  0.00    +0.000 C 
ATOM     22  C   UNL     1      -1.375   9.895  19.166  0.00  0.00    +0.000 C 
ENDBRANCH  15  16
ENDBRANCH   4  15
TORSDOF 4
ENDMDL
MODEL 2
REMARK VINA RESULT:      -7.2      0.326      1.071
REMARK  Name = 
REMARK  6 active torsions:
REMARK  status: ('A' for Active; 'I' for Inactive)
REMARK    1  A    between atoms: C_1  and  C_2
REMARK    2  A    between atoms: N_6  and  C_7
REMARK    3  A    between atoms: C_7  and  C_8
REMARK    4  A    between atoms: C_11  and  C_12
REMARK    5  A    between atoms: C_12  and  N_13
REMARK    6  A    between atoms: C_17  and  C_18
REMARK                            x       y       z     vdW  Elec       q    Type
REMARK                         _______ _______ _______ _____ _____    ______ ____
ROOT
ATOM      1  C   UNL     1       2.547   6.539  18.588  0.00  0.00    +0.000 A 
ATOM      2  C   UNL     1       2.151   6.727  19.920  0.00  0.00    +0.000 A 
ATOM      3  C   UNL     1       1.646   7.976  20.377  0.00  0.00    +0.000 A 
ATOM      4  C   UNL     1       1.560   9.084  19.507  0.00  0.00    +0.000 A 
ATOM      5  C   UNL     1       1.950   8.876  18.174  0.00  0.00    +0.000 A 
ATOM      6  C   UNL     1       2.433   7.640  17.727  0.00  0.00    +0.000 A 
ENDROOT
BRANCH   1   7
ATOM      7  C   UNL     1       3.212   5.284  18.028  0.00  0.00    +0.000 C 
BRANCH   7  13
ATOM      8  C   UNL     1       5.963   4.741  14.550  0.00  0.00    +0.000 C 
ATOM      9  C   UNL     1       6.101   4.007  15.884  0.00  0.00    +0.000 C 
ATOM     10  C   UNL     1       7.264   4.554  16.718  0.00  0.00    +0.000 C 
ATOM     11  C   UNL     1       6.909   5.890  17.359  0.00  0.00    +0.000 C 
ATOM     12  C   UNL     1       5.595   5.808  18.143  0.00  0.00    +0.000 C 
ATOM     13  N   UNL     1       4.483   5.389  17.273  0.00  0.00    +0.000 NA
ATOM     14  C   UNL     1       4.793   4.051  16.696  0.00  0.00    +0.000 C 
ENDBRANCH   7  13
ENDBRANCH   1   7
BRANCH   4  15
ATOM     15  C   UNL     1       0.970  10.458  19.839  0.00  0.00    +0.000 C 
BRANCH  15  16
ATOM     16  N   UNL     1      -0.465  10.590  20.148  0.00  0.00    +0.000 NA
ATOM     17  C   UNL     1      -0.929  11.974  20.303  0.00  0.00    +0.000 C 
ATOM     18  C   UNL     1      -1.111  12.780  19.010  0.00  0.00    +0.000 C 
ATOM     19  C   UNL     1      -1.893  12.036  17.933  0.00  0.00    +0.000 C 
ATOM     20  C   UNL     1      -1.392  10.601  17.763  0.00  0.00    +0.000 C 
ATOM     21  C   UNL     1      -2.312   9.851  16.795  0.00  0.00    +0.000 C 
ATOM     22  C   UNL     1      -1.297   9.894  19.134  0.00  0.00    +0.000 C 
ENDBRANCH  15  16
ENDBRANCH   4  15
TORSDOF 4
ENDMDL
MODEL 3
REMARK VINA RESULT:      -7.2      4.593      6.142
REMARK  Name = 
REMARK  6 active torsions:
REMARK  status: ('A' for Active; 'I' for Inactive)
REMARK    1  A    between atoms: C_1  and  C_2
REMARK    2  A    between atoms: N_6  and  C_7
REMARK    3  A    between atoms: C_7  and  C_8
REMARK    4  A    between atoms: C_11  and  C_12
REMARK    5  A    between atoms: C_12  and  N_13
REMARK    6  A    between atoms: C_17  and  C_18
REMARK                            x       y       z     vdW  Elec       q    Type
REMARK                         _______ _______ _______ _____ _____    ______ ____
ROOT
ATOM      1  C   UNL     1       6.189   5.550  16.436  0.00  0.00    +0.000 A 
ATOM      2  C   UNL     1       5.172   6.512  16.355  0.00  0.00    +0.000 A 
ATOM      3  C   UNL     1       4.156   6.606  17.346  0.00  0.00    +0.000 A 
ATOM      4  C   UNL     1       4.118   5.705  18.432  0.00  0.00    +0.000 A 
ATOM      5  C   UNL     1       5.150   4.755  18.504  0.00  0.00    +0.000 A 
ATOM      6  C   UNL     1       6.155   4.676  17.533  0.00  0.00    +0.000 A 
ENDROOT
BRANCH   1   7
ATOM      7  C   UNL     1       7.250   5.286  15.370  0.00  0.00    +0.000 C 
BRANCH   7  13
ATOM      8  C   UNL     1       4.594   3.801  12.099  0.00  0.00    +0.000 C 
ATOM      9  C   UNL     1       5.918   3.149  12.500  0.00  0.00    +0.000 C 
ATOM     10  C   UNL     1       7.023   3.426  11.476  0.00  0.00    +0.000 C 
ATOM     11  C   UNL     1       7.554   4.850  11.602  0.00  0.00    +0.000 C 
ATOM     12  C   UNL     1       7.974   5.170  13.039  0.00  0.00    +0.000 C 
ATOM     13  N   UNL     1       6.847   5.000  13.973  0.00  0.00    +0.000 NA
ATOM     14  C   UNL     1       6.367   3.593  13.906  0.00  0.00    +0.000 C 
ENDBRANCH   7  13
ENDBRANCH   1   7
BRANCH   4  15
ATOM     15  C   UNL     1       3.134   5.735  19.604  0.00  0.00    +0.000 C 
BRANCH  15  16
ATOM     16  N   UNL     1       1.760   5.230  19.428  0.00  0.00    +0.000 NA
ATOM     17  C   UNL     1       1.561   4.416  18.223  0.00  0.00    +0.000 C 
ATOM     18  C   UNL     1       2.106   2.982  18.271  0.00  0.00    +0.000 C 
ATOM     19  C   UNL     1       1.718   2.227  19.537  0.00  0.00    +0.000 C 
ATOM     20  C   UNL     1       1.946   3.072  20.790  0.00  0.00    +0.000 C 
ATOM     21  C   UNL     1       1.389   2.333  22.012  0.00  0.00    +0.000 C 
ATOM     22  C   UNL     1       1.311   4.471  20.623  0.00  0.00    +0.000 C 
ENDBRANCH  15  16
ENDBRANCH   4  15
TORSDOF 4
ENDMDL
MODEL 4
REMARK VINA RESULT:      -7.1      4.819      6.344
REMARK  Name = 
REMARK  6 active torsions:
REMARK  status: ('A' for Active; 'I' for Inactive)
REMARK    1  A    between atoms: C_1  and  C_2
REMARK    2  A    between atoms: N_6  and  C_7
REMARK    3  A    between atoms: C_7  and  C_8
REMARK    4  A    between atoms: C_11  and  C_12
REMARK    5  A    between atoms: C_12  and  N_13
REMARK    6  A    between atoms: C_17  and  C_18
REMARK                            x       y       z     vdW  Elec       q    Type
REMARK                         _______ _______ _______ _____ _____    ______ ____
ROOT
ATOM      1  C   UNL     1       6.261   5.333  16.770  0.00  0.00    +0.000 A 
ATOM      2  C   UNL     1       6.577   5.177  18.128  0.00  0.00    +0.000 A 
ATOM      3  C   UNL     1       5.576   5.237  19.135  0.00  0.00    +0.000 A 
ATOM      4  C   UNL     1       4.227   5.492  18.804  0.00  0.00    +0.000 A 
ATOM      5  C   UNL     1       3.927   5.635  17.439  0.00  0.00    +0.000 A 
ATOM      6  C   UNL     1       4.914   5.561  16.450  0.00  0.00    +0.000 A 
ENDROOT
BRANCH   1   7
ATOM      7  C   UNL     1       7.270   5.407  15.626  0.00  0.00    +0.000 C 
BRANCH   7  13
ATOM      8  C   UNL     1       4.623   3.781  12.415  0.00  0.00    +0.000 C 
ATOM      9  C   UNL     1       6.002   3.221  12.764  0.00  0.00    +0.000 C 
ATOM     10  C   UNL     1       7.051   3.592  11.711  0.00  0.00    +0.000 C 
ATOM     11  C   UNL     1       7.482   5.048  11.843  0.00  0.00    +0.000 C 
ATOM     12  C   UNL     1       7.925   5.377  13.272  0.00  0.00    +0.000 C 
ATOM     13  N   UNL     1       6.843   5.113  14.237  0.00  0.00    +0.000 NA
ATOM     14  C   UNL     1       6.464   3.675  14.162  0.00  0.00    +0.000 C 
ENDBRANCH   7  13
ENDBRANCH   1   7
BRANCH   4  15
ATOM     15  C   UNL     1       3.040   5.509  19.771  0.00  0.00    +0.000 C 
BRANCH  15  16
ATOM     16  N   UNL     1       2.738   4.322  20.590  0.00  0.00    +0.000 NA
ATOM     17  C   UNL     1       1.307   4.026  20.729  0.00  0.00    +0.000 C 
ATOM     18  C   UNL     1       0.624   3.387  19.512  0.00  0.00    +0.000 C 
ATOM     19  C   UNL     1       1.394   2.207  18.931  0.00  0.00    +0.000 C 
ATOM     20  C   UNL     1       2.880   2.529  18.771  0.00  0.00    +0.000 C 
ATOM     21  C   UNL     1       3.632   1.264  18.342  0.00  0.00    +0.000 C 
ATOM     22  C   UNL     1       3.450   3.123  20.079  0.00  0.00    +0.000 C 
ENDBRANCH  15  16
ENDBRANCH   4  15
TORSDOF 4
ENDMDL
MODEL 5
REMARK VINA RESULT:      -7.1      2.099      8.452
REMARK  Name = 
REMARK  6 active torsions:
REMARK  status: ('A' for Active; 'I' for Inactive)
REMARK    1  A    between atoms: C_1  and  C_2
REMARK    2  A    between atoms: N_6  and  C_7
REMARK    3  A    between atoms: C_7  and  C_8
REMARK    4  A    between atoms: C_11  and  C_12
REMARK    5  A    between atoms: C_12  and  N_13
REMARK    6  A    between atoms: C_17  and  C_18
REMARK                            x       y       z     vdW  Elec       q    Type
REMARK                         _______ _______ _______ _____ _____    ______ ____
ROOT
ATOM      1  C   UNL     1       0.886   9.862  19.188  0.00  0.00    +0.000 A 
ATOM      2  C   UNL     1       1.001   9.098  20.359  0.00  0.00    +0.000 A 
ATOM      3  C   UNL     1       1.742   7.885  20.385  0.00  0.00    +0.000 A 
ATOM      4  C   UNL     1       2.360   7.387  19.218  0.00  0.00    +0.000 A 
ATOM      5  C   UNL     1       2.244   8.168  18.056  0.00  0.00    +0.000 A 
ATOM      6  C   UNL     1       1.525   9.369  18.040  0.00  0.00    +0.000 A 
ENDROOT
BRANCH   1   7
ATOM      7  C   UNL     1       0.020  11.108  19.021  0.00  0.00    +0.000 C 
BRANCH   7  13
ATOM      8  C   UNL     1      -3.854   9.288  17.739  0.00  0.00    +0.000 C 
ATOM      9  C   UNL     1      -3.316  10.625  17.228  0.00  0.00    +0.000 C 
ATOM     10  C   UNL     1      -4.074  11.812  17.831  0.00  0.00    +0.000 C 
ATOM     11  C   UNL     1      -3.655  12.064  19.274  0.00  0.00    +0.000 C 
ATOM     12  C   UNL     1      -2.134  12.195  19.405  0.00  0.00    +0.000 C 
ATOM     13  N   UNL     1      -1.454  10.982  18.919  0.00  0.00    +0.000 NA
ATOM     14  C   UNL     1      -1.804  10.767  17.488  0.00  0.00    +0.000 C 
ENDBRANCH   7  13
ENDBRANCH   1   7
BRANCH   4  15
ATOM     15  C   UNL     1       3.245   6.141  19.117  0.00  0.00    +0.000 C 
BRANCH  15  16
ATOM     16  N   UNL     1       2.708   4.899  18.533  0.00  0.00    +0.000 NA
ATOM     17  C   UNL     1       3.730   3.942  18.093  0.00  0.00    +0.000 C 
ATOM     18  C   UNL     1       4.435   3.143  19.197  0.00  0.00    +0.000 C 
ATOM     19  C   UNL     1       3.475   2.525  20.208  0.00  0.00    +0.000 C 
ATOM     20  C   UNL     1       2.425   3.533  20.677  0.00  0.00    +0.000 C 
ATOM     21  C   UNL     1       1.393   2.820  21.558  0.00  0.00    +0.000 C 
ATOM     22  C   UNL     1       1.766   4.231  19.466  0.00  0.00    +0.000 C 
ENDBRANCH  15  16
ENDBRANCH   4  15
TORSDOF 4
ENDMDL
MODEL 6
REMARK VINA RESULT:      -7.1      4.479      6.157
REMARK  Name = 
REMARK  6 active torsions:
REMARK  status: ('A' for Active; 'I' for Inactive)
REMARK    1  A    between atoms: C_1  and  C_2
REMARK    2  A    between atoms: N_6  and  C_7
REMARK    3  A    between atoms: C_7  and  C_8
REMARK    4  A    between atoms: C_11  and  C_12
REMARK    5  A    between atoms: C_12  and  N_13
REMARK    6  A    between atoms: C_17  and  C_18
REMARK                            x       y       z     vdW  Elec       q    Type
REMARK                         _______ _______ _______ _____ _____    ______ ____
ROOT
ATOM      1  C   UNL     1       6.145   5.332  16.592  0.00  0.00    +0.000 A 
ATOM      2  C   UNL     1       6.236   4.669  17.825  0.00  0.00    +0.000 A 
ATOM      3  C   UNL     1       5.249   4.839  18.835  0.00  0.00    +0.000 A 
ATOM      4  C   UNL     1       4.158   5.714  18.643  0.00  0.00    +0.000 A 
ATOM      5  C   UNL     1       4.076   6.362  17.400  0.00  0.00    +0.000 A 
ATOM      6  C   UNL     1       5.043   6.180  16.403  0.00  0.00    +0.000 A 
ENDROOT
BRANCH   1   7
ATOM      7  C   UNL     1       7.205   5.314  15.493  0.00  0.00    +0.000 C 
BRANCH   7  13
ATOM      8  C   UNL     1       4.622   3.802  12.177  0.00  0.00    +0.000 C 
ATOM      9  C   UNL     1       5.975   3.202  12.561  0.00  0.00    +0.000 C 
ATOM     10  C   UNL     1       7.066   3.561  11.547  0.00  0.00    +0.000 C 
ATOM     11  C   UNL     1       7.528   5.003  11.714  0.00  0.00    +0.000 C 
ATOM     12  C   UNL     1       7.933   5.301  13.162  0.00  0.00    +0.000 C 
ATOM     13  N   UNL     1       6.816   5.051  14.088  0.00  0.00    +0.000 NA
ATOM     14  C   UNL     1       6.403   3.625  13.979  0.00  0.00    +0.000 C 
ENDBRANCH   7  13
ENDBRANCH   1   7
BRANCH   4  15
ATOM     15  C   UNL     1       2.990   5.936  19.608  0.00  0.00    +0.000 C 
BRANCH  15  16
ATOM     16  N   UNL     1       1.691   5.287  19.355  0.00  0.00    +0.000 NA
ATOM     17  C   UNL     1       1.654   4.445  18.153  0.00  0.00    +0.000 C 
ATOM     18  C   UNL     1       2.342   3.078  18.258  0.00  0.00    +0.000 C 
ATOM     19  C   UNL     1       1.956   2.297  19.510  0.00  0.00    +0.000 C 
ATOM     20  C   UNL     1       2.015   3.174  20.761  0.00  0.00    +0.000 C 
ATOM     21  C   UNL     1       1.463   2.392  21.958  0.00  0.00    +0.000 C 
ATOM     22  C   UNL     1       1.249   4.497  20.532  0.00  0.00    +0.000 C 
ENDBRANCH  15  16
ENDBRANCH   4  15
TORSDOF 4
ENDMDL
MODEL 7
REMARK VINA RESULT:      -7.1      1.826      2.759
REMARK  Name = 
REMARK  6 active torsions:
REMARK  status: ('A' for Active; 'I' for Inactive)
REMARK    1  A    between atoms: C_1  and  C_2
REMARK    2  A    between atoms: N_6  and  C_7
REMARK    3  A    between atoms: C_7  and  C_8
REMARK    4  A    between atoms: C_11  and  C_12
REMARK    5  A    between atoms: C_12  and  N_13
REMARK    6  A    between atoms: C_17  and  C_18
REMARK                            x       y       z     vdW  Elec       q    Type
REMARK                         _______ _______ _______ _____ _____    ______ ____
ROOT
ATOM      1  C   UNL     1       2.956   7.071  18.254  0.00  0.00    +0.000 A 
ATOM      2  C   UNL     1       2.747   8.212  17.465  0.00  0.00    +0.000 A 
ATOM      3  C   UNL     1       2.027   9.336  17.958  0.00  0.00    +0.000 A 
ATOM      4  C   UNL     1       1.465   9.325  19.253  0.00  0.00    +0.000 A 
ATOM      5  C   UNL     1       1.692   8.180  20.033  0.00  0.00    +0.000 A 
ATOM      6  C   UNL     1       2.414   7.082  19.548  0.00  0.00    +0.000 A 
ENDROOT
BRANCH   1   7
ATOM      7  C   UNL     1       3.605   5.772  17.783  0.00  0.00    +0.000 C 
BRANCH   7  13
ATOM      8  C   UNL     1       2.948   2.666  20.927  0.00  0.00    +0.000 C 
ATOM      9  C   UNL     1       3.942   2.531  19.772  0.00  0.00    +0.000 C 
ATOM     10  C   UNL     1       3.444   1.554  18.703  0.00  0.00    +0.000 C 
ATOM     11  C   UNL     1       2.353   2.179  17.842  0.00  0.00    +0.000 C 
ATOM     12  C   UNL     1       2.795   3.527  17.263  0.00  0.00    +0.000 C 
ATOM     13  N   UNL     1       3.154   4.472  18.334  0.00  0.00    +0.000 NA
ATOM     14  C   UNL     1       4.267   3.898  19.139  0.00  0.00    +0.000 C 
ENDBRANCH   7  13
ENDBRANCH   1   7
BRANCH   4  15
ATOM     15  C   UNL     1       0.734  10.484  19.937  0.00  0.00    +0.000 C 
BRANCH  15  16
ATOM     16  N   UNL     1      -0.720  10.406  20.168  0.00  0.00    +0.000 NA
ATOM     17  C   UNL     1      -1.350  11.687  20.510  0.00  0.00    +0.000 C 
ATOM     18  C   UNL     1      -1.565  12.671  19.352  0.00  0.00    +0.000 C 
ATOM     19  C   UNL     1      -2.202  12.034  18.122  0.00  0.00    +0.000 C 
ATOM     20  C   UNL     1      -1.528  10.710  17.760  0.00  0.00    +0.000 C 
ATOM     21  C   UNL     1      -2.307  10.035  16.626  0.00  0.00    +0.000 C 
ATOM     22  C   UNL     1      -1.415   9.801  19.004  0.00  0.00    +0.000 C 
ENDBRANCH  15  16
ENDBRANCH   4  15
TORSDOF 4
ENDMDL
MODEL 8
REMARK VINA RESULT:      -7.1      4.538      8.007
REMARK  Name = 
REMARK  6 active torsions:
REMARK  status: ('A' for Active; 'I' for Inactive)
REMARK    1  A    between atoms: C_1  and  C_2
REMARK    2  A    between atoms: N_6  and  C_7
REMARK    3  A    between atoms: C_7  and  C_8
REMARK    4  A    between atoms: C_11  and  C_12
REMARK    5  A    between atoms: C_12  and  N_13
REMARK    6  A    between atoms: C_17  and  C_18
REMARK                            x       y       z     vdW  Elec       q    Type
REMARK                         _______ _______ _______ _____ _____    ______ ____
ROOT
ATOM      1  C   UNL     1       6.511   5.938  17.842  0.00  0.00    +0.000 A 
ATOM      2  C   UNL     1       6.396   7.132  17.115  0.00  0.00    +0.000 A 
ATOM      3  C   UNL     1       7.248   8.242  17.369  0.00  0.00    +0.000 A 
ATOM      4  C   UNL     1       8.220   8.191  18.392  0.00  0.00    +0.000 A 
ATOM      5  C   UNL     1       8.329   6.984  19.103  0.00  0.00    +0.000 A 
ATOM      6  C   UNL     1       7.497   5.890  18.838  0.00  0.00    +0.000 A 
ENDROOT
BRANCH   1   7
ATOM      7  C   UNL     1       5.574   4.737  17.732  0.00  0.00    +0.000 C 
BRANCH   7  13
ATOM      8  C   UNL     1       2.089   6.102  20.171  0.00  0.00    +0.000 C 
ATOM      9  C   UNL     1       2.564   4.652  20.079  0.00  0.00    +0.000 C 
ATOM     10  C   UNL     1       1.627   3.799  19.218  0.00  0.00    +0.000 C 
ATOM     11  C   UNL     1       1.826   4.079  17.733  0.00  0.00    +0.000 C 
ATOM     12  C   UNL     1       3.297   3.949  17.327  0.00  0.00    +0.000 C 
ATOM     13  N   UNL     1       4.145   4.872  18.102  0.00  0.00    +0.000 NA
ATOM     14  C   UNL     1       4.009   4.559  19.551  0.00  0.00    +0.000 C 
ENDBRANCH   7  13
ENDBRANCH   1   7
BRANCH   4  15
ATOM     15  C   UNL     1       9.248   9.276  18.725  0.00  0.00    +0.000 C 
BRANCH  15  16
ATOM     16  N   UNL     1       8.800  10.642  19.050  0.00  0.00    +0.000 NA
ATOM     17  C   UNL     1       9.230  11.127  20.367  0.00  0.00    +0.000 C 
ATOM     18  C   UNL     1      10.698  11.556  20.488  0.00  0.00    +0.000 C 
ATOM     19  C   UNL     1      11.158  12.479  19.366  0.00  0.00    +0.000 C 
ATOM     20  C   UNL     1      10.724  11.959  17.995  0.00  0.00    +0.000 C 
ATOM     21  C   UNL     1      11.064  13.000  16.924  0.00  0.00    +0.000 C 
ATOM     22  C   UNL     1       9.219  11.606  18.001  0.00  0.00    +0.000 C 
ENDBRANCH  15  16
ENDBRANCH   4  15
TORSDOF 4
ENDMDL
MODEL 9
REMARK VINA RESULT:      -7.1      2.994      4.221
REMARK  Name = 
REMARK  6 active torsions:
REMARK  status: ('A' for Active; 'I' for Inactive)
REMARK    1  A    between atoms: C_1  and  C_2
REMARK    2  A    between atoms: N_6  and  C_7
REMARK    3  A    between atoms: C_7  and  C_8
REMARK    4  A    between atoms: C_11  and  C_12
REMARK    5  A    between atoms: C_12  and  N_13
REMARK    6  A    between atoms: C_17  and  C_18
REMARK                            x       y       z     vdW  Elec       q    Type
REMARK                         _______ _______ _______ _____ _____    ______ ____
ROOT
ATOM      1  C   UNL     1       2.103   7.594  19.512  0.00  0.00    +0.000 A 
ATOM      2  C   UNL     1       1.890   8.621  18.581  0.00  0.00    +0.000 A 
ATOM      3  C   UNL     1       1.069   9.742  18.884  0.00  0.00    +0.000 A 
ATOM      4  C   UNL     1       0.409   9.842  20.127  0.00  0.00    +0.000 A 
ATOM      5  C   UNL     1       0.641   8.811  21.053  0.00  0.00    +0.000 A 
ATOM      6  C   UNL     1       1.461   7.717  20.754  0.00  0.00    +0.000 A 
ENDROOT
BRANCH   1   7
ATOM      7  C   UNL     1       2.862   6.297  19.247  0.00  0.00    +0.000 C 
BRANCH   7  13
ATOM      8  C   UNL     1       1.560   2.710  21.570  0.00  0.00    +0.000 C 
ATOM      9  C   UNL     1       2.611   2.686  20.460  0.00  0.00    +0.000 C 
ATOM     10  C   UNL     1       2.069   2.050  19.176  0.00  0.00    +0.000 C 
ATOM     11  C   UNL     1       1.140   3.002  18.433  0.00  0.00    +0.000 C 
ATOM     12  C   UNL     1       1.801   4.364  18.195  0.00  0.00    +0.000 C 
ATOM     13  N   UNL     1       2.201   4.989  19.468  0.00  0.00    +0.000 NA
ATOM     14  C   UNL     1       3.163   4.094  20.168  0.00  0.00    +0.000 C 
ENDBRANCH   7  13
ENDBRANCH   1   7
BRANCH   4  15
ATOM     15  C   UNL     1      -0.440  11.019  20.615  0.00  0.00    +0.000 C 
BRANCH  15  16
ATOM     16  N   UNL     1      -0.067  11.737  21.847  0.00  0.00    +0.000 NA
ATOM     17  C   UNL     1       0.258  13.155  21.650  0.00  0.00    +0.000 C 
ATOM     18  C   UNL     1      -0.930  14.102  21.432  0.00  0.00    +0.000 C 
ATOM     19  C   UNL     1      -2.054  13.912  22.444  0.00  0.00    +0.000 C 
ATOM     20  C   UNL     1      -2.401  12.434  22.630  0.00  0.00    +0.000 C 
ATOM     21  C   UNL     1      -3.414  12.288  23.771  0.00  0.00    +0.000 C 
ATOM     22  C   UNL     1      -1.122  11.605  22.884  0.00  0.00    +0.000 C 
ENDBRANCH  15  16
ENDBRANCH   4  15
TORSDOF 4
ENDMDL
