MODEL 1
REMARK VINA RESULT:      -7.5      0.000      0.000
REMARK  Name = 
REMARK  2 active torsions:
REMARK  status: ('A' for Active; 'I' for Inactive)
REMARK    1  A    between atoms: C_2  and  C_3
REMARK    2  A    between atoms: C_6  and  C_7
REMARK                            x       y       z     vdW  Elec       q    Type
REMARK                         _______ _______ _______ _____ _____    ______ ____
ROOT
ATOM      1  C   UNL     1       4.837   4.753  17.690  0.00  0.00    +0.000 A 
ATOM      2  C   UNL     1       4.743   6.113  17.466  0.00  0.00    +0.000 A 
ATOM      3  C   UNL     1       5.174   6.349  16.140  0.00  0.00    +0.000 A 
ATOM      4  C   UNL     1       5.526   5.124  15.615  0.00  0.00    +0.000 A 
ATOM      5  O   UNL     1       5.310   4.152  16.552  0.00  0.00    +0.000 OA
ENDROOT
BRANCH   1   7
ATOM      6  O   UNL     1       5.380   3.510  19.622  0.00  0.00    +0.000 OA
ATOM      7  C   UNL     1       4.527   3.902  18.825  0.00  0.00    +0.000 C 
ATOM      8  N   UNL     1       3.200   3.460  19.087  0.00  0.00    +0.000 N 
ATOM      9  C   UNL     1       2.777   2.631  20.111  0.00  0.00    +0.000 A 
ATOM     10  C   UNL     1       1.426   2.446  19.957  0.00  0.00    +0.000 A 
ATOM     11  C   UNL     1       1.092   3.208  18.827  0.00  0.00    +0.000 A 
ATOM     12  N   UNL     1       2.146   3.835  18.305  0.00  0.00    +0.000 NA
ENDBRANCH   1   7
BRANCH   4  13
ATOM     13  C   UNL     1       6.059   4.685  14.329  0.00  0.00    +0.000 A 
ATOM     14  C   UNL     1       5.364   3.741  13.555  0.00  0.00    +0.000 A 
ATOM     15  C   UNL     1       5.849   3.339  12.308  0.00  0.00    +0.000 A 
ATOM     16  C   UNL     1       7.039   3.872  11.820  0.00  0.00    +0.000 A 
ATOM     17  C   UNL     1       7.747   4.799  12.580  0.00  0.00    +0.000 A 
ATOM     18  C   UNL     1       7.261   5.202  13.825  0.00  0.00    +0.000 A 
ENDBRANCH   4  13
TORSDOF 2
ENDMDL
MODEL 2
REMARK VINA RESULT:      -7.5      0.661      1.313
REMARK  Name = 
REMARK  2 active torsions:
REMARK  status: ('A' for Active; 'I' for Inactive)
REMARK    1  A    between atoms: C_2  and  C_3
REMARK    2  A    between atoms: C_6  and  C_7
REMARK                            x       y       z     vdW  Elec       q    Type
REMARK                         _______ _______ _______ _____ _____    ______ ____
ROOT
ATOM      1  C   UNL     1       4.629   4.605  18.033  0.00  0.00    +0.000 A 
ATOM      2  C   UNL     1       4.445   5.962  17.843  0.00  0.00    +0.000 A 
ATOM      3  C   UNL     1       4.863   6.261  16.526  0.00  0.00    +0.000 A 
ATOM      4  C   UNL     1       5.299   5.076  15.971  0.00  0.00    +0.000 A 
ATOM      5  O   UNL     1       5.146   4.068  16.882  0.00  0.00    +0.000 OA
ENDROOT
BRANCH   1   7
ATOM      6  O   UNL     1       5.246   2.995  19.644  0.00  0.00    +0.000 OA
ATOM      7  C   UNL     1       4.374   3.706  19.143  0.00  0.00    +0.000 C 
ATOM      8  N   UNL     1       3.081   3.588  19.727  0.00  0.00    +0.000 N 
ATOM      9  C   UNL     1       2.701   2.755  20.765  0.00  0.00    +0.000 A 
ATOM     10  C   UNL     1       1.359   2.949  20.974  0.00  0.00    +0.000 A 
ATOM     11  C   UNL     1       0.993   3.929  20.038  0.00  0.00    +0.000 A 
ATOM     12  N   UNL     1       2.023   4.333  19.294  0.00  0.00    +0.000 NA
ENDBRANCH   1   7
BRANCH   4  13
ATOM     13  C   UNL     1       5.865   4.708  14.677  0.00  0.00    +0.000 A 
ATOM     14  C   UNL     1       7.103   5.231  14.267  0.00  0.00    +0.000 A 
ATOM     15  C   UNL     1       7.668   4.860  13.044  0.00  0.00    +0.000 A 
ATOM     16  C   UNL     1       7.001   3.965  12.213  0.00  0.00    +0.000 A 
ATOM     17  C   UNL     1       5.767   3.447  12.598  0.00  0.00    +0.000 A 
ATOM     18  C   UNL     1       5.203   3.817  13.820  0.00  0.00    +0.000 A 
ENDBRANCH   4  13
TORSDOF 2
ENDMDL
MODEL 3
REMARK VINA RESULT:      -7.4      1.620      1.994
REMARK  Name = 
REMARK  2 active torsions:
REMARK  status: ('A' for Active; 'I' for Inactive)
REMARK    1  A    between atoms: C_2  and  C_3
REMARK    2  A    between atoms: C_6  and  C_7
REMARK                            x       y       z     vdW  Elec       q    Type
REMARK                         _______ _______ _______ _____ _____    ______ ____
ROOT
ATOM      1  C   UNL     1       5.805   4.638  18.238  0.00  0.00    +0.000 A 
ATOM      2  C   UNL     1       6.821   5.568  18.360  0.00  0.00    +0.000 A 
ATOM      3  C   UNL     1       7.350   5.783  17.066  0.00  0.00    +0.000 A 
ATOM      4  C   UNL     1       6.646   4.962  16.210  0.00  0.00    +0.000 A 
ATOM      5  O   UNL     1       5.699   4.277  16.919  0.00  0.00    +0.000 OA
ENDROOT
BRANCH   1   7
ATOM      6  O   UNL     1       5.049   2.909  19.654  0.00  0.00    +0.000 OA
ATOM      7  C   UNL     1       4.883   4.033  19.181  0.00  0.00    +0.000 C 
ATOM      8  N   UNL     1       3.712   4.712  19.620  0.00  0.00    +0.000 N 
ATOM      9  C   UNL     1       2.744   4.241  20.490  0.00  0.00    +0.000 A 
ATOM     10  C   UNL     1       1.784   5.215  20.601  0.00  0.00    +0.000 A 
ATOM     11  C   UNL     1       2.244   6.259  19.784  0.00  0.00    +0.000 A 
ATOM     12  N   UNL     1       3.410   5.976  19.203  0.00  0.00    +0.000 NA
ENDBRANCH   1   7
BRANCH   4  13
ATOM     13  C   UNL     1       6.711   4.695  14.777  0.00  0.00    +0.000 A 
ATOM     14  C   UNL     1       7.649   5.362  13.971  0.00  0.00    +0.000 A 
ATOM     15  C   UNL     1       7.741   5.090  12.603  0.00  0.00    +0.000 A 
ATOM     16  C   UNL     1       6.895   4.150  12.023  0.00  0.00    +0.000 A 
ATOM     17  C   UNL     1       5.951   3.488  12.805  0.00  0.00    +0.000 A 
ATOM     18  C   UNL     1       5.860   3.760  14.172  0.00  0.00    +0.000 A 
ENDBRANCH   4  13
TORSDOF 2
ENDMDL
MODEL 4
REMARK VINA RESULT:      -7.3      2.219      6.437
REMARK  Name = 
REMARK  2 active torsions:
REMARK  status: ('A' for Active; 'I' for Inactive)
REMARK    1  A    between atoms: C_2  and  C_3
REMARK    2  A    between atoms: C_6  and  C_7
REMARK                            x       y       z     vdW  Elec       q    Type
REMARK                         _______ _______ _______ _____ _____    ______ ____
ROOT
ATOM      1  C   UNL     1       5.034   6.146  16.923  0.00  0.00    +0.000 A 
ATOM      2  C   UNL     1       4.297   7.296  17.133  0.00  0.00    +0.000 A 
ATOM      3  C   UNL     1       3.230   6.957  17.996  0.00  0.00    +0.000 A 
ATOM      4  C   UNL     1       3.351   5.609  18.264  0.00  0.00    +0.000 A 
ATOM      5  O   UNL     1       4.454   5.119  17.622  0.00  0.00    +0.000 OA
ENDROOT
BRANCH   1   7
ATOM      6  O   UNL     1       7.350   6.271  16.485  0.00  0.00    +0.000 OA
ATOM      7  C   UNL     1       6.237   5.853  16.165  0.00  0.00    +0.000 C 
ATOM      8  N   UNL     1       6.202   5.054  14.987  0.00  0.00    +0.000 N 
ATOM      9  C   UNL     1       7.264   4.723  14.164  0.00  0.00    +0.000 A 
ATOM     10  C   UNL     1       6.764   3.969  13.133  0.00  0.00    +0.000 A 
ATOM     11  C   UNL     1       5.391   3.866  13.405  0.00  0.00    +0.000 A 
ATOM     12  N   UNL     1       5.044   4.499  14.525  0.00  0.00    +0.000 NA
ENDBRANCH   1   7
BRANCH   4  13
ATOM     13  C   UNL     1       2.574   4.656  19.051  0.00  0.00    +0.000 A 
ATOM     14  C   UNL     1       2.629   4.681  20.454  0.00  0.00    +0.000 A 
ATOM     15  C   UNL     1       1.864   3.794  21.217  0.00  0.00    +0.000 A 
ATOM     16  C   UNL     1       1.038   2.868  20.586  0.00  0.00    +0.000 A 
ATOM     17  C   UNL     1       0.983   2.821  19.195  0.00  0.00    +0.000 A 
ATOM     18  C   UNL     1       1.746   3.708  18.433  0.00  0.00    +0.000 A 
ENDBRANCH   4  13
TORSDOF 2
ENDMDL
MODEL 5
REMARK VINA RESULT:      -7.3      2.296      6.275
REMARK  Name = 
REMARK  2 active torsions:
REMARK  status: ('A' for Active; 'I' for Inactive)
REMARK    1  A    between atoms: C_2  and  C_3
REMARK    2  A    between atoms: C_6  and  C_7
REMARK                            x       y       z     vdW  Elec       q    Type
REMARK                         _______ _______ _______ _____ _____    ______ ____
ROOT
ATOM      1  C   UNL     1       5.415   5.410  16.130  0.00  0.00    +0.000 A 
ATOM      2  C   UNL     1       5.062   6.701  16.478  0.00  0.00    +0.000 A 
ATOM      3  C   UNL     1       3.975   6.609  17.378  0.00  0.00    +0.000 A 
ATOM      4  C   UNL     1       3.701   5.266  17.531  0.00  0.00    +0.000 A 
ATOM      5  O   UNL     1       4.583   4.537  16.783  0.00  0.00    +0.000 OA
ENDROOT
BRANCH   1   7
ATOM      6  O   UNL     1       7.642   4.860  15.574  0.00  0.00    +0.000 OA
ATOM      7  C   UNL     1       6.447   4.851  15.276  0.00  0.00    +0.000 C 
ATOM      8  N   UNL     1       6.135   4.251  14.024  0.00  0.00    +0.000 N 
ATOM      9  C   UNL     1       7.020   3.708  13.109  0.00  0.00    +0.000 A 
ATOM     10  C   UNL     1       6.285   3.276  12.034  0.00  0.00    +0.000 A 
ATOM     11  C   UNL     1       4.956   3.573  12.374  0.00  0.00    +0.000 A 
ATOM     12  N   UNL     1       4.851   4.144  13.574  0.00  0.00    +0.000 NA
ENDBRANCH   1   7
BRANCH   4  13
ATOM     13  C   UNL     1       2.707   4.512  18.288  0.00  0.00    +0.000 A 
ATOM     14  C   UNL     1       2.223   3.286  17.803  0.00  0.00    +0.000 A 
ATOM     15  C   UNL     1       1.294   2.541  18.536  0.00  0.00    +0.000 A 
ATOM     16  C   UNL     1       0.836   3.014  19.762  0.00  0.00    +0.000 A 
ATOM     17  C   UNL     1       1.296   4.234  20.252  0.00  0.00    +0.000 A 
ATOM     18  C   UNL     1       2.224   4.978  19.520  0.00  0.00    +0.000 A 
ENDBRANCH   4  13
TORSDOF 2
ENDMDL
MODEL 6
REMARK VINA RESULT:      -7.3      2.219      6.420
REMARK  Name = 
REMARK  2 active torsions:
REMARK  status: ('A' for Active; 'I' for Inactive)
REMARK    1  A    between atoms: C_2  and  C_3
REMARK    2  A    between atoms: C_6  and  C_7
REMARK                            x       y       z     vdW  Elec       q    Type
REMARK                         _______ _______ _______ _____ _____    ______ ____
ROOT
ATOM      1  C   UNL     1       4.767   6.354  17.114  0.00  0.00    +0.000 A 
ATOM      2  C   UNL     1       3.926   7.440  17.264  0.00  0.00    +0.000 A 
ATOM      3  C   UNL     1       2.872   7.038  18.118  0.00  0.00    +0.000 A 
ATOM      4  C   UNL     1       3.107   5.718  18.440  0.00  0.00    +0.000 A 
ATOM      5  O   UNL     1       4.264   5.305  17.840  0.00  0.00    +0.000 OA
ENDROOT
BRANCH   1   7
ATOM      6  O   UNL     1       7.064   6.698  16.698  0.00  0.00    +0.000 OA
ATOM      7  C   UNL     1       6.009   6.142  16.393  0.00  0.00    +0.000 C 
ATOM      8  N   UNL     1       6.081   5.269  15.271  0.00  0.00    +0.000 N 
ATOM      9  C   UNL     1       7.189   5.001  14.485  0.00  0.00    +0.000 A 
ATOM     10  C   UNL     1       6.792   4.131  13.501  0.00  0.00    +0.000 A 
ATOM     11  C   UNL     1       5.433   3.900  13.762  0.00  0.00    +0.000 A 
ATOM     12  N   UNL     1       4.998   4.564  14.833  0.00  0.00    +0.000 NA
ENDBRANCH   1   7
BRANCH   4  13
ATOM     13  C   UNL     1       2.400   4.728  19.247  0.00  0.00    +0.000 A 
ATOM     14  C   UNL     1       1.519   3.816  18.643  0.00  0.00    +0.000 A 
ATOM     15  C   UNL     1       0.861   2.844  19.403  0.00  0.00    +0.000 A 
ATOM     16  C   UNL     1       1.073   2.774  20.776  0.00  0.00    +0.000 A 
ATOM     17  C   UNL     1       1.933   3.680  21.393  0.00  0.00    +0.000 A 
ATOM     18  C   UNL     1       2.591   4.650  20.634  0.00  0.00    +0.000 A 
ENDBRANCH   4  13
TORSDOF 2
ENDMDL
MODEL 7
REMARK VINA RESULT:      -7.3      1.301      1.880
REMARK  Name = 
REMARK  2 active torsions:
REMARK  status: ('A' for Active; 'I' for Inactive)
REMARK    1  A    between atoms: C_2  and  C_3
REMARK    2  A    between atoms: C_6  and  C_7
REMARK                            x       y       z     vdW  Elec       q    Type
REMARK                         _______ _______ _______ _____ _____    ______ ____
ROOT
ATOM      1  C   UNL     1       4.989   4.956  17.779  0.00  0.00    +0.000 A 
ATOM      2  C   UNL     1       6.277   4.805  18.258  0.00  0.00    +0.000 A 
ATOM      3  C   UNL     1       7.122   4.627  17.137  0.00  0.00    +0.000 A 
ATOM      4  C   UNL     1       6.311   4.661  16.022  0.00  0.00    +0.000 A 
ATOM      5  O   UNL     1       5.018   4.873  16.410  0.00  0.00    +0.000 OA
ENDROOT
BRANCH   1   7
ATOM      6  O   UNL     1       3.305   6.311  18.724  0.00  0.00    +0.000 OA
ATOM      7  C   UNL     1       3.706   5.189  18.415  0.00  0.00    +0.000 C 
ATOM      8  N   UNL     1       2.822   4.118  18.727  0.00  0.00    +0.000 N 
ATOM      9  C   UNL     1       1.590   4.200  19.353  0.00  0.00    +0.000 A 
ATOM     10  C   UNL     1       1.108   2.922  19.478  0.00  0.00    +0.000 A 
ATOM     11  C   UNL     1       2.093   2.114  18.890  0.00  0.00    +0.000 A 
ATOM     12  N   UNL     1       3.120   2.822  18.420  0.00  0.00    +0.000 NA
ENDBRANCH   1   7
BRANCH   4  13
ATOM     13  C   UNL     1       6.550   4.519  14.589  0.00  0.00    +0.000 A 
ATOM     14  C   UNL     1       7.549   5.276  13.956  0.00  0.00    +0.000 A 
ATOM     15  C   UNL     1       7.806   5.123  12.590  0.00  0.00    +0.000 A 
ATOM     16  C   UNL     1       7.066   4.215  11.840  0.00  0.00    +0.000 A 
ATOM     17  C   UNL     1       6.063   3.466  12.450  0.00  0.00    +0.000 A 
ATOM     18  C   UNL     1       5.806   3.617  13.814  0.00  0.00    +0.000 A 
ENDBRANCH   4  13
TORSDOF 2
ENDMDL
MODEL 8
REMARK VINA RESULT:      -7.3      2.347      6.263
REMARK  Name = 
REMARK  2 active torsions:
REMARK  status: ('A' for Active; 'I' for Inactive)
REMARK    1  A    between atoms: C_2  and  C_3
REMARK    2  A    between atoms: C_6  and  C_7
REMARK                            x       y       z     vdW  Elec       q    Type
REMARK                         _______ _______ _______ _____ _____    ______ ____
ROOT
ATOM      1  C   UNL     1       5.607   5.381  15.725  0.00  0.00    +0.000 A 
ATOM      2  C   UNL     1       5.159   6.594  16.213  0.00  0.00    +0.000 A 
ATOM      3  C   UNL     1       4.153   6.315  17.167  0.00  0.00    +0.000 A 
ATOM      4  C   UNL     1       4.020   4.943  17.211  0.00  0.00    +0.000 A 
ATOM      5  O   UNL     1       4.911   4.375  16.345  0.00  0.00    +0.000 OA
ENDROOT
BRANCH   1   7
ATOM      6  O   UNL     1       7.811   5.305  14.884  0.00  0.00    +0.000 OA
ATOM      7  C   UNL     1       6.624   5.004  14.760  0.00  0.00    +0.000 C 
ATOM      8  N   UNL     1       6.304   4.254  13.593  0.00  0.00    +0.000 N 
ATOM      9  C   UNL     1       7.167   3.856  12.588  0.00  0.00    +0.000 A 
ATOM     10  C   UNL     1       6.422   3.188  11.649  0.00  0.00    +0.000 A 
ATOM     11  C   UNL     1       5.115   3.203  12.159  0.00  0.00    +0.000 A 
ATOM     12  N   UNL     1       5.034   3.826  13.335  0.00  0.00    +0.000 NA
ENDBRANCH   1   7
BRANCH   4  13
ATOM     13  C   UNL     1       3.158   4.030  17.956  0.00  0.00    +0.000 A 
ATOM     14  C   UNL     1       1.982   4.499  18.564  0.00  0.00    +0.000 A 
ATOM     15  C   UNL     1       1.134   3.627  19.253  0.00  0.00    +0.000 A 
ATOM     16  C   UNL     1       1.454   2.275  19.346  0.00  0.00    +0.000 A 
ATOM     17  C   UNL     1       2.623   1.797  18.759  0.00  0.00    +0.000 A 
ATOM     18  C   UNL     1       3.469   2.667  18.071  0.00  0.00    +0.000 A 
ENDBRANCH   4  13
TORSDOF 2
ENDMDL
MODEL 9
REMARK VINA RESULT:      -7.3      1.301      1.504
REMARK  Name = 
REMARK  2 active torsions:
REMARK  status: ('A' for Active; 'I' for Inactive)
REMARK    1  A    between atoms: C_2  and  C_3
REMARK    2  A    between atoms: C_6  and  C_7
REMARK                            x       y       z     vdW  Elec       q    Type
REMARK                         _______ _______ _______ _____ _____    ______ ____
ROOT
ATOM      1  C   UNL     1       4.986   4.938  17.771  0.00  0.00    +0.000 A 
ATOM      2  C   UNL     1       6.270   4.808  18.265  0.00  0.00    +0.000 A 
ATOM      3  C   UNL     1       7.129   4.631  17.155  0.00  0.00    +0.000 A 
ATOM      4  C   UNL     1       6.330   4.644  16.031  0.00  0.00    +0.000 A 
ATOM      5  O   UNL     1       5.030   4.844  16.404  0.00  0.00    +0.000 OA
ENDROOT
BRANCH   1   7
ATOM      6  O   UNL     1       3.304   6.273  18.751  0.00  0.00    +0.000 OA
ATOM      7  C   UNL     1       3.693   5.161  18.392  0.00  0.00    +0.000 C 
ATOM      8  N   UNL     1       2.784   4.092  18.628  0.00  0.00    +0.000 N 
ATOM      9  C   UNL     1       1.540   4.164  19.231  0.00  0.00    +0.000 A 
ATOM     10  C   UNL     1       1.033   2.890  19.278  0.00  0.00    +0.000 A 
ATOM     11  C   UNL     1       2.017   2.096  18.668  0.00  0.00    +0.000 A 
ATOM     12  N   UNL     1       3.066   2.809  18.258  0.00  0.00    +0.000 NA
ENDBRANCH   1   7
BRANCH   4  13
ATOM     13  C   UNL     1       6.585   4.492  14.602  0.00  0.00    +0.000 A 
ATOM     14  C   UNL     1       5.829   3.589  13.837  0.00  0.00    +0.000 A 
ATOM     15  C   UNL     1       6.045   3.459  12.462  0.00  0.00    +0.000 A 
ATOM     16  C   UNL     1       7.021   4.228  11.835  0.00  0.00    +0.000 A 
ATOM     17  C   UNL     1       7.788   5.119  12.582  0.00  0.00    +0.000 A 
ATOM     18  C   UNL     1       7.572   5.249  13.955  0.00  0.00    +0.000 A 
ENDBRANCH   4  13
TORSDOF 2
ENDMDL
