MODEL 1
REMARK VINA RESULT:      -7.8      0.000      0.000
REMARK  Name = 
REMARK  2 active torsions:
REMARK  status: ('A' for Active; 'I' for Inactive)
REMARK    1  A    between atoms: N_16  and  C_17
REMARK    2  A    between atoms: C_17  and  C_18
REMARK                            x       y       z     vdW  Elec       q    Type
REMARK                         _______ _______ _______ _____ _____    ______ ____
ROOT
ATOM      1  O   UNL     1       2.013  10.383  17.308  0.00  0.00    +0.000 OA
ATOM      2  C   UNL     1       1.338  10.198  18.310  0.00  0.00    +0.000 C 
ATOM      3  C   UNL     1       0.327  11.197  18.820  0.00  0.00    +0.000 C 
ATOM      4  C   UNL     1      -0.406  11.089  19.920  0.00  0.00    +0.000 C 
ATOM      5  C   UNL     1       0.293  10.164  20.843  0.00  0.00    +0.000 C 
ATOM      6  O   UNL     1       0.900  10.494  21.850  0.00  0.00    +0.000 OA
ATOM      7  C   UNL     1       0.739   8.875  20.329  0.00  0.00    +0.000 A 
ATOM      8  C   UNL     1       0.883   7.810  21.206  0.00  0.00    +0.000 A 
ATOM      9  C   UNL     1       1.738   6.767  20.871  0.00  0.00    +0.000 A 
ATOM     10  C   UNL     1       2.477   6.823  19.683  0.00  0.00    +0.000 A 
ATOM     11  C   UNL     1       2.333   7.903  18.807  0.00  0.00    +0.000 A 
ATOM     12  C   UNL     1       1.416   8.915  19.109  0.00  0.00    +0.000 A 
ATOM     13  C   UNL     1      -1.069  12.434  20.251  0.00  0.00    +0.000 C 
ATOM     14  C   UNL     1      -0.693  12.898  21.725  0.00  0.00    +0.000 C 
ATOM     15  O   UNL     1       0.324  12.763  22.387  0.00  0.00    +0.000 OA
ATOM     16  N   UNL     1      -1.799  13.519  22.301  0.00  0.00    +0.000 N 
ATOM     17  C   UNL     1      -2.928  13.054  21.628  0.00  0.00    +0.000 A 
ATOM     18  C   UNL     1      -4.196  13.031  22.183  0.00  0.00    +0.000 A 
ATOM     19  C   UNL     1      -5.244  12.653  21.364  0.00  0.00    +0.000 A 
ATOM     20  C   UNL     1      -4.995  12.432  20.000  0.00  0.00    +0.000 A 
ATOM     21  C   UNL     1      -3.673  12.368  19.492  0.00  0.00    +0.000 A 
ATOM     22  C   UNL     1      -2.608  12.537  20.368  0.00  0.00    +0.000 A 
ATOM     23  N   UNL     1      -0.642  13.330  19.091  0.00  0.00    +0.000 NA
ATOM     24  C   UNL     1      -0.060  14.640  19.328  0.00  0.00    +0.000 C 
ATOM     25  C   UNL     1       1.389  14.379  19.632  0.00  0.00    +0.000 C 
ATOM     26  C   UNL     1       1.732  13.289  18.628  0.00  0.00    +0.000 C 
ATOM     27  C   UNL     1       0.395  12.595  18.309  0.00  0.00    +0.000 C 
ENDROOT
BRANCH  16  28
ATOM     28  C   UNL     1      -1.604  14.967  22.345  0.00  0.00    +0.000 C 
BRANCH  28  29
ATOM     29  C   UNL     1      -1.235  15.501  23.684  0.00  0.00    +0.000 A 
ATOM     30  C   UNL     1      -1.881  15.014  24.822  0.00  0.00    +0.000 A 
ATOM     31  C   UNL     1      -1.575  15.544  26.069  0.00  0.00    +0.000 A 
ATOM     32  C   UNL     1      -0.608  16.543  26.180  0.00  0.00    +0.000 A 
ATOM     33  C   UNL     1       0.075  16.993  25.050  0.00  0.00    +0.000 A 
ATOM     34  C   UNL     1      -0.229  16.468  23.803  0.00  0.00    +0.000 A 
ENDBRANCH  28  29
ENDBRANCH  16  28
TORSDOF 2
ENDMDL
MODEL 2
REMARK VINA RESULT:      -7.6      2.464      7.384
REMARK  Name = 
REMARK  2 active torsions:
REMARK  status: ('A' for Active; 'I' for Inactive)
REMARK    1  A    between atoms: N_16  and  C_17
REMARK    2  A    between atoms: C_17  and  C_18
REMARK                            x       y       z     vdW  Elec       q    Type
REMARK                         _______ _______ _______ _____ _____    ______ ____
ROOT
ATOM      1  O   UNL     1      -5.690  12.705  19.903  0.00  0.00    +0.000 OA
ATOM      2  C   UNL     1      -4.595  12.676  20.445  0.00  0.00    +0.000 C 
ATOM      3  C   UNL     1      -3.300  12.522  19.683  0.00  0.00    +0.000 C 
ATOM      4  C   UNL     1      -2.083  12.436  20.201  0.00  0.00    +0.000 C 
ATOM      5  C   UNL     1      -2.216  11.951  21.596  0.00  0.00    +0.000 C 
ATOM      6  O   UNL     1      -1.945  10.824  21.982  0.00  0.00    +0.000 OA
ATOM      7  C   UNL     1      -3.163  12.623  22.478  0.00  0.00    +0.000 A 
ATOM      8  C   UNL     1      -2.949  12.595  23.848  0.00  0.00    +0.000 A 
ATOM      9  C   UNL     1      -4.026  12.774  24.706  0.00  0.00    +0.000 A 
ATOM     10  C   UNL     1      -5.316  12.933  24.184  0.00  0.00    +0.000 A 
ATOM     11  C   UNL     1      -5.527  12.953  22.802  0.00  0.00    +0.000 A 
ATOM     12  C   UNL     1      -4.432  12.847  21.939  0.00  0.00    +0.000 A 
ATOM     13  C   UNL     1      -1.081  11.978  19.132  0.00  0.00    +0.000 C 
ATOM     14  C   UNL     1      -0.311  10.669  19.608  0.00  0.00    +0.000 C 
ATOM     15  O   UNL     1      -0.668   9.714  20.279  0.00  0.00    +0.000 OA
ATOM     16  N   UNL     1       1.011  10.736  19.172  0.00  0.00    +0.000 N 
ATOM     17  C   UNL     1       1.306  12.083  18.965  0.00  0.00    +0.000 A 
ATOM     18  C   UNL     1       2.589  12.603  19.015  0.00  0.00    +0.000 A 
ATOM     19  C   UNL     1       2.752  13.933  18.676  0.00  0.00    +0.000 A 
ATOM     20  C   UNL     1       1.647  14.651  18.189  0.00  0.00    +0.000 A 
ATOM     21  C   UNL     1       0.336  14.115  18.247  0.00  0.00    +0.000 A 
ATOM     22  C   UNL     1       0.149  12.850  18.791  0.00  0.00    +0.000 A 
ATOM     23  N   UNL     1      -1.934  11.884  17.870  0.00  0.00    +0.000 NA
ATOM     24  C   UNL     1      -1.916  10.693  17.038  0.00  0.00    +0.000 C 
ATOM     25  C   UNL     1      -2.847   9.725  17.713  0.00  0.00    +0.000 C 
ATOM     26  C   UNL     1      -3.986  10.633  18.150  0.00  0.00    +0.000 C 
ATOM     27  C   UNL     1      -3.362  12.035  18.276  0.00  0.00    +0.000 C 
ENDROOT
BRANCH  16  28
ATOM     28  C   UNL     1       1.220   9.831  18.043  0.00  0.00    +0.000 C 
BRANCH  28  29
ATOM     29  C   UNL     1       1.992   8.601  18.373  0.00  0.00    +0.000 A 
ATOM     30  C   UNL     1       2.966   8.140  17.485  0.00  0.00    +0.000 A 
ATOM     31  C   UNL     1       3.653   6.966  17.765  0.00  0.00    +0.000 A 
ATOM     32  C   UNL     1       3.383   6.267  18.941  0.00  0.00    +0.000 A 
ATOM     33  C   UNL     1       2.446   6.755  19.853  0.00  0.00    +0.000 A 
ATOM     34  C   UNL     1       1.757   7.926  19.577  0.00  0.00    +0.000 A 
ENDBRANCH  28  29
ENDBRANCH  16  28
TORSDOF 2
ENDMDL
MODEL 3
REMARK VINA RESULT:      -7.6      1.018      1.381
REMARK  Name = 
REMARK  2 active torsions:
REMARK  status: ('A' for Active; 'I' for Inactive)
REMARK    1  A    between atoms: N_16  and  C_17
REMARK    2  A    between atoms: C_17  and  C_18
REMARK                            x       y       z     vdW  Elec       q    Type
REMARK                         _______ _______ _______ _____ _____    ______ ____
ROOT
ATOM      1  O   UNL     1       2.153  10.335  17.298  0.00  0.00    +0.000 OA
ATOM      2  C   UNL     1       1.438  10.143  18.271  0.00  0.00    +0.000 C 
ATOM      3  C   UNL     1       0.399  11.134  18.741  0.00  0.00    +0.000 C 
ATOM      4  C   UNL     1      -0.378  11.018  19.809  0.00  0.00    +0.000 C 
ATOM      5  C   UNL     1       0.288  10.095  20.758  0.00  0.00    +0.000 C 
ATOM      6  O   UNL     1       0.851  10.427  21.791  0.00  0.00    +0.000 OA
ATOM      7  C   UNL     1       0.765   8.810  20.261  0.00  0.00    +0.000 A 
ATOM      8  C   UNL     1       0.879   7.744  21.140  0.00  0.00    +0.000 A 
ATOM      9  C   UNL     1       1.754   6.708  20.839  0.00  0.00    +0.000 A 
ATOM     10  C   UNL     1       2.542   6.773  19.682  0.00  0.00    +0.000 A 
ATOM     11  C   UNL     1       2.427   7.854  18.804  0.00  0.00    +0.000 A 
ATOM     12  C   UNL     1       1.492   8.859  19.070  0.00  0.00    +0.000 A 
ATOM     13  C   UNL     1      -1.064  12.357  20.115  0.00  0.00    +0.000 C 
ATOM     14  C   UNL     1      -0.753  12.820  21.605  0.00  0.00    +0.000 C 
ATOM     15  O   UNL     1       0.237  12.690  22.308  0.00  0.00    +0.000 OA
ATOM     16  N   UNL     1      -1.887  13.432  22.136  0.00  0.00    +0.000 N 
ATOM     17  C   UNL     1      -2.983  12.960  21.415  0.00  0.00    +0.000 A 
ATOM     18  C   UNL     1      -4.273  12.927  21.917  0.00  0.00    +0.000 A 
ATOM     19  C   UNL     1      -5.283  12.544  21.054  0.00  0.00    +0.000 A 
ATOM     20  C   UNL     1      -4.976  12.328  19.701  0.00  0.00    +0.000 A 
ATOM     21  C   UNL     1      -3.633  12.275  19.249  0.00  0.00    +0.000 A 
ATOM     22  C   UNL     1      -2.606  12.449  20.168  0.00  0.00    +0.000 A 
ATOM     23  N   UNL     1      -0.595  13.259  18.976  0.00  0.00    +0.000 NA
ATOM     24  C   UNL     1      -0.033  14.572  19.241  0.00  0.00    +0.000 C 
ATOM     25  C   UNL     1       1.405  14.320  19.603  0.00  0.00    +0.000 C 
ATOM     26  C   UNL     1       1.796  13.235  18.612  0.00  0.00    +0.000 C 
ATOM     27  C   UNL     1       0.479  12.534  18.237  0.00  0.00    +0.000 C 
ENDROOT
BRANCH  16  28
ATOM     28  C   UNL     1      -1.703  14.881  22.191  0.00  0.00    +0.000 C 
BRANCH  28  29
ATOM     29  C   UNL     1      -2.612  15.584  23.137  0.00  0.00    +0.000 A 
ATOM     30  C   UNL     1      -3.558  16.485  22.644  0.00  0.00    +0.000 A 
ATOM     31  C   UNL     1      -4.374  17.179  23.527  0.00  0.00    +0.000 A 
ATOM     32  C   UNL     1      -4.261  16.956  24.899  0.00  0.00    +0.000 A 
ATOM     33  C   UNL     1      -3.352  16.018  25.389  0.00  0.00    +0.000 A 
ATOM     34  C   UNL     1      -2.534  15.323  24.510  0.00  0.00    +0.000 A 
ENDBRANCH  28  29
ENDBRANCH  16  28
TORSDOF 2
ENDMDL
MODEL 4
REMARK VINA RESULT:      -7.5      2.760      5.279
REMARK  Name = 
REMARK  2 active torsions:
REMARK  status: ('A' for Active; 'I' for Inactive)
REMARK    1  A    between atoms: N_16  and  C_17
REMARK    2  A    between atoms: C_17  and  C_18
REMARK                            x       y       z     vdW  Elec       q    Type
REMARK                         _______ _______ _______ _____ _____    ______ ____
ROOT
ATOM      1  O   UNL     1       4.406  15.108  18.370  0.00  0.00    +0.000 OA
ATOM      2  C   UNL     1       4.070  14.671  19.461  0.00  0.00    +0.000 C 
ATOM      3  C   UNL     1       2.833  13.829  19.669  0.00  0.00    +0.000 C 
ATOM      4  C   UNL     1       2.380  13.360  20.823  0.00  0.00    +0.000 C 
ATOM      5  C   UNL     1       2.914  14.222  21.904  0.00  0.00    +0.000 C 
ATOM      6  O   UNL     1       2.270  15.049  22.532  0.00  0.00    +0.000 OA
ATOM      7  C   UNL     1       4.344  14.504  21.928  0.00  0.00    +0.000 A 
ATOM      8  C   UNL     1       4.954  14.811  23.135  0.00  0.00    +0.000 A 
ATOM      9  C   UNL     1       6.137  15.538  23.131  0.00  0.00    +0.000 A 
ATOM     10  C   UNL     1       6.674  15.991  21.919  0.00  0.00    +0.000 A 
ATOM     11  C   UNL     1       6.051  15.685  20.706  0.00  0.00    +0.000 A 
ATOM     12  C   UNL     1       4.901  14.890  20.707  0.00  0.00    +0.000 A 
ATOM     13  C   UNL     1       0.950  12.827  20.656  0.00  0.00    +0.000 C 
ATOM     14  C   UNL     1      -0.037  13.538  21.681  0.00  0.00    +0.000 C 
ATOM     15  O   UNL     1      -0.067  14.674  22.128  0.00  0.00    +0.000 OA
ATOM     16  N   UNL     1      -0.973  12.609  22.128  0.00  0.00    +0.000 N 
ATOM     17  C   UNL     1      -0.412  11.344  21.953  0.00  0.00    +0.000 A 
ATOM     18  C   UNL     1      -0.779  10.233  22.693  0.00  0.00    +0.000 A 
ATOM     19  C   UNL     1      -0.226   9.018  22.336  0.00  0.00    +0.000 A 
ATOM     20  C   UNL     1       0.574   8.947  21.184  0.00  0.00    +0.000 A 
ATOM     21  C   UNL     1       1.006  10.119  20.514  0.00  0.00    +0.000 A 
ATOM     22  C   UNL     1       0.619  11.358  21.008  0.00  0.00    +0.000 A 
ATOM     23  N   UNL     1       0.681  13.008  19.165  0.00  0.00    +0.000 NA
ATOM     24  C   UNL     1      -0.526  13.666  18.693  0.00  0.00    +0.000 C 
ATOM     25  C   UNL     1      -0.239  15.138  18.797  0.00  0.00    +0.000 C 
ATOM     26  C   UNL     1       1.204  15.215  18.323  0.00  0.00    +0.000 C 
ATOM     27  C   UNL     1       1.796  13.821  18.598  0.00  0.00    +0.000 C 
ENDROOT
BRANCH  16  28
ATOM     28  C   UNL     1      -2.271  12.851  21.500  0.00  0.00    +0.000 C 
BRANCH  28  29
ATOM     29  C   UNL     1      -3.430  12.788  22.432  0.00  0.00    +0.000 A 
ATOM     30  C   UNL     1      -4.721  12.990  21.940  0.00  0.00    +0.000 A 
ATOM     31  C   UNL     1      -5.800  12.982  22.814  0.00  0.00    +0.000 A 
ATOM     32  C   UNL     1      -5.592  12.749  24.173  0.00  0.00    +0.000 A 
ATOM     33  C   UNL     1      -4.307  12.496  24.657  0.00  0.00    +0.000 A 
ATOM     34  C   UNL     1      -3.227  12.505  23.788  0.00  0.00    +0.000 A 
ENDBRANCH  28  29
ENDBRANCH  16  28
TORSDOF 2
ENDMDL
MODEL 5
REMARK VINA RESULT:      -7.3      3.310      5.497
REMARK  Name = 
REMARK  2 active torsions:
REMARK  status: ('A' for Active; 'I' for Inactive)
REMARK    1  A    between atoms: N_16  and  C_17
REMARK    2  A    between atoms: C_17  and  C_18
REMARK                            x       y       z     vdW  Elec       q    Type
REMARK                         _______ _______ _______ _____ _____    ______ ____
ROOT
ATOM      1  O   UNL     1       5.234  16.693  18.673  0.00  0.00    +0.000 OA
ATOM      2  C   UNL     1       4.974  15.797  19.463  0.00  0.00    +0.000 C 
ATOM      3  C   UNL     1       3.689  15.003  19.416  0.00  0.00    +0.000 C 
ATOM      4  C   UNL     1       3.316  14.053  20.263  0.00  0.00    +0.000 C 
ATOM      5  C   UNL     1       4.040  14.270  21.538  0.00  0.00    +0.000 C 
ATOM      6  O   UNL     1       3.548  14.716  22.564  0.00  0.00    +0.000 OA
ATOM      7  C   UNL     1       5.485  14.456  21.495  0.00  0.00    +0.000 A 
ATOM      8  C   UNL     1       6.245  14.124  22.606  0.00  0.00    +0.000 A 
ATOM      9  C   UNL     1       7.485  14.722  22.783  0.00  0.00    +0.000 A 
ATOM     10  C   UNL     1       7.935  15.683  21.868  0.00  0.00    +0.000 A 
ATOM     11  C   UNL     1       7.162  16.019  20.753  0.00  0.00    +0.000 A 
ATOM     12  C   UNL     1       5.946  15.362  20.537  0.00  0.00    +0.000 A 
ATOM     13  C   UNL     1       1.831  13.716  20.063  0.00  0.00    +0.000 C 
ATOM     14  C   UNL     1       1.030  13.881  21.427  0.00  0.00    +0.000 C 
ATOM     15  O   UNL     1       1.157  14.663  22.356  0.00  0.00    +0.000 OA
ATOM     16  N   UNL     1       0.060  12.884  21.507  0.00  0.00    +0.000 N 
ATOM     17  C   UNL     1       0.475  11.841  20.680  0.00  0.00    +0.000 A 
ATOM     18  C   UNL     1       0.082  10.524  20.851  0.00  0.00    +0.000 A 
ATOM     19  C   UNL     1       0.475   9.611  19.890  0.00  0.00    +0.000 A 
ATOM     20  C   UNL     1       1.140  10.075  18.744  0.00  0.00    +0.000 A 
ATOM     21  C   UNL     1       1.611  11.409  18.653  0.00  0.00    +0.000 A 
ATOM     22  C   UNL     1       1.399  12.271  19.721  0.00  0.00    +0.000 A 
ATOM     23  N   UNL     1       1.427  14.600  18.887  0.00  0.00    +0.000 NA
ATOM     24  C   UNL     1       0.247  15.445  18.953  0.00  0.00    +0.000 C 
ATOM     25  C   UNL     1       0.684  16.675  19.699  0.00  0.00    +0.000 C 
ATOM     26  C   UNL     1       2.070  16.920  19.123  0.00  0.00    +0.000 C 
ATOM     27  C   UNL     1       2.551  15.546  18.624  0.00  0.00    +0.000 C 
ENDROOT
BRANCH  16  28
ATOM     28  C   UNL     1      -1.267  13.443  21.252  0.00  0.00    +0.000 C 
BRANCH  28  29
ATOM     29  C   UNL     1      -2.168  13.459  22.437  0.00  0.00    +0.000 A 
ATOM     30  C   UNL     1      -2.741  12.266  22.883  0.00  0.00    +0.000 A 
ATOM     31  C   UNL     1      -3.622  12.283  23.956  0.00  0.00    +0.000 A 
ATOM     32  C   UNL     1      -3.910  13.487  24.597  0.00  0.00    +0.000 A 
ATOM     33  C   UNL     1      -3.298  14.671  24.185  0.00  0.00    +0.000 A 
ATOM     34  C   UNL     1      -2.420  14.659  23.112  0.00  0.00    +0.000 A 
ENDBRANCH  28  29
ENDBRANCH  16  28
TORSDOF 2
ENDMDL
MODEL 6
REMARK VINA RESULT:      -7.3      2.797      4.456
REMARK  Name = 
REMARK  2 active torsions:
REMARK  status: ('A' for Active; 'I' for Inactive)
REMARK    1  A    between atoms: N_16  and  C_17
REMARK    2  A    between atoms: C_17  and  C_18
REMARK                            x       y       z     vdW  Elec       q    Type
REMARK                         _______ _______ _______ _____ _____    ______ ____
ROOT
ATOM      1  O   UNL     1      -0.031  10.386  19.203  0.00  0.00    +0.000 OA
ATOM      2  C   UNL     1      -1.026  11.079  19.051  0.00  0.00    +0.000 C 
ATOM      3  C   UNL     1      -1.394  12.213  19.979  0.00  0.00    +0.000 C 
ATOM      4  C   UNL     1      -2.475  12.976  19.906  0.00  0.00    +0.000 C 
ATOM      5  C   UNL     1      -3.514  12.221  19.166  0.00  0.00    +0.000 C 
ATOM      6  O   UNL     1      -4.499  11.697  19.665  0.00  0.00    +0.000 OA
ATOM      7  C   UNL     1      -3.159  11.618  17.888  0.00  0.00    +0.000 A 
ATOM      8  C   UNL     1      -4.150  11.398  16.943  0.00  0.00    +0.000 A 
ATOM      9  C   UNL     1      -3.957  10.423  15.973  0.00  0.00    +0.000 A 
ATOM     10  C   UNL     1      -2.792   9.645  15.986  0.00  0.00    +0.000 A 
ATOM     11  C   UNL     1      -1.800   9.866  16.945  0.00  0.00    +0.000 A 
ATOM     12  C   UNL     1      -1.962  10.898  17.875  0.00  0.00    +0.000 A 
ATOM     13  C   UNL     1      -2.637  13.793  21.196  0.00  0.00    +0.000 C 
ATOM     14  C   UNL     1      -4.064  13.532  21.850  0.00  0.00    +0.000 C 
ATOM     15  O   UNL     1      -4.767  12.535  21.899  0.00  0.00    +0.000 OA
ATOM     16  N   UNL     1      -4.535  14.722  22.402  0.00  0.00    +0.000 N 
ATOM     17  C   UNL     1      -3.881  15.765  21.746  0.00  0.00    +0.000 A 
ATOM     18  C   UNL     1      -4.396  17.046  21.640  0.00  0.00    +0.000 A 
ATOM     19  C   UNL     1      -3.591  18.011  21.064  0.00  0.00    +0.000 A 
ATOM     20  C   UNL     1      -2.268  17.682  20.730  0.00  0.00    +0.000 A 
ATOM     21  C   UNL     1      -1.811  16.340  20.761  0.00  0.00    +0.000 A 
ATOM     22  C   UNL     1      -2.696  15.337  21.139  0.00  0.00    +0.000 A 
ATOM     23  N   UNL     1      -1.401  13.416  22.007  0.00  0.00    +0.000 NA
ATOM     24  C   UNL     1      -1.512  12.988  23.391  0.00  0.00    +0.000 C 
ATOM     25  C   UNL     1      -1.886  11.533  23.326  0.00  0.00    +0.000 C 
ATOM     26  C   UNL     1      -1.018  11.033  22.182  0.00  0.00    +0.000 C 
ATOM     27  C   UNL     1      -0.736  12.273  21.315  0.00  0.00    +0.000 C 
ENDROOT
BRANCH  16  28
ATOM     28  C   UNL     1      -4.426  14.685  23.859  0.00  0.00    +0.000 C 
BRANCH  28  29
ATOM     29  C   UNL     1      -4.033  15.978  24.482  0.00  0.00    +0.000 A 
ATOM     30  C   UNL     1      -5.022  16.888  24.864  0.00  0.00    +0.000 A 
ATOM     31  C   UNL     1      -4.658  18.116  25.399  0.00  0.00    +0.000 A 
ATOM     32  C   UNL     1      -3.310  18.425  25.576  0.00  0.00    +0.000 A 
ATOM     33  C   UNL     1      -2.323  17.496  25.243  0.00  0.00    +0.000 A 
ATOM     34  C   UNL     1      -2.682  16.268  24.706  0.00  0.00    +0.000 A 
ENDBRANCH  28  29
ENDBRANCH  16  28
TORSDOF 2
ENDMDL
MODEL 7
REMARK VINA RESULT:      -7.2      1.290      1.974
REMARK  Name = 
REMARK  2 active torsions:
REMARK  status: ('A' for Active; 'I' for Inactive)
REMARK    1  A    between atoms: N_16  and  C_17
REMARK    2  A    between atoms: C_17  and  C_18
REMARK                            x       y       z     vdW  Elec       q    Type
REMARK                         _______ _______ _______ _____ _____    ______ ____
ROOT
ATOM      1  O   UNL     1       0.603  11.684  18.180  0.00  0.00    +0.000 OA
ATOM      2  C   UNL     1       0.067  11.356  19.228  0.00  0.00    +0.000 C 
ATOM      3  C   UNL     1      -0.978  12.198  19.921  0.00  0.00    +0.000 C 
ATOM      4  C   UNL     1      -1.568  11.933  21.078  0.00  0.00    +0.000 C 
ATOM      5  C   UNL     1      -0.679  11.028  21.844  0.00  0.00    +0.000 C 
ATOM      6  O   UNL     1       0.000  11.351  22.807  0.00  0.00    +0.000 OA
ATOM      7  C   UNL     1      -0.164   9.835  21.183  0.00  0.00    +0.000 A 
ATOM      8  C   UNL     1       0.186   8.733  21.949  0.00  0.00    +0.000 A 
ATOM      9  C   UNL     1       1.099   7.818  21.444  0.00  0.00    +0.000 A 
ATOM     10  C   UNL     1       1.691   8.039  20.193  0.00  0.00    +0.000 A 
ATOM     11  C   UNL     1       1.340   9.155  19.429  0.00  0.00    +0.000 A 
ATOM     12  C   UNL     1       0.365  10.036  19.906  0.00  0.00    +0.000 A 
ATOM     13  C   UNL     1      -2.324  13.170  21.586  0.00  0.00    +0.000 C 
ATOM     14  C   UNL     1      -1.834  13.566  23.046  0.00  0.00    +0.000 C 
ATOM     15  O   UNL     1      -0.740  13.498  23.585  0.00  0.00    +0.000 OA
ATOM     16  N   UNL     1      -2.926  14.020  23.783  0.00  0.00    +0.000 N 
ATOM     17  C   UNL     1      -4.070  13.481  23.195  0.00  0.00    +0.000 A 
ATOM     18  C   UNL     1      -5.259  13.279  23.875  0.00  0.00    +0.000 A 
ATOM     19  C   UNL     1      -6.348  12.847  23.141  0.00  0.00    +0.000 A 
ATOM     20  C   UNL     1      -6.232  12.751  21.745  0.00  0.00    +0.000 A 
ATOM     21  C   UNL     1      -4.975  12.869  21.099  0.00  0.00    +0.000 A 
ATOM     22  C   UNL     1      -3.841  13.093  21.870  0.00  0.00    +0.000 A 
ATOM     23  N   UNL     1      -2.123  14.186  20.466  0.00  0.00    +0.000 NA
ATOM     24  C   UNL     1      -1.654  15.533  20.748  0.00  0.00    +0.000 C 
ATOM     25  C   UNL     1      -0.161  15.412  20.877  0.00  0.00    +0.000 C 
ATOM     26  C   UNL     1       0.176  14.440  19.757  0.00  0.00    +0.000 C 
ATOM     27  C   UNL     1      -1.110  13.628  19.523  0.00  0.00    +0.000 C 
ENDROOT
BRANCH  16  28
ATOM     28  C   UNL     1      -2.876  15.474  23.925  0.00  0.00    +0.000 C 
BRANCH  28  29
ATOM     29  C   UNL     1      -1.754  15.974  24.766  0.00  0.00    +0.000 A 
ATOM     30  C   UNL     1      -0.845  16.888  24.228  0.00  0.00    +0.000 A 
ATOM     31  C   UNL     1       0.232  17.318  24.992  0.00  0.00    +0.000 A 
ATOM     32  C   UNL     1       0.386  16.855  26.298  0.00  0.00    +0.000 A 
ATOM     33  C   UNL     1      -0.551  15.982  26.853  0.00  0.00    +0.000 A 
ATOM     34  C   UNL     1      -1.626  15.548  26.093  0.00  0.00    +0.000 A 
ENDBRANCH  28  29
ENDBRANCH  16  28
TORSDOF 2
ENDMDL
MODEL 8
REMARK VINA RESULT:      -7.2      3.078      5.363
REMARK  Name = 
REMARK  2 active torsions:
REMARK  status: ('A' for Active; 'I' for Inactive)
REMARK    1  A    between atoms: N_16  and  C_17
REMARK    2  A    between atoms: C_17  and  C_18
REMARK                            x       y       z     vdW  Elec       q    Type
REMARK                         _______ _______ _______ _____ _____    ______ ____
ROOT
ATOM      1  O   UNL     1       5.025  15.985  18.617  0.00  0.00    +0.000 OA
ATOM      2  C   UNL     1       4.675  15.279  19.551  0.00  0.00    +0.000 C 
ATOM      3  C   UNL     1       3.354  14.547  19.584  0.00  0.00    +0.000 C 
ATOM      4  C   UNL     1       2.886  13.803  20.577  0.00  0.00    +0.000 C 
ATOM      5  C   UNL     1       3.553  14.243  21.826  0.00  0.00    +0.000 C 
ATOM      6  O   UNL     1       3.032  14.907  22.710  0.00  0.00    +0.000 OA
ATOM      7  C   UNL     1       5.006  14.355  21.837  0.00  0.00    +0.000 A 
ATOM      8  C   UNL     1       5.687  14.222  23.038  0.00  0.00    +0.000 A 
ATOM      9  C   UNL     1       6.947  14.790  23.169  0.00  0.00    +0.000 A 
ATOM     10  C   UNL     1       7.495  15.527  22.112  0.00  0.00    +0.000 A 
ATOM     11  C   UNL     1       6.801  15.664  20.906  0.00  0.00    +0.000 A 
ATOM     12  C   UNL     1       5.565  15.029  20.749  0.00  0.00    +0.000 A 
ATOM     13  C   UNL     1       1.398  13.496  20.356  0.00  0.00    +0.000 C 
ATOM     14  C   UNL     1       0.536  13.967  21.607  0.00  0.00    +0.000 C 
ATOM     15  O   UNL     1       0.656  14.914  22.369  0.00  0.00    +0.000 OA
ATOM     16  N   UNL     1      -0.489  13.048  21.823  0.00  0.00    +0.000 N 
ATOM     17  C   UNL     1      -0.088  11.843  21.248  0.00  0.00    +0.000 A 
ATOM     18  C   UNL     1      -0.560  10.606  21.652  0.00  0.00    +0.000 A 
ATOM     19  C   UNL     1      -0.166   9.502  20.918  0.00  0.00    +0.000 A 
ATOM     20  C   UNL     1       0.582   9.696  19.746  0.00  0.00    +0.000 A 
ATOM     21  C   UNL     1       1.128  10.964  19.422  0.00  0.00    +0.000 A 
ATOM     22  C   UNL     1       0.907  12.032  20.282  0.00  0.00    +0.000 A 
ATOM     23  N   UNL     1       1.105  14.142  19.005  0.00  0.00    +0.000 NA
ATOM     24  C   UNL     1      -0.030  15.032  18.827  0.00  0.00    +0.000 C 
ATOM     25  C   UNL     1       0.433  16.367  19.340  0.00  0.00    +0.000 C 
ATOM     26  C   UNL     1       1.858  16.432  18.814  0.00  0.00    +0.000 C 
ATOM     27  C   UNL     1       2.290  14.967  18.629  0.00  0.00    +0.000 C 
ENDROOT
BRANCH  16  28
ATOM     28  C   UNL     1      -1.768  13.600  21.380  0.00  0.00    +0.000 C 
BRANCH  28  29
ATOM     29  C   UNL     1      -2.920  13.279  22.267  0.00  0.00    +0.000 A 
ATOM     30  C   UNL     1      -4.217  13.306  21.750  0.00  0.00    +0.000 A 
ATOM     31  C   UNL     1      -5.297  13.056  22.585  0.00  0.00    +0.000 A 
ATOM     32  C   UNL     1      -5.080  12.756  23.930  0.00  0.00    +0.000 A 
ATOM     33  C   UNL     1      -3.782  12.678  24.435  0.00  0.00    +0.000 A 
ATOM     34  C   UNL     1      -2.700  12.928  23.604  0.00  0.00    +0.000 A 
ENDBRANCH  28  29
ENDBRANCH  16  28
TORSDOF 2
ENDMDL
MODEL 9
REMARK VINA RESULT:      -7.2      2.336      6.726
REMARK  Name = 
REMARK  2 active torsions:
REMARK  status: ('A' for Active; 'I' for Inactive)
REMARK    1  A    between atoms: N_16  and  C_17
REMARK    2  A    between atoms: C_17  and  C_18
REMARK                            x       y       z     vdW  Elec       q    Type
REMARK                         _______ _______ _______ _____ _____    ______ ____
ROOT
ATOM      1  O   UNL     1      -5.979  14.120  23.271  0.00  0.00    +0.000 OA
ATOM      2  C   UNL     1      -5.368  13.464  22.439  0.00  0.00    +0.000 C 
ATOM      3  C   UNL     1      -3.898  13.138  22.562  0.00  0.00    +0.000 C 
ATOM      4  C   UNL     1      -3.159  12.476  21.683  0.00  0.00    +0.000 C 
ATOM      5  C   UNL     1      -3.812  12.596  20.358  0.00  0.00    +0.000 C 
ATOM      6  O   UNL     1      -3.423  13.302  19.439  0.00  0.00    +0.000 OA
ATOM      7  C   UNL     1      -5.233  12.289  20.251  0.00  0.00    +0.000 A 
ATOM      8  C   UNL     1      -5.745  11.863  19.034  0.00  0.00    +0.000 A 
ATOM      9  C   UNL     1      -7.097  12.035  18.770  0.00  0.00    +0.000 A 
ATOM     10  C   UNL     1      -7.916  12.675  19.710  0.00  0.00    +0.000 A 
ATOM     11  C   UNL     1      -7.393  13.108  20.931  0.00  0.00    +0.000 A 
ATOM     12  C   UNL     1      -6.048  12.867  21.226  0.00  0.00    +0.000 A 
ATOM     13  C   UNL     1      -1.669  12.625  22.021  0.00  0.00    +0.000 C 
ATOM     14  C   UNL     1      -0.868  13.212  20.778  0.00  0.00    +0.000 C 
ATOM     15  O   UNL     1      -1.180  14.015  19.913  0.00  0.00    +0.000 OA
ATOM     16  N   UNL     1       0.387  12.607  20.721  0.00  0.00    +0.000 N 
ATOM     17  C   UNL     1       0.288  11.393  21.399  0.00  0.00    +0.000 A 
ATOM     18  C   UNL     1       1.118  10.311  21.158  0.00  0.00    +0.000 A 
ATOM     19  C   UNL     1       0.986   9.209  21.982  0.00  0.00    +0.000 A 
ATOM     20  C   UNL     1       0.115   9.284  23.082  0.00  0.00    +0.000 A 
ATOM     21  C   UNL     1      -0.787  10.366  23.236  0.00  0.00    +0.000 A 
ATOM     22  C   UNL     1      -0.798  11.374  22.280  0.00  0.00    +0.000 A 
ATOM     23  N   UNL     1      -1.683  13.443  23.309  0.00  0.00    +0.000 NA
ATOM     24  C   UNL     1      -0.859  14.631  23.455  0.00  0.00    +0.000 C 
ATOM     25  C   UNL     1      -1.629  15.730  22.776  0.00  0.00    +0.000 C 
ATOM     26  C   UNL     1      -3.056  15.431  23.209  0.00  0.00    +0.000 C 
ATOM     27  C   UNL     1      -3.078  13.925  23.525  0.00  0.00    +0.000 C 
ENDROOT
BRANCH  16  28
ATOM     28  C   UNL     1       1.420  13.537  21.175  0.00  0.00    +0.000 C 
BRANCH  28  29
ATOM     29  C   UNL     1       2.101  14.285  20.083  0.00  0.00    +0.000 A 
ATOM     30  C   UNL     1       2.675  13.584  19.021  0.00  0.00    +0.000 A 
ATOM     31  C   UNL     1       3.354  14.274  18.026  0.00  0.00    +0.000 A 
ATOM     32  C   UNL     1       3.438  15.665  18.080  0.00  0.00    +0.000 A 
ATOM     33  C   UNL     1       2.820  16.370  19.113  0.00  0.00    +0.000 A 
ATOM     34  C   UNL     1       2.143  15.684  20.110  0.00  0.00    +0.000 A 
ENDBRANCH  28  29
ENDBRANCH  16  28
TORSDOF 2
ENDMDL
