MODEL 1
REMARK VINA RESULT:      -7.9      0.000      0.000
REMARK  Name = 
REMARK  3 active torsions:
REMARK  status: ('A' for Active; 'I' for Inactive)
REMARK    1  A    between atoms: C_1  and  C_2
REMARK    2  A    between atoms: C_4  and  C_5
REMARK    3  A    between atoms: N_18  and  C_19
REMARK                            x       y       z     vdW  Elec       q    Type
REMARK                         _______ _______ _______ _____ _____    ______ ____
ROOT
ATOM      1  C   UNL     1       3.740   1.378  18.528  0.00  0.00    +0.000 C 
ATOM      2  C   UNL     1       3.738   2.859  18.457  0.00  0.00    +0.000 A 
ATOM      3  N   UNL     1       4.414   3.591  17.601  0.00  0.00    +0.000 NA
ATOM      4  C   UNL     1       4.010   4.893  17.812  0.00  0.00    +0.000 A 
ATOM      5  C   UNL     1       3.072   4.954  18.837  0.00  0.00    +0.000 A 
ATOM      6  C   UNL     1       2.266   5.947  19.517  0.00  0.00    +0.000 A 
ATOM      7  N   UNL     1       2.196   7.318  19.245  0.00  0.00    +0.000 N 
ATOM      8  C   UNL     1       1.972   7.822  17.873  0.00  0.00    +0.000 C 
ATOM      9  C   UNL     1       2.637   9.229  17.686  0.00  0.00    +0.000 C 
ATOM     10  C   UNL     1       1.921  10.139  18.606  0.00  0.00    +0.000 A 
ATOM     11  C   UNL     1       1.496  11.473  18.583  0.00  0.00    +0.000 A 
ATOM     12  N   UNL     1       0.560  11.683  19.520  0.00  0.00    +0.000 NA
ATOM     13  N   UNL     1       0.267  10.419  19.944  0.00  0.00    +0.000 N 
ATOM     14  C   UNL     1      -1.097   9.971  19.687  0.00  0.00    +0.000 C 
ATOM     15  C   UNL     1       1.378   9.616  19.763  0.00  0.00    +0.000 A 
ATOM     16  C   UNL     1       1.723   8.264  20.308  0.00  0.00    +0.000 C 
ATOM     17  N   UNL     1       1.539   5.509  20.511  0.00  0.00    +0.000 NA
ATOM     18  C   UNL     1       1.512   4.174  20.844  0.00  0.00    +0.000 A 
ATOM     19  N   UNL     1       2.164   3.224  20.262  0.00  0.00    +0.000 NA
ATOM     20  N   UNL     1       2.950   3.650  19.258  0.00  0.00    +0.000 N 
ENDROOT
BRANCH   4  21
ATOM     21  C   UNL     1       4.496   5.922  16.841  0.00  0.00    +0.000 C 
ATOM     22  C   UNL     1       5.188   5.229  15.673  0.00  0.00    +0.000 C 
ATOM     23  C   UNL     1       6.657   5.368  16.000  0.00  0.00    +0.000 C 
ATOM     24  O   UNL     1       6.793   6.619  16.675  0.00  0.00    +0.000 OA
ATOM     25  C   UNL     1       5.554   6.896  17.346  0.00  0.00    +0.000 C 
ENDBRANCH   4  21
TORSDOF 1
ENDMDL
MODEL 2
REMARK VINA RESULT:      -7.1      2.303      4.120
REMARK  Name = 
REMARK  3 active torsions:
REMARK  status: ('A' for Active; 'I' for Inactive)
REMARK    1  A    between atoms: C_1  and  C_2
REMARK    2  A    between atoms: C_4  and  C_5
REMARK    3  A    between atoms: N_18  and  C_19
REMARK                            x       y       z     vdW  Elec       q    Type
REMARK                         _______ _______ _______ _____ _____    ______ ____
ROOT
ATOM      1  C   UNL     1       5.194   3.549  17.112  0.00  0.00    +0.000 C 
ATOM      2  C   UNL     1       4.111   4.333  17.753  0.00  0.00    +0.000 A 
ATOM      3  N   UNL     1       3.263   3.887  18.651  0.00  0.00    +0.000 NA
ATOM      4  C   UNL     1       2.531   4.982  19.060  0.00  0.00    +0.000 A 
ATOM      5  C   UNL     1       2.936   6.124  18.377  0.00  0.00    +0.000 A 
ATOM      6  C   UNL     1       2.621   7.537  18.337  0.00  0.00    +0.000 A 
ATOM      7  N   UNL     1       1.695   8.226  19.130  0.00  0.00    +0.000 N 
ATOM      8  C   UNL     1       1.687   8.088  20.602  0.00  0.00    +0.000 C 
ATOM      9  C   UNL     1       0.240   8.301  21.167  0.00  0.00    +0.000 C 
ATOM     10  C   UNL     1      -0.110   9.705  20.860  0.00  0.00    +0.000 A 
ATOM     11  C   UNL     1      -0.816  10.733  21.495  0.00  0.00    +0.000 A 
ATOM     12  N   UNL     1      -0.508  11.919  20.949  0.00  0.00    +0.000 NA
ATOM     13  N   UNL     1       0.551  11.616  20.144  0.00  0.00    +0.000 N 
ATOM     14  C   UNL     1       1.816  12.247  20.504  0.00  0.00    +0.000 C 
ATOM     15  C   UNL     1       0.448  10.296  19.744  0.00  0.00    +0.000 A 
ATOM     16  C   UNL     1       1.136   9.534  18.654  0.00  0.00    +0.000 C 
ATOM     17  N   UNL     1       3.263   8.240  17.441  0.00  0.00    +0.000 NA
ATOM     18  C   UNL     1       4.215   7.667  16.630  0.00  0.00    +0.000 A 
ATOM     19  N   UNL     1       4.584   6.430  16.634  0.00  0.00    +0.000 NA
ATOM     20  N   UNL     1       3.914   5.674  17.521  0.00  0.00    +0.000 N 
ENDROOT
BRANCH   4  21
ATOM     21  C   UNL     1       1.605   4.787  20.218  0.00  0.00    +0.000 C 
ATOM     22  C   UNL     1       2.420   4.531  21.480  0.00  0.00    +0.000 C 
ATOM     23  C   UNL     1       2.356   3.030  21.643  0.00  0.00    +0.000 C 
ATOM     24  O   UNL     1       1.073   2.635  21.155  0.00  0.00    +0.000 OA
ATOM     25  C   UNL     1       0.671   3.585  20.155  0.00  0.00    +0.000 C 
ENDBRANCH   4  21
TORSDOF 1
ENDMDL
MODEL 3
REMARK VINA RESULT:      -6.7      5.515      8.622
REMARK  Name = 
REMARK  3 active torsions:
REMARK  status: ('A' for Active; 'I' for Inactive)
REMARK    1  A    between atoms: C_1  and  C_2
REMARK    2  A    between atoms: C_4  and  C_5
REMARK    3  A    between atoms: N_18  and  C_19
REMARK                            x       y       z     vdW  Elec       q    Type
REMARK                         _______ _______ _______ _____ _____    ______ ____
ROOT
ATOM      1  C   UNL     1      -2.825  10.148  15.223  0.00  0.00    +0.000 C 
ATOM      2  C   UNL     1      -2.592  10.527  16.638  0.00  0.00    +0.000 A 
ATOM      3  N   UNL     1      -1.472  10.364  17.304  0.00  0.00    +0.000 NA
ATOM      4  C   UNL     1      -1.666  10.976  18.526  0.00  0.00    +0.000 A 
ATOM      5  C   UNL     1      -2.947  11.511  18.608  0.00  0.00    +0.000 A 
ATOM      6  C   UNL     1      -3.754  12.262  19.547  0.00  0.00    +0.000 A 
ATOM      7  N   UNL     1      -3.372  12.743  20.805  0.00  0.00    +0.000 N 
ATOM      8  C   UNL     1      -2.126  13.518  20.988  0.00  0.00    +0.000 C 
ATOM      9  C   UNL     1      -1.553  13.307  22.432  0.00  0.00    +0.000 C 
ATOM     10  C   UNL     1      -2.560  13.878  23.353  0.00  0.00    +0.000 A 
ATOM     11  C   UNL     1      -2.541  14.591  24.557  0.00  0.00    +0.000 A 
ATOM     12  N   UNL     1      -3.722  15.190  24.766  0.00  0.00    +0.000 NA
ATOM     13  N   UNL     1      -4.364  15.017  23.574  0.00  0.00    +0.000 N 
ATOM     14  C   UNL     1      -4.670  16.241  22.842  0.00  0.00    +0.000 C 
ATOM     15  C   UNL     1      -3.886  13.869  22.969  0.00  0.00    +0.000 A 
ATOM     16  C   UNL     1      -4.419  13.052  21.833  0.00  0.00    +0.000 C 
ATOM     17  N   UNL     1      -4.987  12.497  19.179  0.00  0.00    +0.000 NA
ATOM     18  C   UNL     1      -5.457  12.093  17.951  0.00  0.00    +0.000 A 
ATOM     19  N   UNL     1      -4.790  11.461  17.044  0.00  0.00    +0.000 NA
ATOM     20  N   UNL     1      -3.529  11.173  17.408  0.00  0.00    +0.000 N 
ENDROOT
BRANCH   4  21
ATOM     21  C   UNL     1      -0.475  11.095  19.423  0.00  0.00    +0.000 C 
ATOM     22  C   UNL     1       0.792  10.808  18.625  0.00  0.00    +0.000 C 
ATOM     23  C   UNL     1       1.118   9.377  18.984  0.00  0.00    +0.000 C 
ATOM     24  O   UNL     1       0.701   9.206  20.339  0.00  0.00    +0.000 OA
ATOM     25  C   UNL     1      -0.388  10.110  20.583  0.00  0.00    +0.000 C 
ENDBRANCH   4  21
TORSDOF 1
ENDMDL
MODEL 4
REMARK VINA RESULT:      -6.5      8.763     10.631
REMARK  Name = 
REMARK  3 active torsions:
REMARK  status: ('A' for Active; 'I' for Inactive)
REMARK    1  A    between atoms: C_1  and  C_2
REMARK    2  A    between atoms: C_4  and  C_5
REMARK    3  A    between atoms: N_18  and  C_19
REMARK                            x       y       z     vdW  Elec       q    Type
REMARK                         _______ _______ _______ _____ _____    ______ ____
ROOT
ATOM      1  C   UNL     1      10.556  16.718  16.994  0.00  0.00    +0.000 C 
ATOM      2  C   UNL     1       9.958  15.697  17.890  0.00  0.00    +0.000 A 
ATOM      3  N   UNL     1      10.317  14.437  17.970  0.00  0.00    +0.000 NA
ATOM      4  C   UNL     1       9.593  13.902  19.016  0.00  0.00    +0.000 A 
ATOM      5  C   UNL     1       8.759  14.863  19.576  0.00  0.00    +0.000 A 
ATOM      6  C   UNL     1       7.801  14.977  20.656  0.00  0.00    +0.000 A 
ATOM      7  N   UNL     1       7.438  13.990  21.580  0.00  0.00    +0.000 N 
ATOM      8  C   UNL     1       8.457  13.224  22.330  0.00  0.00    +0.000 C 
ATOM      9  C   UNL     1       7.921  11.794  22.685  0.00  0.00    +0.000 C 
ATOM     10  C   UNL     1       6.777  12.007  23.598  0.00  0.00    +0.000 A 
ATOM     11  C   UNL     1       6.249  11.367  24.725  0.00  0.00    +0.000 A 
ATOM     12  N   UNL     1       5.426  12.191  25.390  0.00  0.00    +0.000 NA
ATOM     13  N   UNL     1       5.645  13.393  24.782  0.00  0.00    +0.000 N 
ATOM     14  C   UNL     1       6.225  14.429  25.630  0.00  0.00    +0.000 C 
ATOM     15  C   UNL     1       6.042  13.170  23.477  0.00  0.00    +0.000 A 
ATOM     16  C   UNL     1       6.124  14.087  22.295  0.00  0.00    +0.000 C 
ATOM     17  N   UNL     1       7.194  16.130  20.762  0.00  0.00    +0.000 NA
ATOM     18  C   UNL     1       7.496  17.177  19.923  0.00  0.00    +0.000 A 
ATOM     19  N   UNL     1       8.365  17.170  18.969  0.00  0.00    +0.000 NA
ATOM     20  N   UNL     1       8.980  15.985  18.812  0.00  0.00    +0.000 N 
ENDROOT
BRANCH   4  21
ATOM     21  C   UNL     1       9.943  12.512  19.444  0.00  0.00    +0.000 C 
ATOM     22  C   UNL     1      11.130  12.558  20.397  0.00  0.00    +0.000 C 
ATOM     23  C   UNL     1      12.304  12.193  19.518  0.00  0.00    +0.000 C 
ATOM     24  O   UNL     1      11.800  11.268  18.553  0.00  0.00    +0.000 OA
ATOM     25  C   UNL     1      10.407  11.554  18.353  0.00  0.00    +0.000 C 
ENDBRANCH   4  21
TORSDOF 1
ENDMDL
MODEL 5
REMARK VINA RESULT:      -6.2      6.910     10.048
REMARK  Name = 
REMARK  3 active torsions:
REMARK  status: ('A' for Active; 'I' for Inactive)
REMARK    1  A    between atoms: C_1  and  C_2
REMARK    2  A    between atoms: C_4  and  C_5
REMARK    3  A    between atoms: N_18  and  C_19
REMARK                            x       y       z     vdW  Elec       q    Type
REMARK                         _______ _______ _______ _____ _____    ______ ____
ROOT
ATOM      1  C   UNL     1      -7.360  11.090  20.234  0.00  0.00    +0.000 C 
ATOM      2  C   UNL     1      -6.041  11.757  20.365  0.00  0.00    +0.000 A 
ATOM      3  N   UNL     1      -5.615  12.422  21.413  0.00  0.00    +0.000 NA
ATOM      4  C   UNL     1      -4.301  12.748  21.147  0.00  0.00    +0.000 A 
ATOM      5  C   UNL     1      -3.925  12.280  19.893  0.00  0.00    +0.000 A 
ATOM      6  C   UNL     1      -2.750  12.258  19.047  0.00  0.00    +0.000 A 
ATOM      7  N   UNL     1      -1.477  12.760  19.344  0.00  0.00    +0.000 N 
ATOM      8  C   UNL     1      -0.789  12.418  20.607  0.00  0.00    +0.000 C 
ATOM      9  C   UNL     1       0.172  13.578  21.043  0.00  0.00    +0.000 C 
ATOM     10  C   UNL     1       1.209  13.660  19.991  0.00  0.00    +0.000 A 
ATOM     11  C   UNL     1       2.584  13.917  19.944  0.00  0.00    +0.000 A 
ATOM     12  N   UNL     1       3.099  13.495  18.781  0.00  0.00    +0.000 NA
ATOM     13  N   UNL     1       2.072  12.782  18.235  0.00  0.00    +0.000 N 
ATOM     14  C   UNL     1       2.323  11.356  18.055  0.00  0.00    +0.000 C 
ATOM     15  C   UNL     1       0.875  13.289  18.704  0.00  0.00    +0.000 A 
ATOM     16  C   UNL     1      -0.534  13.104  18.230  0.00  0.00    +0.000 C 
ATOM     17  N   UNL     1      -2.908  11.725  17.864  0.00  0.00    +0.000 NA
ATOM     18  C   UNL     1      -4.110  11.177  17.481  0.00  0.00    +0.000 A 
ATOM     19  N   UNL     1      -5.187  11.117  18.190  0.00  0.00    +0.000 NA
ATOM     20  N   UNL     1      -5.066  11.691  19.399  0.00  0.00    +0.000 N 
ENDROOT
BRANCH   4  21
ATOM     21  C   UNL     1      -3.513  13.360  22.262  0.00  0.00    +0.000 C 
ATOM     22  C   UNL     1      -3.159  12.285  23.282  0.00  0.00    +0.000 C 
ATOM     23  C   UNL     1      -4.180  12.489  24.378  0.00  0.00    +0.000 C 
ATOM     24  O   UNL     1      -4.441  13.893  24.417  0.00  0.00    +0.000 OA
ATOM     25  C   UNL     1      -4.219  14.420  23.100  0.00  0.00    +0.000 C 
ENDBRANCH   4  21
TORSDOF 1
ENDMDL
MODEL 6
REMARK VINA RESULT:      -5.9      6.381      9.430
REMARK  Name = 
REMARK  3 active torsions:
REMARK  status: ('A' for Active; 'I' for Inactive)
REMARK    1  A    between atoms: C_1  and  C_2
REMARK    2  A    between atoms: C_4  and  C_5
REMARK    3  A    between atoms: N_18  and  C_19
REMARK                            x       y       z     vdW  Elec       q    Type
REMARK                         _______ _______ _______ _____ _____    ______ ____
ROOT
ATOM      1  C   UNL     1      -2.486  10.006  16.294  0.00  0.00    +0.000 C 
ATOM      2  C   UNL     1      -2.476  10.672  17.619  0.00  0.00    +0.000 A 
ATOM      3  N   UNL     1      -1.423  10.859  18.380  0.00  0.00    +0.000 NA
ATOM      4  C   UNL     1      -1.853  11.629  19.442  0.00  0.00    +0.000 A 
ATOM      5  C   UNL     1      -3.212  11.903  19.328  0.00  0.00    +0.000 A 
ATOM      6  C   UNL     1      -4.238  12.633  20.044  0.00  0.00    +0.000 A 
ATOM      7  N   UNL     1      -4.086  13.398  21.206  0.00  0.00    +0.000 N 
ATOM      8  C   UNL     1      -3.030  14.427  21.318  0.00  0.00    +0.000 C 
ATOM      9  C   UNL     1      -2.583  14.598  22.812  0.00  0.00    +0.000 C 
ATOM     10  C   UNL     1      -3.770  15.111  23.531  0.00  0.00    +0.000 A 
ATOM     11  C   UNL     1      -4.009  16.019  24.569  0.00  0.00    +0.000 A 
ATOM     12  N   UNL     1      -5.295  16.396  24.575  0.00  0.00    +0.000 NA
ATOM     13  N   UNL     1      -5.765  15.887  23.399  0.00  0.00    +0.000 N 
ATOM     14  C   UNL     1      -6.212  16.873  22.421  0.00  0.00    +0.000 C 
ATOM     15  C   UNL     1      -5.024  14.769  23.066  0.00  0.00    +0.000 A 
ATOM     16  C   UNL     1      -5.274  13.671  22.078  0.00  0.00    +0.000 C 
ATOM     17  N   UNL     1      -5.447  12.546  19.553  0.00  0.00    +0.000 NA
ATOM     18  C   UNL     1      -5.702  11.842  18.399  0.00  0.00    +0.000 A 
ATOM     19  N   UNL     1      -4.839  11.205  17.682  0.00  0.00    +0.000 NA
ATOM     20  N   UNL     1      -3.592  11.245  18.182  0.00  0.00    +0.000 N 
ENDROOT
BRANCH   4  21
ATOM     21  C   UNL     1      -0.806  12.143  20.377  0.00  0.00    +0.000 C 
ATOM     22  C   UNL     1       0.574  11.782  19.841  0.00  0.00    +0.000 C 
ATOM     23  C   UNL     1       0.962  10.567  20.653  0.00  0.00    +0.000 C 
ATOM     24  O   UNL     1       0.382  10.756  21.945  0.00  0.00    +0.000 OA
ATOM     25  C   UNL     1      -0.797  11.560  21.785  0.00  0.00    +0.000 C 
ENDBRANCH   4  21
TORSDOF 1
ENDMDL
MODEL 7
REMARK VINA RESULT:      -5.9      5.683      9.007
REMARK  Name = 
REMARK  3 active torsions:
REMARK  status: ('A' for Active; 'I' for Inactive)
REMARK    1  A    between atoms: C_1  and  C_2
REMARK    2  A    between atoms: C_4  and  C_5
REMARK    3  A    between atoms: N_18  and  C_19
REMARK                            x       y       z     vdW  Elec       q    Type
REMARK                         _______ _______ _______ _____ _____    ______ ____
ROOT
ATOM      1  C   UNL     1       1.349   9.826  18.771  0.00  0.00    +0.000 C 
ATOM      2  C   UNL     1      -0.004  10.430  18.690  0.00  0.00    +0.000 A 
ATOM      3  N   UNL     1      -0.941  10.108  17.829  0.00  0.00    +0.000 NA
ATOM      4  C   UNL     1      -2.063  10.818  18.205  0.00  0.00    +0.000 A 
ATOM      5  C   UNL     1      -1.792  11.607  19.319  0.00  0.00    +0.000 A 
ATOM      6  C   UNL     1      -2.485  12.530  20.193  0.00  0.00    +0.000 A 
ATOM      7  N   UNL     1      -3.835  12.897  20.146  0.00  0.00    +0.000 N 
ATOM      8  C   UNL     1      -4.908  11.882  20.078  0.00  0.00    +0.000 C 
ATOM      9  C   UNL     1      -6.159  12.453  19.324  0.00  0.00    +0.000 C 
ATOM     10  C   UNL     1      -6.663  13.563  20.161  0.00  0.00    +0.000 A 
ATOM     11  C   UNL     1      -7.916  14.079  20.511  0.00  0.00    +0.000 A 
ATOM     12  N   UNL     1      -7.816  14.857  21.598  0.00  0.00    +0.000 NA
ATOM     13  N   UNL     1      -6.542  14.617  22.026  0.00  0.00    +0.000 N 
ATOM     14  C   UNL     1      -6.428  13.983  23.335  0.00  0.00    +0.000 C 
ATOM     15  C   UNL     1      -5.763  14.264  20.940  0.00  0.00    +0.000 A 
ATOM     16  C   UNL     1      -4.277  14.187  20.769  0.00  0.00    +0.000 C 
ATOM     17  N   UNL     1      -1.755  13.097  21.118  0.00  0.00    +0.000 NA
ATOM     18  C   UNL     1      -0.424  12.786  21.270  0.00  0.00    +0.000 A 
ATOM     19  N   UNL     1       0.253  11.945  20.563  0.00  0.00    +0.000 NA
ATOM     20  N   UNL     1      -0.462  11.372  19.580  0.00  0.00    +0.000 N 
ENDROOT
BRANCH   4  21
ATOM     21  C   UNL     1      -3.340  10.501  17.494  0.00  0.00    +0.000 C 
ATOM     22  C   UNL     1      -3.099   9.370  16.501  0.00  0.00    +0.000 C 
ATOM     23  C   UNL     1      -2.963  10.086  15.177  0.00  0.00    +0.000 C 
ATOM     24  O   UNL     1      -3.831  11.217  15.250  0.00  0.00    +0.000 OA
ATOM     25  C   UNL     1      -3.936  11.605  16.629  0.00  0.00    +0.000 C 
ENDBRANCH   4  21
TORSDOF 1
ENDMDL
MODEL 8
REMARK VINA RESULT:      -5.8      7.253      8.865
REMARK  Name = 
REMARK  3 active torsions:
REMARK  status: ('A' for Active; 'I' for Inactive)
REMARK    1  A    between atoms: C_1  and  C_2
REMARK    2  A    between atoms: C_4  and  C_5
REMARK    3  A    between atoms: N_18  and  C_19
REMARK                            x       y       z     vdW  Elec       q    Type
REMARK                         _______ _______ _______ _____ _____    ______ ____
ROOT
ATOM      1  C   UNL     1      -7.130  11.490  18.806  0.00  0.00    +0.000 C 
ATOM      2  C   UNL     1      -5.647  11.521  18.786  0.00  0.00    +0.000 A 
ATOM      3  N   UNL     1      -4.882  11.147  17.786  0.00  0.00    +0.000 NA
ATOM      4  C   UNL     1      -3.592  11.473  18.153  0.00  0.00    +0.000 A 
ATOM      5  C   UNL     1      -3.574  12.046  19.420  0.00  0.00    +0.000 A 
ATOM      6  C   UNL     1      -2.612  12.606  20.347  0.00  0.00    +0.000 A 
ATOM      7  N   UNL     1      -1.235  12.764  20.154  0.00  0.00    +0.000 N 
ATOM      8  C   UNL     1      -0.696  13.405  18.936  0.00  0.00    +0.000 C 
ATOM      9  C   UNL     1       0.726  12.837  18.597  0.00  0.00    +0.000 C 
ATOM     10  C   UNL     1       1.599  13.237  19.722  0.00  0.00    +0.000 A 
ATOM     11  C   UNL     1       2.926  13.654  19.874  0.00  0.00    +0.000 A 
ATOM     12  N   UNL     1       3.096  14.254  21.061  0.00  0.00    +0.000 NA
ATOM     13  N   UNL     1       1.817  14.395  21.515  0.00  0.00    +0.000 N 
ATOM     14  C   UNL     1       1.356  15.770  21.679  0.00  0.00    +0.000 C 
ATOM     15  C   UNL     1       1.035  13.392  20.973  0.00  0.00    +0.000 A 
ATOM     16  C   UNL     1      -0.327  12.888  21.341  0.00  0.00    +0.000 C 
ATOM     17  N   UNL     1      -3.089  12.987  21.503  0.00  0.00    +0.000 NA
ATOM     18  C   UNL     1      -4.433  12.903  21.786  0.00  0.00    +0.000 A 
ATOM     19  N   UNL     1      -5.356  12.459  21.000  0.00  0.00    +0.000 NA
ATOM     20  N   UNL     1      -4.891  12.025  19.817  0.00  0.00    +0.000 N 
ENDROOT
BRANCH   4  21
ATOM     21  C   UNL     1      -2.529  11.316  17.113  0.00  0.00    +0.000 C 
ATOM     22  C   UNL     1      -3.133  11.544  15.732  0.00  0.00    +0.000 C 
ATOM     23  C   UNL     1      -3.346  10.144  15.205  0.00  0.00    +0.000 C 
ATOM     24  O   UNL     1      -2.283   9.355  15.740  0.00  0.00    +0.000 OA
ATOM     25  C   UNL     1      -1.886   9.940  16.990  0.00  0.00    +0.000 C 
ENDBRANCH   4  21
TORSDOF 1
ENDMDL
MODEL 9
REMARK VINA RESULT:      -5.8      7.225     10.434
REMARK  Name = 
REMARK  3 active torsions:
REMARK  status: ('A' for Active; 'I' for Inactive)
REMARK    1  A    between atoms: C_1  and  C_2
REMARK    2  A    between atoms: C_4  and  C_5
REMARK    3  A    between atoms: N_18  and  C_19
REMARK                            x       y       z     vdW  Elec       q    Type
REMARK                         _______ _______ _______ _____ _____    ______ ____
ROOT
ATOM      1  C   UNL     1      -1.758   9.852  17.284  0.00  0.00    +0.000 C 
ATOM      2  C   UNL     1      -2.462  10.905  18.057  0.00  0.00    +0.000 A 
ATOM      3  N   UNL     1      -3.737  11.208  17.962  0.00  0.00    +0.000 NA
ATOM      4  C   UNL     1      -3.979  12.141  18.950  0.00  0.00    +0.000 A 
ATOM      5  C   UNL     1      -2.813  12.422  19.654  0.00  0.00    +0.000 A 
ATOM      6  C   UNL     1      -2.386  13.245  20.767  0.00  0.00    +0.000 A 
ATOM      7  N   UNL     1      -3.180  14.077  21.565  0.00  0.00    +0.000 N 
ATOM      8  C   UNL     1      -4.433  13.590  22.179  0.00  0.00    +0.000 C 
ATOM      9  C   UNL     1      -5.453  14.767  22.361  0.00  0.00    +0.000 C 
ATOM     10  C   UNL     1      -4.827  15.697  23.326  0.00  0.00    +0.000 A 
ATOM     11  C   UNL     1      -5.267  16.513  24.376  0.00  0.00    +0.000 A 
ATOM     12  N   UNL     1      -4.239  16.855  25.165  0.00  0.00    +0.000 NA
ATOM     13  N   UNL     1      -3.230  16.055  24.713  0.00  0.00    +0.000 N 
ATOM     14  C   UNL     1      -2.725  15.078  25.671  0.00  0.00    +0.000 C 
ATOM     15  C   UNL     1      -3.449  15.767  23.379  0.00  0.00    +0.000 A 
ATOM     16  C   UNL     1      -2.546  15.204  22.324  0.00  0.00    +0.000 C 
ATOM     17  N   UNL     1      -1.108  13.217  21.039  0.00  0.00    +0.000 NA
ATOM     18  C   UNL     1      -0.243  12.411  20.335  0.00  0.00    +0.000 A 
ATOM     19  N   UNL     1      -0.552  11.620  19.363  0.00  0.00    +0.000 NA
ATOM     20  N   UNL     1      -1.854  11.654  19.036  0.00  0.00    +0.000 N 
ENDROOT
BRANCH   4  21
ATOM     21  C   UNL     1      -5.405  12.529  19.183  0.00  0.00    +0.000 C 
ATOM     22  C   UNL     1      -6.138  11.380  19.865  0.00  0.00    +0.000 C 
ATOM     23  C   UNL     1      -6.884  10.715  18.732  0.00  0.00    +0.000 C 
ATOM     24  O   UNL     1      -7.237  11.761  17.825  0.00  0.00    +0.000 OA
ATOM     25  C   UNL     1      -6.253  12.800  17.946  0.00  0.00    +0.000 C 
ENDBRANCH   4  21
TORSDOF 1
ENDMDL
