MODEL 1
REMARK VINA RESULT:      -7.3      0.000      0.000
REMARK  Name = 
REMARK  6 active torsions:
REMARK  status: ('A' for Active; 'I' for Inactive)
REMARK    1  A    between atoms: C_1  and  O_2
REMARK    2  A    between atoms: O_2  and  C_3
REMARK    3  A    between atoms: N_14  and  C_16
REMARK    4  A    between atoms: C_16  and  C_17
REMARK    5  A    between atoms: C_17  and  C_18
REMARK    6  A    between atoms: N_27  and  C_28
REMARK                            x       y       z     vdW  Elec       q    Type
REMARK                         _______ _______ _______ _____ _____    ______ ____
ROOT
ATOM      1  C   UNL     1       7.577  16.118  18.634  0.00  0.00    +0.000 C 
ATOM      2  C   UNL     1       6.889  15.005  19.467  0.00  0.00    +0.000 C 
ATOM      3  C   UNL     1       8.035  14.424  19.745  0.00  0.00    +0.000 C 
ATOM      4  C   UNL     1       9.241  13.797  20.064  0.00  0.00    +0.000 C 
ATOM      5  C   UNL     1       8.941  13.561  21.595  0.00  0.00    +0.000 A 
ATOM      6  C   UNL     1       8.275  14.530  22.470  0.00  0.00    +0.000 A 
ATOM      7  C   UNL     1       7.708  14.097  23.656  0.00  0.00    +0.000 A 
ATOM      8  C   UNL     1       8.148  12.954  24.218  0.00  0.00    +0.000 A 
ATOM      9  C   UNL     1       8.389  11.947  23.309  0.00  0.00    +0.000 A 
ATOM     10  C   UNL     1       8.827  12.231  22.002  0.00  0.00    +0.000 A 
ATOM     11  C   UNL     1       8.880  11.124  20.978  0.00  0.00    +0.000 C 
ATOM     12  N   UNL     1       9.846  11.360  19.811  0.00  0.00    +0.000 N 
ATOM     13  O   UNL     1      11.112  11.548  20.294  0.00  0.00    +0.000 OA
ATOM     14  C   UNL     1       9.379  12.598  19.071  0.00  0.00    +0.000 C 
ATOM     15  C   UNL     1      10.335  13.122  17.943  0.00  0.00    +0.000 C 
ATOM     16  O   UNL     1      10.619  12.675  16.860  0.00  0.00    +0.000 OA
ATOM     17  N   UNL     1      10.783  14.386  18.236  0.00  0.00    +0.000 N 
ATOM     18  C   UNL     1      11.677  15.139  17.364  0.00  0.00    +0.000 C 
ATOM     19  C   UNL     1      10.093  14.962  19.348  0.00  0.00    +0.000 C 
ATOM     20  C   UNL     1       9.231  16.251  18.781  0.00  0.00    +0.000 C 
ATOM     21  O   UNL     1       7.511  12.727  25.413  0.00  0.00    +0.000 OA
ATOM     22  C   UNL     1       6.225  13.122  24.945  0.00  0.00    +0.000 C 
ATOM     23  O   UNL     1       6.373  14.275  24.052  0.00  0.00    +0.000 OA
ENDROOT
BRANCH   1  25
ATOM     24  C   UNL     1       5.734  17.363  19.341  0.00  0.00    +0.000 C 
ATOM     25  O   UNL     1       7.089  17.405  18.950  0.00  0.00    +0.000 OA
ENDBRANCH   1  25
BRANCH  12  26
ATOM     26  C   UNL     1       9.804  10.128  18.913  0.00  0.00    +0.000 C 
BRANCH  26  27
ATOM     27  C   UNL     1       8.475   9.882  18.234  0.00  0.00    +0.000 C 
BRANCH  27  28
ATOM     28  C   UNL     1       8.124   8.448  18.144  0.00  0.00    +0.000 A 
ATOM     29  C   UNL     1       7.348   7.977  17.070  0.00  0.00    +0.000 A 
ATOM     30  C   UNL     1       6.959   6.654  17.052  0.00  0.00    +0.000 A 
ATOM     31  C   UNL     1       7.394   5.800  18.064  0.00  0.00    +0.000 A 
ATOM     32  C   UNL     1       8.208   6.270  19.097  0.00  0.00    +0.000 A 
ATOM     33  C   UNL     1       8.562   7.601  19.147  0.00  0.00    +0.000 A 
ENDBRANCH  27  28
ENDBRANCH  26  27
ENDBRANCH  12  26
TORSDOF 4
ENDMDL
MODEL 2
REMARK VINA RESULT:      -6.8      6.832      8.260
REMARK  Name = 
REMARK  6 active torsions:
REMARK  status: ('A' for Active; 'I' for Inactive)
REMARK    1  A    between atoms: C_1  and  O_2
REMARK    2  A    between atoms: O_2  and  C_3
REMARK    3  A    between atoms: N_14  and  C_16
REMARK    4  A    between atoms: C_16  and  C_17
REMARK    5  A    between atoms: C_17  and  C_18
REMARK    6  A    between atoms: N_27  and  C_28
REMARK                            x       y       z     vdW  Elec       q    Type
REMARK                         _______ _______ _______ _____ _____    ______ ____
ROOT
ATOM      1  C   UNL     1       0.549  16.772  18.598  0.00  0.00    +0.000 C 
ATOM      2  C   UNL     1      -0.705  16.053  19.159  0.00  0.00    +0.000 C 
ATOM      3  C   UNL     1       0.020  15.173  19.814  0.00  0.00    +0.000 C 
ATOM      4  C   UNL     1       0.769  14.236  20.528  0.00  0.00    +0.000 C 
ATOM      5  C   UNL     1      -0.059  14.302  21.869  0.00  0.00    +0.000 A 
ATOM      6  C   UNL     1      -0.589  15.535  22.458  0.00  0.00    +0.000 A 
ATOM      7  C   UNL     1      -1.613  15.460  23.386  0.00  0.00    +0.000 A 
ATOM      8  C   UNL     1      -1.796  14.316  24.074  0.00  0.00    +0.000 A 
ATOM      9  C   UNL     1      -1.644  13.180  23.309  0.00  0.00    +0.000 A 
ATOM     10  C   UNL     1      -0.748  13.142  22.225  0.00  0.00    +0.000 A 
ATOM     11  C   UNL     1      -0.761  11.958  21.290  0.00  0.00    +0.000 C 
ATOM     12  N   UNL     1       0.541  11.722  20.516  0.00  0.00    +0.000 N 
ATOM     13  O   UNL     1       1.573  11.551  21.398  0.00  0.00    +0.000 OA
ATOM     14  C   UNL     1       0.789  12.942  19.651  0.00  0.00    +0.000 C 
ATOM     15  C   UNL     1       2.171  12.986  18.908  0.00  0.00    +0.000 C 
ATOM     16  O   UNL     1       2.608  12.339  17.990  0.00  0.00    +0.000 OA
ATOM     17  N   UNL     1       2.911  14.064  19.325  0.00  0.00    +0.000 N 
ATOM     18  C   UNL     1       4.236  14.373  18.800  0.00  0.00    +0.000 C 
ATOM     19  C   UNL     1       2.150  14.966  20.132  0.00  0.00    +0.000 C 
ATOM     20  C   UNL     1       2.011  16.382  19.295  0.00  0.00    +0.000 C 
ATOM     21  O   UNL     1      -2.813  14.457  24.986  0.00  0.00    +0.000 OA
ATOM     22  C   UNL     1      -3.667  15.183  24.106  0.00  0.00    +0.000 C 
ATOM     23  O   UNL     1      -2.856  16.106  23.305  0.00  0.00    +0.000 OA
ENDROOT
BRANCH   1  25
ATOM     24  C   UNL     1      -0.860  18.631  18.540  0.00  0.00    +0.000 C 
ATOM     25  O   UNL     1       0.463  18.176  18.720  0.00  0.00    +0.000 OA
ENDBRANCH   1  25
BRANCH  12  26
ATOM     26  C   UNL     1       0.362  10.468  19.668  0.00  0.00    +0.000 C 
BRANCH  26  27
ATOM     27  C   UNL     1       0.788   9.181  20.341  0.00  0.00    +0.000 C 
BRANCH  27  28
ATOM     28  C   UNL     1       1.664   8.344  19.494  0.00  0.00    +0.000 A 
ATOM     29  C   UNL     1       2.108   7.092  19.956  0.00  0.00    +0.000 A 
ATOM     30  C   UNL     1       2.994   6.367  19.188  0.00  0.00    +0.000 A 
ATOM     31  C   UNL     1       3.381   6.861  17.943  0.00  0.00    +0.000 A 
ATOM     32  C   UNL     1       2.893   8.082  17.473  0.00  0.00    +0.000 A 
ATOM     33  C   UNL     1       2.043   8.835  18.256  0.00  0.00    +0.000 A 
ENDBRANCH  27  28
ENDBRANCH  26  27
ENDBRANCH  12  26
TORSDOF 4
ENDMDL
MODEL 3
REMARK VINA RESULT:      -6.7      8.190     11.643
REMARK  Name = 
REMARK  6 active torsions:
REMARK  status: ('A' for Active; 'I' for Inactive)
REMARK    1  A    between atoms: C_1  and  O_2
REMARK    2  A    between atoms: O_2  and  C_3
REMARK    3  A    between atoms: N_14  and  C_16
REMARK    4  A    between atoms: C_16  and  C_17
REMARK    5  A    between atoms: C_17  and  C_18
REMARK    6  A    between atoms: N_27  and  C_28
REMARK                            x       y       z     vdW  Elec       q    Type
REMARK                         _______ _______ _______ _____ _____    ______ ____
ROOT
ATOM      1  C   UNL     1      -4.190  13.322  22.274  0.00  0.00    +0.000 C 
ATOM      2  C   UNL     1      -3.458  13.232  20.909  0.00  0.00    +0.000 C 
ATOM      3  C   UNL     1      -2.280  13.420  21.462  0.00  0.00    +0.000 C 
ATOM      4  C   UNL     1      -1.018  13.605  22.029  0.00  0.00    +0.000 C 
ATOM      5  C   UNL     1      -0.272  12.470  21.224  0.00  0.00    +0.000 A 
ATOM      6  C   UNL     1      -0.842  11.153  20.927  0.00  0.00    +0.000 A 
ATOM      7  C   UNL     1      -0.299  10.393  19.905  0.00  0.00    +0.000 A 
ATOM      8  C   UNL     1       0.971  10.622  19.518  0.00  0.00    +0.000 A 
ATOM      9  C   UNL     1       1.300  11.959  19.461  0.00  0.00    +0.000 A 
ATOM     10  C   UNL     1       0.717  12.893  20.337  0.00  0.00    +0.000 A 
ATOM     11  C   UNL     1       0.944  14.368  20.110  0.00  0.00    +0.000 C 
ATOM     12  N   UNL     1       0.769  15.254  21.349  0.00  0.00    +0.000 N 
ATOM     13  O   UNL     1       1.626  14.842  22.332  0.00  0.00    +0.000 OA
ATOM     14  C   UNL     1      -0.667  15.113  21.814  0.00  0.00    +0.000 C 
ATOM     15  C   UNL     1      -1.014  15.801  23.181  0.00  0.00    +0.000 C 
ATOM     16  O   UNL     1      -1.105  16.961  23.496  0.00  0.00    +0.000 OA
ATOM     17  N   UNL     1      -1.416  14.868  24.104  0.00  0.00    +0.000 N 
ATOM     18  C   UNL     1      -1.817  15.212  25.464  0.00  0.00    +0.000 C 
ATOM     19  C   UNL     1      -1.629  13.582  23.519  0.00  0.00    +0.000 C 
ATOM     20  C   UNL     1      -3.240  13.243  23.641  0.00  0.00    +0.000 C 
ATOM     21  O   UNL     1       1.346   9.731  18.542  0.00  0.00    +0.000 OA
ATOM     22  C   UNL     1       0.111   9.795  17.835  0.00  0.00    +0.000 C 
ATOM     23  O   UNL     1      -0.990   9.873  18.800  0.00  0.00    +0.000 OA
ENDROOT
BRANCH   1  25
ATOM     24  C   UNL     1      -6.171  12.373  21.485  0.00  0.00    +0.000 C 
ATOM     25  O   UNL     1      -5.139  12.290  22.443  0.00  0.00    +0.000 OA
ENDBRANCH   1  25
BRANCH  12  26
ATOM     26  C   UNL     1       1.084  16.690  20.946  0.00  0.00    +0.000 C 
BRANCH  26  27
ATOM     27  C   UNL     1      -0.048  17.419  20.255  0.00  0.00    +0.000 C 
BRANCH  27  28
ATOM     28  C   UNL     1       0.258  17.776  18.854  0.00  0.00    +0.000 A 
ATOM     29  C   UNL     1      -0.743  18.317  18.027  0.00  0.00    +0.000 A 
ATOM     30  C   UNL     1      -0.459  18.562  16.701  0.00  0.00    +0.000 A 
ATOM     31  C   UNL     1       0.830  18.328  16.223  0.00  0.00    +0.000 A 
ATOM     32  C   UNL     1       1.829  17.840  17.067  0.00  0.00    +0.000 A 
ATOM     33  C   UNL     1       1.540  17.548  18.384  0.00  0.00    +0.000 A 
ENDBRANCH  27  28
ENDBRANCH  26  27
ENDBRANCH  12  26
TORSDOF 4
ENDMDL
MODEL 4
REMARK VINA RESULT:      -6.7      9.503     12.139
REMARK  Name = 
REMARK  6 active torsions:
REMARK  status: ('A' for Active; 'I' for Inactive)
REMARK    1  A    between atoms: C_1  and  O_2
REMARK    2  A    between atoms: O_2  and  C_3
REMARK    3  A    between atoms: N_14  and  C_16
REMARK    4  A    between atoms: C_16  and  C_17
REMARK    5  A    between atoms: C_17  and  C_18
REMARK    6  A    between atoms: N_27  and  C_28
REMARK                            x       y       z     vdW  Elec       q    Type
REMARK                         _______ _______ _______ _____ _____    ______ ____
ROOT
ATOM      1  C   UNL     1       1.732  10.551  18.692  0.00  0.00    +0.000 C 
ATOM      2  C   UNL     1       0.364  10.120  19.280  0.00  0.00    +0.000 C 
ATOM      3  C   UNL     1      -0.014  11.364  19.470  0.00  0.00    +0.000 C 
ATOM      4  C   UNL     1      -0.441  12.678  19.669  0.00  0.00    +0.000 C 
ATOM      5  C   UNL     1      -1.903  12.498  19.102  0.00  0.00    +0.000 A 
ATOM      6  C   UNL     1      -2.241  11.706  17.916  0.00  0.00    +0.000 A 
ATOM      7  C   UNL     1      -3.546  11.284  17.730  0.00  0.00    +0.000 A 
ATOM      8  C   UNL     1      -4.547  11.952  18.337  0.00  0.00    +0.000 A 
ATOM      9  C   UNL     1      -4.256  12.332  19.629  0.00  0.00    +0.000 A 
ATOM     10  C   UNL     1      -2.942  12.649  20.020  0.00  0.00    +0.000 A 
ATOM     11  C   UNL     1      -2.631  12.857  21.482  0.00  0.00    +0.000 C 
ATOM     12  N   UNL     1      -1.388  13.708  21.770  0.00  0.00    +0.000 N 
ATOM     13  O   UNL     1      -1.531  14.939  21.190  0.00  0.00    +0.000 OA
ATOM     14  C   UNL     1      -0.192  12.988  21.181  0.00  0.00    +0.000 C 
ATOM     15  C   UNL     1       1.164  13.778  21.207  0.00  0.00    +0.000 C 
ATOM     16  O   UNL     1       1.894  14.090  22.114  0.00  0.00    +0.000 OA
ATOM     17  N   UNL     1       1.620  14.000  19.931  0.00  0.00    +0.000 N 
ATOM     18  C   UNL     1       2.867  14.699  19.639  0.00  0.00    +0.000 C 
ATOM     19  C   UNL     1       0.877  13.267  18.954  0.00  0.00    +0.000 C 
ATOM     20  C   UNL     1       1.900  12.158  18.283  0.00  0.00    +0.000 C 
ATOM     21  O   UNL     1      -5.764  11.424  17.983  0.00  0.00    +0.000 OA
ATOM     22  C   UNL     1      -5.340  10.067  18.068  0.00  0.00    +0.000 C 
ATOM     23  O   UNL     1      -3.972   9.959  17.550  0.00  0.00    +0.000 OA
ENDROOT
BRANCH   1  25
ATOM     24  C   UNL     1       2.311   8.488  17.768  0.00  0.00    +0.000 C 
ATOM     25  O   UNL     1       2.054   9.851  17.509  0.00  0.00    +0.000 OA
ENDBRANCH   1  25
BRANCH  12  26
ATOM     26  C   UNL     1      -1.260  13.853  23.282  0.00  0.00    +0.000 C 
BRANCH  26  27
ATOM     27  C   UNL     1      -2.273  14.777  23.920  0.00  0.00    +0.000 C 
BRANCH  27  28
ATOM     28  C   UNL     1      -3.615  14.170  24.050  0.00  0.00    +0.000 A 
ATOM     29  C   UNL     1      -3.768  12.924  24.684  0.00  0.00    +0.000 A 
ATOM     30  C   UNL     1      -5.015  12.336  24.716  0.00  0.00    +0.000 A 
ATOM     31  C   UNL     1      -6.106  13.016  24.177  0.00  0.00    +0.000 A 
ATOM     32  C   UNL     1      -5.949  14.276  23.596  0.00  0.00    +0.000 A 
ATOM     33  C   UNL     1      -4.697  14.850  23.517  0.00  0.00    +0.000 A 
ENDBRANCH  27  28
ENDBRANCH  26  27
ENDBRANCH  12  26
TORSDOF 4
ENDMDL
MODEL 5
REMARK VINA RESULT:      -6.7      8.938     12.019
REMARK  Name = 
REMARK  6 active torsions:
REMARK  status: ('A' for Active; 'I' for Inactive)
REMARK    1  A    between atoms: C_1  and  O_2
REMARK    2  A    between atoms: O_2  and  C_3
REMARK    3  A    between atoms: N_14  and  C_16
REMARK    4  A    between atoms: C_16  and  C_17
REMARK    5  A    between atoms: C_17  and  C_18
REMARK    6  A    between atoms: N_27  and  C_28
REMARK                            x       y       z     vdW  Elec       q    Type
REMARK                         _______ _______ _______ _____ _____    ______ ____
ROOT
ATOM      1  C   UNL     1      -0.784  10.940  19.055  0.00  0.00    +0.000 C 
ATOM      2  C   UNL     1      -1.043  12.444  18.779  0.00  0.00    +0.000 C 
ATOM      3  C   UNL     1      -0.732  12.783  20.010  0.00  0.00    +0.000 C 
ATOM      4  C   UNL     1      -0.391  13.169  21.308  0.00  0.00    +0.000 C 
ATOM      5  C   UNL     1       0.499  14.412  20.918  0.00  0.00    +0.000 A 
ATOM      6  C   UNL     1       1.438  14.439  19.792  0.00  0.00    +0.000 A 
ATOM      7  C   UNL     1       1.864  15.658  19.292  0.00  0.00    +0.000 A 
ATOM      8  C   UNL     1       1.808  16.748  20.081  0.00  0.00    +0.000 A 
ATOM      9  C   UNL     1       0.664  16.823  20.845  0.00  0.00    +0.000 A 
ATOM     10  C   UNL     1       0.018  15.661  21.308  0.00  0.00    +0.000 A 
ATOM     11  C   UNL     1      -1.338  15.775  21.961  0.00  0.00    +0.000 C 
ATOM     12  N   UNL     1      -1.710  14.620  22.898  0.00  0.00    +0.000 N 
ATOM     13  O   UNL     1      -0.772  14.513  23.889  0.00  0.00    +0.000 OA
ATOM     14  C   UNL     1      -1.744  13.350  22.071  0.00  0.00    +0.000 C 
ATOM     15  C   UNL     1      -1.930  12.015  22.874  0.00  0.00    +0.000 C 
ATOM     16  O   UNL     1      -2.875  11.562  23.470  0.00  0.00    +0.000 OA
ATOM     17  N   UNL     1      -0.841  11.196  22.711  0.00  0.00    +0.000 N 
ATOM     18  C   UNL     1      -0.733   9.878  23.327  0.00  0.00    +0.000 C 
ATOM     19  C   UNL     1       0.046  11.667  21.693  0.00  0.00    +0.000 C 
ATOM     20  C   UNL     1       0.020  10.563  20.465  0.00  0.00    +0.000 C 
ATOM     21  O   UNL     1       2.330  17.841  19.432  0.00  0.00    +0.000 OA
ATOM     22  C   UNL     1       1.720  17.543  18.179  0.00  0.00    +0.000 C 
ATOM     23  O   UNL     1       1.755  16.093  17.962  0.00  0.00    +0.000 OA
ENDROOT
BRANCH   1  25
ATOM     24  C   UNL     1       1.305  10.081  18.467  0.00  0.00    +0.000 C 
ATOM     25  O   UNL     1      -0.015  10.332  18.038  0.00  0.00    +0.000 OA
ENDBRANCH   1  25
BRANCH  12  26
ATOM     26  C   UNL     1      -3.077  14.927  23.500  0.00  0.00    +0.000 C 
BRANCH  26  27
ATOM     27  C   UNL     1      -4.188  15.112  22.491  0.00  0.00    +0.000 C 
BRANCH  27  28
ATOM     28  C   UNL     1      -5.298  14.151  22.663  0.00  0.00    +0.000 A 
ATOM     29  C   UNL     1      -5.556  13.185  21.674  0.00  0.00    +0.000 A 
ATOM     30  C   UNL     1      -6.649  12.356  21.814  0.00  0.00    +0.000 A 
ATOM     31  C   UNL     1      -7.436  12.450  22.961  0.00  0.00    +0.000 A 
ATOM     32  C   UNL     1      -7.137  13.379  23.960  0.00  0.00    +0.000 A 
ATOM     33  C   UNL     1      -6.074  14.243  23.806  0.00  0.00    +0.000 A 
ENDBRANCH  27  28
ENDBRANCH  26  27
ENDBRANCH  12  26
TORSDOF 4
ENDMDL
MODEL 6
REMARK VINA RESULT:      -6.7      9.755     12.777
REMARK  Name = 
REMARK  6 active torsions:
REMARK  status: ('A' for Active; 'I' for Inactive)
REMARK    1  A    between atoms: C_1  and  O_2
REMARK    2  A    between atoms: O_2  and  C_3
REMARK    3  A    between atoms: N_14  and  C_16
REMARK    4  A    between atoms: C_16  and  C_17
REMARK    5  A    between atoms: C_17  and  C_18
REMARK    6  A    between atoms: N_27  and  C_28
REMARK                            x       y       z     vdW  Elec       q    Type
REMARK                         _______ _______ _______ _____ _____    ______ ____
ROOT
ATOM      1  C   UNL     1      -1.670  11.048  19.099  0.00  0.00    +0.000 C 
ATOM      2  C   UNL     1      -2.286  12.463  18.944  0.00  0.00    +0.000 C 
ATOM      3  C   UNL     1      -1.814  12.859  20.105  0.00  0.00    +0.000 C 
ATOM      4  C   UNL     1      -1.312  13.306  21.329  0.00  0.00    +0.000 C 
ATOM      5  C   UNL     1      -0.794  14.710  20.829  0.00  0.00    +0.000 A 
ATOM      6  C   UNL     1      -0.123  14.938  19.545  0.00  0.00    +0.000 A 
ATOM      7  C   UNL     1      -0.066  16.219  19.026  0.00  0.00    +0.000 A 
ATOM      8  C   UNL     1      -0.190  17.273  19.857  0.00  0.00    +0.000 A 
ATOM      9  C   UNL     1      -1.150  17.101  20.830  0.00  0.00    +0.000 A 
ATOM     10  C   UNL     1      -1.438  15.829  21.358  0.00  0.00    +0.000 A 
ATOM     11  C   UNL     1      -2.631  15.652  22.264  0.00  0.00    +0.000 C 
ATOM     12  N   UNL     1      -2.563  14.443  23.205  0.00  0.00    +0.000 N 
ATOM     13  O   UNL     1      -1.447  14.536  23.990  0.00  0.00    +0.000 OA
ATOM     14  C   UNL     1      -2.495  13.196  22.345  0.00  0.00    +0.000 C 
ATOM     15  C   UNL     1      -2.238  11.850  23.111  0.00  0.00    +0.000 C 
ATOM     16  O   UNL     1      -2.931  11.206  23.857  0.00  0.00    +0.000 OA
ATOM     17  N   UNL     1      -1.056  11.281  22.706  0.00  0.00    +0.000 N 
ATOM     18  C   UNL     1      -0.558  10.015  23.232  0.00  0.00    +0.000 C 
ATOM     19  C   UNL     1      -0.506  11.930  21.557  0.00  0.00    +0.000 C 
ATOM     20  C   UNL     1      -0.544  10.849  20.311  0.00  0.00    +0.000 C 
ATOM     21  O   UNL     1      -0.045  18.452  19.167  0.00  0.00    +0.000 OA
ATOM     22  C   UNL     1      -0.814  18.033  18.044  0.00  0.00    +0.000 C 
ATOM     23  O   UNL     1      -0.523  16.624  17.762  0.00  0.00    +0.000 OA
ENDROOT
BRANCH   1  25
ATOM     24  C   UNL     1      -1.890   9.954  17.050  0.00  0.00    +0.000 C 
ATOM     25  O   UNL     1      -1.009  10.619  17.928  0.00  0.00    +0.000 OA
ENDBRANCH   1  25
BRANCH  12  26
ATOM     26  C   UNL     1      -3.817  14.452  24.071  0.00  0.00    +0.000 C 
BRANCH  26  27
ATOM     27  C   UNL     1      -5.062  14.963  23.380  0.00  0.00    +0.000 C 
BRANCH  27  28
ATOM     28  C   UNL     1      -5.964  13.881  22.930  0.00  0.00    +0.000 A 
ATOM     29  C   UNL     1      -5.995  13.506  21.575  0.00  0.00    +0.000 A 
ATOM     30  C   UNL     1      -6.905  12.556  21.162  0.00  0.00    +0.000 A 
ATOM     31  C   UNL     1      -7.730  11.944  22.105  0.00  0.00    +0.000 A 
ATOM     32  C   UNL     1      -7.652  12.289  23.456  0.00  0.00    +0.000 A 
ATOM     33  C   UNL     1      -6.777  13.272  23.870  0.00  0.00    +0.000 A 
ENDBRANCH  27  28
ENDBRANCH  26  27
ENDBRANCH  12  26
TORSDOF 4
ENDMDL
MODEL 7
REMARK VINA RESULT:      -6.6      9.126     12.047
REMARK  Name = 
REMARK  6 active torsions:
REMARK  status: ('A' for Active; 'I' for Inactive)
REMARK    1  A    between atoms: C_1  and  O_2
REMARK    2  A    between atoms: O_2  and  C_3
REMARK    3  A    between atoms: N_14  and  C_16
REMARK    4  A    between atoms: C_16  and  C_17
REMARK    5  A    between atoms: C_17  and  C_18
REMARK    6  A    between atoms: N_27  and  C_28
REMARK                            x       y       z     vdW  Elec       q    Type
REMARK                         _______ _______ _______ _____ _____    ______ ____
ROOT
ATOM      1  C   UNL     1       1.817  10.165  18.591  0.00  0.00    +0.000 C 
ATOM      2  C   UNL     1       0.441   9.882  19.247  0.00  0.00    +0.000 C 
ATOM      3  C   UNL     1       0.160  11.161  19.351  0.00  0.00    +0.000 C 
ATOM      4  C   UNL     1      -0.165  12.515  19.459  0.00  0.00    +0.000 C 
ATOM      5  C   UNL     1      -1.654  12.401  18.947  0.00  0.00    +0.000 A 
ATOM      6  C   UNL     1      -2.087  11.549  17.836  0.00  0.00    +0.000 A 
ATOM      7  C   UNL     1      -3.424  11.212  17.719  0.00  0.00    +0.000 A 
ATOM      8  C   UNL     1      -4.354  11.996  18.300  0.00  0.00    +0.000 A 
ATOM      9  C   UNL     1      -3.995  12.449  19.550  0.00  0.00    +0.000 A 
ATOM     10  C   UNL     1      -2.649  12.697  19.879  0.00  0.00    +0.000 A 
ATOM     11  C   UNL     1      -2.276  12.991  21.311  0.00  0.00    +0.000 C 
ATOM     12  N   UNL     1      -0.967  13.767  21.499  0.00  0.00    +0.000 N 
ATOM     13  O   UNL     1      -1.040  14.958  20.829  0.00  0.00    +0.000 OA
ATOM     14  C   UNL     1       0.155  12.918  20.935  0.00  0.00    +0.000 C 
ATOM     15  C   UNL     1       1.564  13.606  20.862  0.00  0.00    +0.000 C 
ATOM     16  O   UNL     1       2.344  13.930  21.723  0.00  0.00    +0.000 OA
ATOM     17  N   UNL     1       1.993  13.696  19.562  0.00  0.00    +0.000 N 
ATOM     18  C   UNL     1       3.276  14.277  19.182  0.00  0.00    +0.000 C 
ATOM     19  C   UNL     1       1.168  12.949  18.664  0.00  0.00    +0.000 C 
ATOM     20  C   UNL     1       2.085  11.720  18.054  0.00  0.00    +0.000 C 
ATOM     21  O   UNL     1      -5.617  11.534  18.021  0.00  0.00    +0.000 OA
ATOM     22  C   UNL     1      -5.288  10.160  18.199  0.00  0.00    +0.000 C 
ATOM     23  O   UNL     1      -3.950   9.912  17.654  0.00  0.00    +0.000 OA
ENDROOT
BRANCH   1  25
ATOM     24  C   UNL     1       2.564   8.094  17.819  0.00  0.00    +0.000 C 
ATOM     25  O   UNL     1       2.048   9.356  17.457  0.00  0.00    +0.000 OA
ENDBRANCH   1  25
BRANCH  12  26
ATOM     26  C   UNL     1      -0.779  14.015  22.991  0.00  0.00    +0.000 C 
BRANCH  26  27
ATOM     27  C   UNL     1      -1.987  13.697  23.845  0.00  0.00    +0.000 C 
BRANCH  27  28
ATOM     28  C   UNL     1      -2.703  14.903  24.312  0.00  0.00    +0.000 A 
ATOM     29  C   UNL     1      -4.077  15.054  24.050  0.00  0.00    +0.000 A 
ATOM     30  C   UNL     1      -4.705  16.225  24.418  0.00  0.00    +0.000 A 
ATOM     31  C   UNL     1      -3.983  17.205  25.096  0.00  0.00    +0.000 A 
ATOM     32  C   UNL     1      -2.632  17.020  25.396  0.00  0.00    +0.000 A 
ATOM     33  C   UNL     1      -1.984  15.872  24.990  0.00  0.00    +0.000 A 
ENDBRANCH  27  28
ENDBRANCH  26  27
ENDBRANCH  12  26
TORSDOF 4
ENDMDL
MODEL 8
REMARK VINA RESULT:      -6.6      9.890     12.876
REMARK  Name = 
REMARK  6 active torsions:
REMARK  status: ('A' for Active; 'I' for Inactive)
REMARK    1  A    between atoms: C_1  and  O_2
REMARK    2  A    between atoms: O_2  and  C_3
REMARK    3  A    between atoms: N_14  and  C_16
REMARK    4  A    between atoms: C_16  and  C_17
REMARK    5  A    between atoms: C_17  and  C_18
REMARK    6  A    between atoms: N_27  and  C_28
REMARK                            x       y       z     vdW  Elec       q    Type
REMARK                         _______ _______ _______ _____ _____    ______ ____
ROOT
ATOM      1  C   UNL     1       0.848  10.442  19.081  0.00  0.00    +0.000 C 
ATOM      2  C   UNL     1      -0.517  10.136  19.752  0.00  0.00    +0.000 C 
ATOM      3  C   UNL     1      -0.803  11.412  19.887  0.00  0.00    +0.000 C 
ATOM      4  C   UNL     1      -1.134  12.761  20.028  0.00  0.00    +0.000 C 
ATOM      5  C   UNL     1      -2.630  12.649  19.537  0.00  0.00    +0.000 A 
ATOM      6  C   UNL     1      -3.075  11.818  18.414  0.00  0.00    +0.000 A 
ATOM      7  C   UNL     1      -4.412  11.475  18.311  0.00  0.00    +0.000 A 
ATOM      8  C   UNL     1      -5.337  12.241  18.921  0.00  0.00    +0.000 A 
ATOM      9  C   UNL     1      -4.961  12.670  20.175  0.00  0.00    +0.000 A 
ATOM     10  C   UNL     1      -3.612  12.919  20.489  0.00  0.00    +0.000 A 
ATOM     11  C   UNL     1      -3.219  13.186  21.921  0.00  0.00    +0.000 C 
ATOM     12  N   UNL     1      -1.912  13.965  22.105  0.00  0.00    +0.000 N 
ATOM     13  O   UNL     1      -2.002  15.169  21.462  0.00  0.00    +0.000 OA
ATOM     14  C   UNL     1      -0.794  13.135  21.507  0.00  0.00    +0.000 C 
ATOM     15  C   UNL     1       0.610  13.832  21.428  0.00  0.00    +0.000 C 
ATOM     16  O   UNL     1       1.401  14.143  22.283  0.00  0.00    +0.000 OA
ATOM     17  N   UNL     1       1.018  13.952  20.123  0.00  0.00    +0.000 N 
ATOM     18  C   UNL     1       2.292  14.549  19.737  0.00  0.00    +0.000 C 
ATOM     19  C   UNL     1       0.184  13.219  19.223  0.00  0.00    +0.000 C 
ATOM     20  C   UNL     1       1.099  12.009  18.574  0.00  0.00    +0.000 C 
ATOM     21  O   UNL     1      -6.602  11.777  18.652  0.00  0.00    +0.000 OA
ATOM     22  C   UNL     1      -6.262  10.402  18.797  0.00  0.00    +0.000 C 
ATOM     23  O   UNL     1      -4.931  10.174  18.226  0.00  0.00    +0.000 OA
ENDROOT
BRANCH   1  25
ATOM     24  C   UNL     1       1.971   8.605  18.181  0.00  0.00    +0.000 C 
ATOM     25  O   UNL     1       1.067   9.658  17.928  0.00  0.00    +0.000 OA
ENDBRANCH   1  25
BRANCH  12  26
ATOM     26  C   UNL     1      -1.703  14.183  23.600  0.00  0.00    +0.000 C 
BRANCH  26  27
ATOM     27  C   UNL     1      -2.971  14.187  24.424  0.00  0.00    +0.000 C 
BRANCH  27  28
ATOM     28  C   UNL     1      -3.540  15.539  24.611  0.00  0.00    +0.000 A 
ATOM     29  C   UNL     1      -2.756  16.564  25.171  0.00  0.00    +0.000 A 
ATOM     30  C   UNL     1      -3.333  17.792  25.417  0.00  0.00    +0.000 A 
ATOM     31  C   UNL     1      -4.659  18.011  25.048  0.00  0.00    +0.000 A 
ATOM     32  C   UNL     1      -5.411  17.000  24.445  0.00  0.00    +0.000 A 
ATOM     33  C   UNL     1      -4.856  15.755  24.239  0.00  0.00    +0.000 A 
ENDBRANCH  27  28
ENDBRANCH  26  27
ENDBRANCH  12  26
TORSDOF 4
ENDMDL
MODEL 9
REMARK VINA RESULT:      -6.6      9.835     12.938
REMARK  Name = 
REMARK  6 active torsions:
REMARK  status: ('A' for Active; 'I' for Inactive)
REMARK    1  A    between atoms: C_1  and  O_2
REMARK    2  A    between atoms: O_2  and  C_3
REMARK    3  A    between atoms: N_14  and  C_16
REMARK    4  A    between atoms: C_16  and  C_17
REMARK    5  A    between atoms: C_17  and  C_18
REMARK    6  A    between atoms: N_27  and  C_28
REMARK                            x       y       z     vdW  Elec       q    Type
REMARK                         _______ _______ _______ _____ _____    ______ ____
ROOT
ATOM      1  C   UNL     1       0.412  10.574  19.065  0.00  0.00    +0.000 C 
ATOM      2  C   UNL     1      -0.916  10.176  19.761  0.00  0.00    +0.000 C 
ATOM      3  C   UNL     1      -1.250  11.430  19.970  0.00  0.00    +0.000 C 
ATOM      4  C   UNL     1      -1.633  12.754  20.190  0.00  0.00    +0.000 C 
ATOM      5  C   UNL     1      -3.137  12.603  19.739  0.00  0.00    +0.000 A 
ATOM      6  C   UNL     1      -3.584  11.812  18.589  0.00  0.00    +0.000 A 
ATOM      7  C   UNL     1      -4.908  11.417  18.508  0.00  0.00    +0.000 A 
ATOM      8  C   UNL     1      -5.844  12.111  19.185  0.00  0.00    +0.000 A 
ATOM      9  C   UNL     1      -5.446  12.492  20.447  0.00  0.00    +0.000 A 
ATOM     10  C   UNL     1      -4.099  12.783  20.734  0.00  0.00    +0.000 A 
ATOM     11  C   UNL     1      -3.671  12.993  22.165  0.00  0.00    +0.000 C 
ATOM     12  N   UNL     1      -2.392  13.818  22.350  0.00  0.00    +0.000 N 
ATOM     13  O   UNL     1      -2.553  15.048  21.773  0.00  0.00    +0.000 OA
ATOM     14  C   UNL     1      -1.261  13.068  21.676  0.00  0.00    +0.000 C 
ATOM     15  C   UNL     1       0.110  13.828  21.591  0.00  0.00    +0.000 C 
ATOM     16  O   UNL     1       0.914  14.129  22.437  0.00  0.00    +0.000 OA
ATOM     17  N   UNL     1       0.471  14.031  20.282  0.00  0.00    +0.000 N 
ATOM     18  C   UNL     1       1.706  14.701  19.890  0.00  0.00    +0.000 C 
ATOM     19  C   UNL     1      -0.361  13.310  19.371  0.00  0.00    +0.000 C 
ATOM     20  C   UNL     1       0.582  12.174  18.632  0.00  0.00    +0.000 C 
ATOM     21  O   UNL     1      -7.096  11.608  18.930  0.00  0.00    +0.000 OA
ATOM     22  C   UNL     1      -6.696  10.242  18.993  0.00  0.00    +0.000 C 
ATOM     23  O   UNL     1      -5.375  10.101  18.372  0.00  0.00    +0.000 OA
ENDROOT
BRANCH   1  25
ATOM     24  C   UNL     1       1.846   9.151  17.897  0.00  0.00    +0.000 C 
ATOM     25  O   UNL     1       0.626   9.859  17.867  0.00  0.00    +0.000 OA
ENDBRANCH   1  25
BRANCH  12  26
ATOM     26  C   UNL     1      -2.144  13.969  23.847  0.00  0.00    +0.000 C 
BRANCH  26  27
ATOM     27  C   UNL     1      -3.084  14.921  24.553  0.00  0.00    +0.000 C 
BRANCH  27  28
ATOM     28  C   UNL     1      -2.382  15.994  25.289  0.00  0.00    +0.000 A 
ATOM     29  C   UNL     1      -2.778  17.334  25.133  0.00  0.00    +0.000 A 
ATOM     30  C   UNL     1      -2.053  18.326  25.761  0.00  0.00    +0.000 A 
ATOM     31  C   UNL     1      -0.985  17.975  26.585  0.00  0.00    +0.000 A 
ATOM     32  C   UNL     1      -0.635  16.636  26.772  0.00  0.00    +0.000 A 
ATOM     33  C   UNL     1      -1.325  15.642  26.111  0.00  0.00    +0.000 A 
ENDBRANCH  27  28
ENDBRANCH  26  27
ENDBRANCH  12  26
TORSDOF 4
ENDMDL
