MODEL 1
REMARK VINA RESULT:      -7.2      0.000      0.000
REMARK  Name = 
REMARK  5 active torsions:
REMARK  status: ('A' for Active; 'I' for Inactive)
REMARK    1  A    between atoms: C_1  and  C_2
REMARK    2  A    between atoms: C_2  and  O_3
REMARK    3  A    between atoms: O_3  and  C_4
REMARK    4  A    between atoms: C_22  and  O_23
REMARK    5  A    between atoms: O_23  and  C_24
REMARK                            x       y       z     vdW  Elec       q    Type
REMARK                         _______ _______ _______ _____ _____    ______ ____
ROOT
ATOM      1  C   UNL     1       2.217  16.264  18.152  0.00  0.00    +0.000 C 
ATOM      2  O   UNL     1       3.424  16.205  17.948  0.00  0.00    +0.000 OA
ATOM      3  N   UNL     1       1.413  15.162  18.369  0.00  0.00    +0.000 N 
ATOM      4  C   UNL     1       2.010  13.829  18.474  0.00  0.00    +0.000 C 
ATOM      5  C   UNL     1       1.777  13.220  19.869  0.00  0.00    +0.000 C 
ATOM      6  C   UNL     1       0.290  13.225  20.218  0.00  0.00    +0.000 C 
ATOM      7  C   UNL     1      -0.454  12.139  20.577  0.00  0.00    +0.000 C 
ATOM      8  C   UNL     1      -1.891  12.360  20.892  0.00  0.00    +0.000 A 
ATOM      9  C   UNL     1      -2.817  12.644  19.874  0.00  0.00    +0.000 A 
ATOM     10  C   UNL     1      -4.155  12.888  20.193  0.00  0.00    +0.000 A 
ATOM     11  C   UNL     1      -4.571  12.827  21.520  0.00  0.00    +0.000 A 
ATOM     12 CL   UNL     1      -6.220  13.131  21.910  0.00  0.00    +0.000 Cl
ATOM     13  C   UNL     1      -3.669  12.512  22.535  0.00  0.00    +0.000 A 
ATOM     14  C   UNL     1      -2.323  12.271  22.225  0.00  0.00    +0.000 A 
ATOM     15  C   UNL     1      -1.348  11.852  23.294  0.00  0.00    +0.000 C 
ATOM     16  C   UNL     1      -0.956  10.387  23.110  0.00  0.00    +0.000 C 
ATOM     17  C   UNL     1      -0.130   9.987  21.902  0.00  0.00    +0.000 A 
ATOM     18  C   UNL     1       0.384   8.674  21.927  0.00  0.00    +0.000 A 
ATOM     19  C   UNL     1       1.131   8.178  20.871  0.00  0.00    +0.000 A 
ATOM     20  C   UNL     1       1.335   9.032  19.800  0.00  0.00    +0.000 A 
ATOM     21  N   UNL     1       0.844  10.297  19.714  0.00  0.00    +0.000 NA
ATOM     22  C   UNL     1       0.124  10.771  20.763  0.00  0.00    +0.000 A 
ATOM     23  C   UNL     1      -0.240  14.659  20.130  0.00  0.00    +0.000 C 
ATOM     24  C   UNL     1      -0.001  15.248  18.733  0.00  0.00    +0.000 C 
ENDROOT
BRANCH  19  25
ATOM     25  O   UNL     1       1.682   6.933  20.783  0.00  0.00    +0.000 OA
ATOM     26  C   UNL     1       2.447   6.654  19.613  0.00  0.00    +0.000 C 
ENDBRANCH  19  25
BRANCH   1  27
ATOM     27  O   UNL     1       1.530  17.432  18.260  0.00  0.00    +0.000 OA
BRANCH  27  29
ATOM     28  C   UNL     1      -0.114  18.424  16.838  0.00  0.00    +0.000 C 
ATOM     29  C   UNL     1       1.370  18.173  17.043  0.00  0.00    +0.000 C 
ENDBRANCH  27  29
ENDBRANCH   1  27
TORSDOF 3
ENDMDL
MODEL 2
REMARK VINA RESULT:      -6.2      1.212      1.286
REMARK  Name = 
REMARK  5 active torsions:
REMARK  status: ('A' for Active; 'I' for Inactive)
REMARK    1  A    between atoms: C_1  and  C_2
REMARK    2  A    between atoms: C_2  and  O_3
REMARK    3  A    between atoms: O_3  and  C_4
REMARK    4  A    between atoms: C_22  and  O_23
REMARK    5  A    between atoms: O_23  and  C_24
REMARK                            x       y       z     vdW  Elec       q    Type
REMARK                         _______ _______ _______ _____ _____    ______ ____
ROOT
ATOM      1  C   UNL     1       2.919  16.255  18.317  0.00  0.00    +0.000 C 
ATOM      2  O   UNL     1       4.114  16.195  18.055  0.00  0.00    +0.000 OA
ATOM      3  N   UNL     1       2.087  15.156  18.399  0.00  0.00    +0.000 N 
ATOM      4  C   UNL     1       2.642  13.806  18.274  0.00  0.00    +0.000 C 
ATOM      5  C   UNL     1       2.442  12.998  19.569  0.00  0.00    +0.000 C 
ATOM      6  C   UNL     1       0.970  12.990  19.979  0.00  0.00    +0.000 C 
ATOM      7  C   UNL     1       0.204  11.883  20.200  0.00  0.00    +0.000 C 
ATOM      8  C   UNL     1      -1.212  12.093  20.607  0.00  0.00    +0.000 A 
ATOM      9  C   UNL     1      -2.166  12.555  19.684  0.00  0.00    +0.000 A 
ATOM     10  C   UNL     1      -3.482  12.784  20.093  0.00  0.00    +0.000 A 
ATOM     11  C   UNL     1      -3.848  12.533  21.413  0.00  0.00    +0.000 A 
ATOM     12 CL   UNL     1      -5.470  12.818  21.915  0.00  0.00    +0.000 Cl
ATOM     13  C   UNL     1      -2.920  12.041  22.329  0.00  0.00    +0.000 A 
ATOM     14  C   UNL     1      -1.595  11.813  21.928  0.00  0.00    +0.000 A 
ATOM     15  C   UNL     1      -0.595  11.208  22.878  0.00  0.00    +0.000 C 
ATOM     16  C   UNL     1      -0.259   9.778  22.457  0.00  0.00    +0.000 C 
ATOM     17  C   UNL     1       0.505   9.545  21.168  0.00  0.00    +0.000 A 
ATOM     18  C   UNL     1       0.975   8.231  20.971  0.00  0.00    +0.000 A 
ATOM     19  C   UNL     1       1.664   7.882  19.821  0.00  0.00    +0.000 A 
ATOM     20  C   UNL     1       1.856   8.884  18.885  0.00  0.00    +0.000 A 
ATOM     21  N   UNL     1       1.404  10.160  19.013  0.00  0.00    +0.000 NA
ATOM     22  C   UNL     1       0.742  10.487  20.152  0.00  0.00    +0.000 A 
ATOM     23  C   UNL     1       0.486  14.436  20.132  0.00  0.00    +0.000 C 
ATOM     24  C   UNL     1       0.691  15.224  18.832  0.00  0.00    +0.000 C 
ENDROOT
BRANCH  19  25
ATOM     25  O   UNL     1       2.169   6.650  19.521  0.00  0.00    +0.000 OA
ATOM     26  C   UNL     1       1.925   5.613  20.468  0.00  0.00    +0.000 C 
ENDBRANCH  19  25
BRANCH   1  27
ATOM     27  O   UNL     1       2.275  17.412  18.631  0.00  0.00    +0.000 OA
BRANCH  27  29
ATOM     28  C   UNL     1       1.197  18.496  20.466  0.00  0.00    +0.000 C 
ATOM     29  C   UNL     1       2.502  17.908  19.956  0.00  0.00    +0.000 C 
ENDBRANCH  27  29
ENDBRANCH   1  27
TORSDOF 3
ENDMDL
MODEL 3
REMARK VINA RESULT:      -5.9      3.763      5.921
REMARK  Name = 
REMARK  5 active torsions:
REMARK  status: ('A' for Active; 'I' for Inactive)
REMARK    1  A    between atoms: C_1  and  C_2
REMARK    2  A    between atoms: C_2  and  O_3
REMARK    3  A    between atoms: O_3  and  C_4
REMARK    4  A    between atoms: C_22  and  O_23
REMARK    5  A    between atoms: O_23  and  C_24
REMARK                            x       y       z     vdW  Elec       q    Type
REMARK                         _______ _______ _______ _____ _____    ______ ____
ROOT
ATOM      1  C   UNL     1       0.403  17.104  22.515  0.00  0.00    +0.000 C 
ATOM      2  O   UNL     1      -0.263  18.111  22.724  0.00  0.00    +0.000 OA
ATOM      3  N   UNL     1      -0.133  15.846  22.325  0.00  0.00    +0.000 N 
ATOM      4  C   UNL     1      -1.586  15.671  22.259  0.00  0.00    +0.000 C 
ATOM      5  C   UNL     1      -2.023  15.143  20.879  0.00  0.00    +0.000 C 
ATOM      6  C   UNL     1      -1.262  13.866  20.525  0.00  0.00    +0.000 C 
ATOM      7  C   UNL     1      -1.819  12.665  20.194  0.00  0.00    +0.000 C 
ATOM      8  C   UNL     1      -0.899  11.543  19.868  0.00  0.00    +0.000 A 
ATOM      9  C   UNL     1      -0.154  10.907  20.875  0.00  0.00    +0.000 A 
ATOM     10  C   UNL     1       0.736   9.881  20.545  0.00  0.00    +0.000 A 
ATOM     11  C   UNL     1       0.865   9.478  19.218  0.00  0.00    +0.000 A 
ATOM     12 CL   UNL     1       1.963   8.216  18.815  0.00  0.00    +0.000 Cl
ATOM     13  C   UNL     1       0.106  10.078  18.215  0.00  0.00    +0.000 A 
ATOM     14  C   UNL     1      -0.786  11.113  18.536  0.00  0.00    +0.000 A 
ATOM     15  C   UNL     1      -1.673  11.721  17.482  0.00  0.00    +0.000 C 
ATOM     16  C   UNL     1      -3.126  11.307  17.706  0.00  0.00    +0.000 C 
ATOM     17  C   UNL     1      -3.864  11.822  18.928  0.00  0.00    +0.000 A 
ATOM     18  C   UNL     1      -5.254  11.588  18.940  0.00  0.00    +0.000 A 
ATOM     19  C   UNL     1      -6.037  11.986  20.011  0.00  0.00    +0.000 A 
ATOM     20  C   UNL     1      -5.384  12.611  21.059  0.00  0.00    +0.000 A 
ATOM     21  N   UNL     1      -4.044  12.841  21.110  0.00  0.00    +0.000 NA
ATOM     22  C   UNL     1      -3.294  12.456  20.046  0.00  0.00    +0.000 A 
ATOM     23  C   UNL     1       0.243  14.150  20.573  0.00  0.00    +0.000 C 
ATOM     24  C   UNL     1       0.659  14.672  21.955  0.00  0.00    +0.000 C 
ENDROOT
BRANCH  19  25
ATOM     25  O   UNL     1      -7.386  11.819  20.134  0.00  0.00    +0.000 OA
ATOM     26  C   UNL     1      -7.873  11.490  21.433  0.00  0.00    +0.000 C 
ENDBRANCH  19  25
BRANCH   1  27
ATOM     27  O   UNL     1       1.756  17.114  22.373  0.00  0.00    +0.000 OA
BRANCH  27  29
ATOM     28  C   UNL     1       3.116  17.024  20.411  0.00  0.00    +0.000 C 
ATOM     29  C   UNL     1       2.262  17.914  21.297  0.00  0.00    +0.000 C 
ENDBRANCH  27  29
ENDBRANCH   1  27
TORSDOF 3
ENDMDL
MODEL 4
REMARK VINA RESULT:      -5.9      3.269      5.502
REMARK  Name = 
REMARK  5 active torsions:
REMARK  status: ('A' for Active; 'I' for Inactive)
REMARK    1  A    between atoms: C_1  and  C_2
REMARK    2  A    between atoms: C_2  and  O_3
REMARK    3  A    between atoms: O_3  and  C_4
REMARK    4  A    between atoms: C_22  and  O_23
REMARK    5  A    between atoms: O_23  and  C_24
REMARK                            x       y       z     vdW  Elec       q    Type
REMARK                         _______ _______ _______ _____ _____    ______ ____
ROOT
ATOM      1  C   UNL     1       2.505  16.989  19.676  0.00  0.00    +0.000 C 
ATOM      2  O   UNL     1       2.107  18.105  19.364  0.00  0.00    +0.000 OA
ATOM      3  N   UNL     1       1.686  15.972  20.126  0.00  0.00    +0.000 N 
ATOM      4  C   UNL     1       0.233  16.158  20.150  0.00  0.00    +0.000 C 
ATOM      5  C   UNL     1      -0.472  15.167  19.205  0.00  0.00    +0.000 C 
ATOM      6  C   UNL     1      -0.060  13.731  19.524  0.00  0.00    +0.000 C 
ATOM      7  C   UNL     1      -0.904  12.701  19.822  0.00  0.00    +0.000 C 
ATOM      8  C   UNL     1      -0.299  11.368  20.090  0.00  0.00    +0.000 A 
ATOM      9  C   UNL     1       0.404  11.122  21.281  0.00  0.00    +0.000 A 
ATOM     10  C   UNL     1       0.999   9.877  21.499  0.00  0.00    +0.000 A 
ATOM     11  C   UNL     1       0.875   8.875  20.539  0.00  0.00    +0.000 A 
ATOM     12 CL   UNL     1       1.611   7.343  20.809  0.00  0.00    +0.000 Cl
ATOM     13  C   UNL     1       0.151   9.096  19.369  0.00  0.00    +0.000 A 
ATOM     14  C   UNL     1      -0.445  10.345  19.140  0.00  0.00    +0.000 A 
ATOM     15  C   UNL     1      -1.298  10.580  17.921  0.00  0.00    +0.000 C 
ATOM     16  C   UNL     1      -2.769  10.702  18.316  0.00  0.00    +0.000 C 
ATOM     17  C   UNL     1      -3.221  11.902  19.126  0.00  0.00    +0.000 A 
ATOM     18  C   UNL     1      -4.617  12.059  19.248  0.00  0.00    +0.000 A 
ATOM     19  C   UNL     1      -5.158  13.100  19.986  0.00  0.00    +0.000 A 
ATOM     20  C   UNL     1      -4.261  13.961  20.594  0.00  0.00    +0.000 A 
ATOM     21  N   UNL     1      -2.908  13.842  20.529  0.00  0.00    +0.000 NA
ATOM     22  C   UNL     1      -2.395  12.824  19.792  0.00  0.00    +0.000 A 
ATOM     23  C   UNL     1       1.465  13.616  19.430  0.00  0.00    +0.000 C 
ATOM     24  C   UNL     1       2.150  14.607  20.380  0.00  0.00    +0.000 C 
ENDROOT
BRANCH  19  25
ATOM     25  O   UNL     1      -6.486  13.356  20.172  0.00  0.00    +0.000 OA
ATOM     26  C   UNL     1      -7.177  12.510  21.086  0.00  0.00    +0.000 C 
ENDBRANCH  19  25
BRANCH   1  27
ATOM     27  O   UNL     1       3.800  16.590  19.551  0.00  0.00    +0.000 OA
BRANCH  27  29
ATOM     28  C   UNL     1       4.989  15.123  18.089  0.00  0.00    +0.000 C 
ATOM     29  C   UNL     1       4.282  16.462  18.208  0.00  0.00    +0.000 C 
ENDBRANCH  27  29
ENDBRANCH   1  27
TORSDOF 3
ENDMDL
MODEL 5
REMARK VINA RESULT:      -5.8      6.803      9.067
REMARK  Name = 
REMARK  5 active torsions:
REMARK  status: ('A' for Active; 'I' for Inactive)
REMARK    1  A    between atoms: C_1  and  C_2
REMARK    2  A    between atoms: C_2  and  O_3
REMARK    3  A    between atoms: O_3  and  C_4
REMARK    4  A    between atoms: C_22  and  O_23
REMARK    5  A    between atoms: O_23  and  C_24
REMARK                            x       y       z     vdW  Elec       q    Type
REMARK                         _______ _______ _______ _____ _____    ______ ____
ROOT
ATOM      1  C   UNL     1       2.939  16.175  18.333  0.00  0.00    +0.000 C 
ATOM      2  O   UNL     1       2.986  16.632  17.198  0.00  0.00    +0.000 OA
ATOM      3  N   UNL     1       3.923  15.383  18.892  0.00  0.00    +0.000 N 
ATOM      4  C   UNL     1       5.165  15.132  18.157  0.00  0.00    +0.000 C 
ATOM      5  C   UNL     1       6.383  15.707  18.905  0.00  0.00    +0.000 C 
ATOM      6  C   UNL     1       6.433  15.180  20.338  0.00  0.00    +0.000 C 
ATOM      7  C   UNL     1       7.482  14.527  20.917  0.00  0.00    +0.000 C 
ATOM      8  C   UNL     1       7.335  14.106  22.337  0.00  0.00    +0.000 A 
ATOM      9  C   UNL     1       6.491  13.039  22.688  0.00  0.00    +0.000 A 
ATOM     10  C   UNL     1       6.334  12.682  24.030  0.00  0.00    +0.000 A 
ATOM     11  C   UNL     1       7.033  13.375  25.014  0.00  0.00    +0.000 A 
ATOM     12 CL   UNL     1       6.837  12.936  26.667  0.00  0.00    +0.000 Cl
ATOM     13  C   UNL     1       7.900  14.413  24.675  0.00  0.00    +0.000 A 
ATOM     14  C   UNL     1       8.059  14.781  23.331  0.00  0.00    +0.000 A 
ATOM     15  C   UNL     1       9.049  15.845  22.935  0.00  0.00    +0.000 C 
ATOM     16  C   UNL     1      10.238  15.221  22.207  0.00  0.00    +0.000 C 
ATOM     17  C   UNL     1      10.028  14.606  20.836  0.00  0.00    +0.000 A 
ATOM     18  C   UNL     1      11.204  14.265  20.138  0.00  0.00    +0.000 A 
ATOM     19  C   UNL     1      11.147  13.671  18.887  0.00  0.00    +0.000 A 
ATOM     20  C   UNL     1       9.885  13.428  18.372  0.00  0.00    +0.000 A 
ATOM     21  N   UNL     1       8.719  13.715  19.012  0.00  0.00    +0.000 NA
ATOM     22  C   UNL     1       8.794  14.307  20.231  0.00  0.00    +0.000 A 
ATOM     23  C   UNL     1       5.119  15.526  21.045  0.00  0.00    +0.000 C 
ATOM     24  C   UNL     1       3.918  14.943  20.287  0.00  0.00    +0.000 C 
ENDROOT
BRANCH  19  25
ATOM     25  O   UNL     1      12.211  13.302  18.116  0.00  0.00    +0.000 OA
ATOM     26  C   UNL     1      12.013  13.316  16.705  0.00  0.00    +0.000 C 
ENDBRANCH  19  25
BRANCH   1  27
ATOM     27  O   UNL     1       1.939  16.451  19.214  0.00  0.00    +0.000 OA
BRANCH  27  29
ATOM     28  C   UNL     1       0.088  14.964  18.948  0.00  0.00    +0.000 C 
ATOM     29  C   UNL     1       0.608  16.367  18.688  0.00  0.00    +0.000 C 
ENDBRANCH  27  29
ENDBRANCH   1  27
TORSDOF 3
ENDMDL
MODEL 6
REMARK VINA RESULT:      -5.7      3.677      6.542
REMARK  Name = 
REMARK  5 active torsions:
REMARK  status: ('A' for Active; 'I' for Inactive)
REMARK    1  A    between atoms: C_1  and  C_2
REMARK    2  A    between atoms: C_2  and  O_3
REMARK    3  A    between atoms: O_3  and  C_4
REMARK    4  A    between atoms: C_22  and  O_23
REMARK    5  A    between atoms: O_23  and  C_24
REMARK                            x       y       z     vdW  Elec       q    Type
REMARK                         _______ _______ _______ _____ _____    ______ ____
ROOT
ATOM      1  C   UNL     1      -3.742  13.924  24.118  0.00  0.00    +0.000 C 
ATOM      2  O   UNL     1      -3.299  14.560  25.066  0.00  0.00    +0.000 OA
ATOM      3  N   UNL     1      -3.189  13.933  22.852  0.00  0.00    +0.000 N 
ATOM      4  C   UNL     1      -1.938  14.652  22.604  0.00  0.00    +0.000 C 
ATOM      5  C   UNL     1      -0.817  13.690  22.169  0.00  0.00    +0.000 C 
ATOM      6  C   UNL     1      -1.259  12.854  20.969  0.00  0.00    +0.000 C 
ATOM      7  C   UNL     1      -0.612  12.763  19.772  0.00  0.00    +0.000 C 
ATOM      8  C   UNL     1      -1.204  11.879  18.732  0.00  0.00    +0.000 A 
ATOM      9  C   UNL     1      -2.379  12.248  18.056  0.00  0.00    +0.000 A 
ATOM     10  C   UNL     1      -2.943  11.387  17.111  0.00  0.00    +0.000 A 
ATOM     11  C   UNL     1      -2.324  10.173  16.827  0.00  0.00    +0.000 A 
ATOM     12 CL   UNL     1      -3.022   9.113  15.664  0.00  0.00    +0.000 Cl
ATOM     13  C   UNL     1      -1.139   9.811  17.466  0.00  0.00    +0.000 A 
ATOM     14  C   UNL     1      -0.569  10.666  18.420  0.00  0.00    +0.000 A 
ATOM     15  C   UNL     1       0.751  10.333  19.064  0.00  0.00    +0.000 C 
ATOM     16  C   UNL     1       1.844  11.271  18.554  0.00  0.00    +0.000 C 
ATOM     17  C   UNL     1       1.791  12.741  18.925  0.00  0.00    +0.000 A 
ATOM     18  C   UNL     1       2.948  13.485  18.616  0.00  0.00    +0.000 A 
ATOM     19  C   UNL     1       3.016  14.844  18.880  0.00  0.00    +0.000 A 
ATOM     20  C   UNL     1       1.895  15.422  19.452  0.00  0.00    +0.000 A 
ATOM     21  N   UNL     1       0.747  14.756  19.749  0.00  0.00    +0.000 NA
ATOM     22  C   UNL     1       0.703  13.424  19.495  0.00  0.00    +0.000 A 
ATOM     23  C   UNL     1      -2.544  12.102  21.330  0.00  0.00    +0.000 C 
ATOM     24  C   UNL     1      -3.649  13.077  21.758  0.00  0.00    +0.000 C 
ENDROOT
BRANCH  19  25
ATOM     25  O   UNL     1       4.077  15.666  18.630  0.00  0.00    +0.000 OA
ATOM     26  C   UNL     1       5.218  15.067  18.021  0.00  0.00    +0.000 C 
ENDBRANCH  19  25
BRANCH   1  27
ATOM     27  O   UNL     1      -4.796  13.069  24.213  0.00  0.00    +0.000 OA
BRANCH  27  29
ATOM     28  C   UNL     1      -7.041  12.533  23.598  0.00  0.00    +0.000 C 
ATOM     29  C   UNL     1      -6.087  13.649  23.988  0.00  0.00    +0.000 C 
ENDBRANCH  27  29
ENDBRANCH   1  27
TORSDOF 3
ENDMDL
MODEL 7
REMARK VINA RESULT:      -5.6      3.479      5.638
REMARK  Name = 
REMARK  5 active torsions:
REMARK  status: ('A' for Active; 'I' for Inactive)
REMARK    1  A    between atoms: C_1  and  C_2
REMARK    2  A    between atoms: C_2  and  O_3
REMARK    3  A    between atoms: O_3  and  C_4
REMARK    4  A    between atoms: C_22  and  O_23
REMARK    5  A    between atoms: O_23  and  C_24
REMARK                            x       y       z     vdW  Elec       q    Type
REMARK                         _______ _______ _______ _____ _____    ______ ____
ROOT
ATOM      1  C   UNL     1       1.360  17.163  21.425  0.00  0.00    +0.000 C 
ATOM      2  O   UNL     1       0.883  18.266  21.189  0.00  0.00    +0.000 OA
ATOM      3  N   UNL     1       0.621  15.999  21.508  0.00  0.00    +0.000 N 
ATOM      4  C   UNL     1      -0.811  16.018  21.202  0.00  0.00    +0.000 C 
ATOM      5  C   UNL     1      -1.134  15.138  19.980  0.00  0.00    +0.000 C 
ATOM      6  C   UNL     1      -0.596  13.722  20.179  0.00  0.00    +0.000 C 
ATOM      7  C   UNL     1      -1.323  12.570  20.109  0.00  0.00    +0.000 C 
ATOM      8  C   UNL     1      -0.604  11.285  20.321  0.00  0.00    +0.000 A 
ATOM      9  C   UNL     1      -0.157  10.912  21.600  0.00  0.00    +0.000 A 
ATOM     10  C   UNL     1       0.552   9.720  21.774  0.00  0.00    +0.000 A 
ATOM     11  C   UNL     1       0.795   8.895  20.679  0.00  0.00    +0.000 A 
ATOM     12 CL   UNL     1       1.670   7.429  20.896  0.00  0.00    +0.000 Cl
ATOM     13  C   UNL     1       0.327   9.237  19.412  0.00  0.00    +0.000 A 
ATOM     14  C   UNL     1      -0.381  10.434  19.227  0.00  0.00    +0.000 A 
ATOM     15  C   UNL     1      -0.964  10.786  17.883  0.00  0.00    +0.000 C 
ATOM     16  C   UNL     1      -2.487  10.675  17.919  0.00  0.00    +0.000 C 
ATOM     17  C   UNL     1      -3.282  11.657  18.759  0.00  0.00    +0.000 A 
ATOM     18  C   UNL     1      -4.677  11.637  18.557  0.00  0.00    +0.000 A 
ATOM     19  C   UNL     1      -5.518  12.467  19.282  0.00  0.00    +0.000 A 
ATOM     20  C   UNL     1      -4.916  13.301  20.209  0.00  0.00    +0.000 A 
ATOM     21  N   UNL     1      -3.581  13.344  20.461  0.00  0.00    +0.000 NA
ATOM     22  C   UNL     1      -2.772  12.533  19.733  0.00  0.00    +0.000 A 
ATOM     23  C   UNL     1       0.911  13.792  20.446  0.00  0.00    +0.000 C 
ATOM     24  C   UNL     1       1.212  14.671  21.667  0.00  0.00    +0.000 C 
ENDROOT
BRANCH  19  25
ATOM     25  O   UNL     1      -6.876  12.540  19.172  0.00  0.00    +0.000 OA
ATOM     26  C   UNL     1      -7.632  12.097  20.295  0.00  0.00    +0.000 C 
ENDBRANCH  19  25
BRANCH   1  27
ATOM     27  O   UNL     1       2.694  16.936  21.564  0.00  0.00    +0.000 OA
BRANCH  27  29
ATOM     28  C   UNL     1       3.601  16.486  19.400  0.00  0.00    +0.000 C 
ATOM     29  C   UNL     1       3.529  17.489  20.538  0.00  0.00    +0.000 C 
ENDBRANCH  27  29
ENDBRANCH   1  27
TORSDOF 3
ENDMDL
MODEL 8
REMARK VINA RESULT:      -5.6      1.931      7.214
REMARK  Name = 
REMARK  5 active torsions:
REMARK  status: ('A' for Active; 'I' for Inactive)
REMARK    1  A    between atoms: C_1  and  C_2
REMARK    2  A    between atoms: C_2  and  O_3
REMARK    3  A    between atoms: O_3  and  C_4
REMARK    4  A    between atoms: C_22  and  O_23
REMARK    5  A    between atoms: O_23  and  C_24
REMARK                            x       y       z     vdW  Elec       q    Type
REMARK                         _______ _______ _______ _____ _____    ______ ____
ROOT
ATOM      1  C   UNL     1       1.862   5.910  19.922  0.00  0.00    +0.000 C 
ATOM      2  O   UNL     1       2.620   5.518  19.043  0.00  0.00    +0.000 OA
ATOM      3  N   UNL     1       1.730   7.232  20.299  0.00  0.00    +0.000 N 
ATOM      4  C   UNL     1       2.443   8.278  19.563  0.00  0.00    +0.000 C 
ATOM      5  C   UNL     1       1.461   9.252  18.884  0.00  0.00    +0.000 C 
ATOM      6  C   UNL     1       0.475   9.821  19.903  0.00  0.00    +0.000 C 
ATOM      7  C   UNL     1       0.253  11.143  20.154  0.00  0.00    +0.000 C 
ATOM      8  C   UNL     1      -0.765  11.490  21.182  0.00  0.00    +0.000 A 
ATOM      9  C   UNL     1      -0.509  11.285  22.548  0.00  0.00    +0.000 A 
ATOM     10  C   UNL     1      -1.492  11.580  23.496  0.00  0.00    +0.000 A 
ATOM     11  C   UNL     1      -2.717  12.096  23.083  0.00  0.00    +0.000 A 
ATOM     12 CL   UNL     1      -3.927  12.456  24.254  0.00  0.00    +0.000 Cl
ATOM     13  C   UNL     1      -2.970  12.337  21.734  0.00  0.00    +0.000 A 
ATOM     14  C   UNL     1      -1.992  12.039  20.774  0.00  0.00    +0.000 A 
ATOM     15  C   UNL     1      -2.213  12.364  19.320  0.00  0.00    +0.000 C 
ATOM     16  C   UNL     1      -1.318  13.527  18.894  0.00  0.00    +0.000 C 
ATOM     17  C   UNL     1       0.184  13.325  18.840  0.00  0.00    +0.000 A 
ATOM     18  C   UNL     1       0.913  14.361  18.219  0.00  0.00    +0.000 A 
ATOM     19  C   UNL     1       2.294  14.309  18.130  0.00  0.00    +0.000 A 
ATOM     20  C   UNL     1       2.911  13.201  18.685  0.00  0.00    +0.000 A 
ATOM     21  N   UNL     1       2.260  12.187  19.315  0.00  0.00    +0.000 NA
ATOM     22  C   UNL     1       0.906  12.248  19.382  0.00  0.00    +0.000 A 
ATOM     23  C   UNL     1      -0.258   8.664  20.590  0.00  0.00    +0.000 C 
ATOM     24  C   UNL     1       0.736   7.707  21.262  0.00  0.00    +0.000 C 
ENDROOT
BRANCH  19  25
ATOM     25  O   UNL     1       3.104  15.243  17.551  0.00  0.00    +0.000 OA
ATOM     26  C   UNL     1       4.355  15.486  18.189  0.00  0.00    +0.000 C 
ENDBRANCH  19  25
BRANCH   1  27
ATOM     27  O   UNL     1       1.001   5.096  20.590  0.00  0.00    +0.000 OA
BRANCH  27  29
ATOM     28  C   UNL     1       1.354   2.876  21.398  0.00  0.00    +0.000 C 
ATOM     29  C   UNL     1       1.006   3.721  20.185  0.00  0.00    +0.000 C 
ENDBRANCH  27  29
ENDBRANCH   1  27
TORSDOF 3
ENDMDL
MODEL 9
REMARK VINA RESULT:      -5.5      3.912      6.013
REMARK  Name = 
REMARK  5 active torsions:
REMARK  status: ('A' for Active; 'I' for Inactive)
REMARK    1  A    between atoms: C_1  and  C_2
REMARK    2  A    between atoms: C_2  and  O_3
REMARK    3  A    between atoms: O_3  and  C_4
REMARK    4  A    between atoms: C_22  and  O_23
REMARK    5  A    between atoms: O_23  and  C_24
REMARK                            x       y       z     vdW  Elec       q    Type
REMARK                         _______ _______ _______ _____ _____    ______ ____
ROOT
ATOM      1  C   UNL     1      -5.109  14.106  23.956  0.00  0.00    +0.000 C 
ATOM      2  O   UNL     1      -5.961  13.254  24.179  0.00  0.00    +0.000 OA
ATOM      3  N   UNL     1      -3.782  13.825  23.693  0.00  0.00    +0.000 N 
ATOM      4  C   UNL     1      -3.340  12.435  23.561  0.00  0.00    +0.000 C 
ATOM      5  C   UNL     1      -2.805  12.151  22.144  0.00  0.00    +0.000 C 
ATOM      6  C   UNL     1      -1.714  13.152  21.769  0.00  0.00    +0.000 C 
ATOM      7  C   UNL     1      -0.446  12.844  21.367  0.00  0.00    +0.000 C 
ATOM      8  C   UNL     1       0.465  13.971  21.033  0.00  0.00    +0.000 A 
ATOM      9  C   UNL     1       0.997  14.791  22.043  0.00  0.00    +0.000 A 
ATOM     10  C   UNL     1       1.820  15.870  21.708  0.00  0.00    +0.000 A 
ATOM     11  C   UNL     1       2.127  16.115  20.372  0.00  0.00    +0.000 A 
ATOM     12 CL   UNL     1       3.139  17.446  19.962  0.00  0.00    +0.000 Cl
ATOM     13  C   UNL     1       1.633  15.288  19.364  0.00  0.00    +0.000 A 
ATOM     14  C   UNL     1       0.802  14.207  19.691  0.00  0.00    +0.000 A 
ATOM     15  C   UNL     1       0.322  13.254  18.627  0.00  0.00    +0.000 C 
ATOM     16  C   UNL     1       1.014  11.900  18.776  0.00  0.00    +0.000 C 
ATOM     17  C   UNL     1       0.706  11.039  19.986  0.00  0.00    +0.000 A 
ATOM     18  C   UNL     1       1.199   9.719  19.932  0.00  0.00    +0.000 A 
ATOM     19  C   UNL     1       1.008   8.840  20.986  0.00  0.00    +0.000 A 
ATOM     20  C   UNL     1       0.320   9.329  22.085  0.00  0.00    +0.000 A 
ATOM     21  N   UNL     1      -0.155  10.598  22.199  0.00  0.00    +0.000 NA
ATOM     22  C   UNL     1       0.030  11.441  21.151  0.00  0.00    +0.000 A 
ATOM     23  C   UNL     1      -2.274  14.572  21.890  0.00  0.00    +0.000 C 
ATOM     24  C   UNL     1      -2.798  14.837  23.307  0.00  0.00    +0.000 C 
ENDROOT
BRANCH  19  25
ATOM     25  O   UNL     1       1.431   7.545  21.048  0.00  0.00    +0.000 OA
ATOM     26  C   UNL     1       2.182   7.065  19.936  0.00  0.00    +0.000 C 
ENDBRANCH  19  25
BRANCH   1  27
ATOM     27  O   UNL     1      -5.380  15.436  23.869  0.00  0.00    +0.000 OA
BRANCH  27  29
ATOM     28  C   UNL     1      -5.845  16.348  21.711  0.00  0.00    +0.000 C 
ATOM     29  C   UNL     1      -6.453  15.794  22.988  0.00  0.00    +0.000 C 
ENDBRANCH  27  29
ENDBRANCH   1  27
TORSDOF 3
ENDMDL
