MODEL 1
REMARK VINA RESULT:      -8.8      0.000      0.000
REMARK  Name = 
REMARK  4 active torsions:
REMARK  status: ('A' for Active; 'I' for Inactive)
REMARK    1  A    between atoms: C_5  and  C_6
REMARK    2  A    between atoms: N_17  and  C_18
REMARK    3  A    between atoms: C_26  and  C_27
REMARK    4  A    between atoms: C_27  and  N_28
REMARK                            x       y       z     vdW  Elec       q    Type
REMARK                         _______ _______ _______ _____ _____    ______ ____
ROOT
ATOM      1  O   UNL     1       1.811   6.927  21.028  0.00  0.00    +0.000 OA
ATOM      2  C   UNL     1       1.680   7.789  20.160  0.00  0.00    +0.000 A 
ATOM      3  C   UNL     1       0.981   9.033  20.392  0.00  0.00    +0.000 A 
ATOM      4  S   UNL     1       0.374   9.532  21.890  0.00  0.00    +0.000 S 
ATOM      5  C   UNL     1      -0.184  11.035  21.242  0.00  0.00    +0.000 A 
ATOM      6  C   UNL     1       0.119  11.117  19.890  0.00  0.00    +0.000 A 
ATOM      7  C   UNL     1       0.784   9.956  19.417  0.00  0.00    +0.000 A 
ATOM      8  N   UNL     1       1.217   9.767  18.096  0.00  0.00    +0.000 NA
ATOM      9  C   UNL     1       1.891   8.669  17.913  0.00  0.00    +0.000 A 
ATOM     10  N   UNL     1       2.206   7.710  18.862  0.00  0.00    +0.000 N 
ENDROOT
BRANCH  10  11
ATOM     11  C   UNL     1       2.859   6.513  18.468  0.00  0.00    +0.000 A 
ATOM     12  C   UNL     1       2.239   5.261  18.378  0.00  0.00    +0.000 A 
ATOM     13  C   UNL     1       2.819   4.235  17.558  0.00  0.00    +0.000 A 
ATOM     14  C   UNL     1       4.087   4.429  16.987  0.00  0.00    +0.000 A 
ATOM     15  C   UNL     1       4.801   5.520  17.504  0.00  0.00    +0.000 A 
ATOM     16  C   UNL     1       4.170   6.618  18.092  0.00  0.00    +0.000 A 
ATOM     17  N   UNL     1       6.181   5.714  17.243  0.00  0.00    +0.000 N 
ATOM     18  C   UNL     1       6.143   5.597  15.810  0.00  0.00    +0.000 C 
ATOM     19  C   UNL     1       5.985   4.084  15.490  0.00  0.00    +0.000 C 
ATOM     20  O   UNL     1       4.578   3.729  15.838  0.00  0.00    +0.000 OA
ATOM     21  H   UNL     1       6.655   4.890  17.623  0.00  0.00    +0.000 HD
BRANCH  19  22
ATOM     22  C   UNL     1       6.735   4.156  14.092  0.00  0.00    +0.000 C 
BRANCH  22  23
ATOM     23  N   UNL     1       6.454   3.999  12.687  0.00  0.00    +0.000 NA
ATOM     24  C   UNL     1       5.173   3.476  12.287  0.00  0.00    +0.000 C 
ATOM     25  C   UNL     1       5.582   2.108  11.816  0.00  0.00    +0.000 C 
ATOM     26  C   UNL     1       6.950   2.323  11.162  0.00  0.00    +0.000 C 
ATOM     27  C   UNL     1       7.456   3.643  11.718  0.00  0.00    +0.000 C 
ENDBRANCH  22  23
ENDBRANCH  19  22
ENDBRANCH  10  11
BRANCH   5  28
ATOM     28  C   UNL     1      -0.833  12.040  22.113  0.00  0.00    +0.000 A 
ATOM     29  C   UNL     1      -0.285  13.326  22.237  0.00  0.00    +0.000 A 
ATOM     30  C   UNL     1      -0.899  14.301  23.034  0.00  0.00    +0.000 A 
ATOM     31  C   UNL     1      -2.072  13.999  23.721  0.00  0.00    +0.000 A 
ATOM     32 CL   UNL     1      -2.830  15.196  24.697  0.00  0.00    +0.000 Cl
ATOM     33  C   UNL     1      -2.633  12.731  23.615  0.00  0.00    +0.000 A 
ATOM     34  C   UNL     1      -2.018  11.760  22.813  0.00  0.00    +0.000 A 
ENDBRANCH   5  28
TORSDOF 4
ENDMDL
MODEL 2
REMARK VINA RESULT:      -8.2      5.189     12.175
REMARK  Name = 
REMARK  4 active torsions:
REMARK  status: ('A' for Active; 'I' for Inactive)
REMARK    1  A    between atoms: C_5  and  C_6
REMARK    2  A    between atoms: N_17  and  C_18
REMARK    3  A    between atoms: C_26  and  C_27
REMARK    4  A    between atoms: C_27  and  N_28
REMARK                            x       y       z     vdW  Elec       q    Type
REMARK                         _______ _______ _______ _____ _____    ______ ____
ROOT
ATOM      1  O   UNL     1       0.314  11.434  18.771  0.00  0.00    +0.000 OA
ATOM      2  C   UNL     1       0.506  10.614  19.668  0.00  0.00    +0.000 A 
ATOM      3  C   UNL     1       1.217   9.374  19.455  0.00  0.00    +0.000 A 
ATOM      4  S   UNL     1       1.986   8.940  18.012  0.00  0.00    +0.000 S 
ATOM      5  C   UNL     1       2.559   7.452  18.684  0.00  0.00    +0.000 A 
ATOM      6  C   UNL     1       2.149   7.332  20.004  0.00  0.00    +0.000 A 
ATOM      7  C   UNL     1       1.375   8.442  20.430  0.00  0.00    +0.000 A 
ATOM      8  N   UNL     1       0.837   8.594  21.717  0.00  0.00    +0.000 NA
ATOM      9  C   UNL     1       0.246   9.738  21.910  0.00  0.00    +0.000 A 
ATOM     10  N   UNL     1       0.106  10.774  21.003  0.00  0.00    +0.000 N 
ENDROOT
BRANCH  10  11
ATOM     11  C   UNL     1      -0.666  11.915  21.346  0.00  0.00    +0.000 A 
ATOM     12  C   UNL     1      -0.289  13.238  21.085  0.00  0.00    +0.000 A 
ATOM     13  C   UNL     1      -1.288  14.268  21.039  0.00  0.00    +0.000 A 
ATOM     14  C   UNL     1      -2.608  13.980  21.420  0.00  0.00    +0.000 A 
ATOM     15  C   UNL     1      -2.772  12.755  22.084  0.00  0.00    +0.000 A 
ATOM     16  C   UNL     1      -1.889  11.688  21.915  0.00  0.00    +0.000 A 
ATOM     17  N   UNL     1      -3.968  12.419  22.767  0.00  0.00    +0.000 N 
ATOM     18  C   UNL     1      -4.900  12.701  21.710  0.00  0.00    +0.000 C 
ATOM     19  C   UNL     1      -5.026  14.249  21.628  0.00  0.00    +0.000 C 
ATOM     20  O   UNL     1      -3.755  14.738  21.018  0.00  0.00    +0.000 OA
ATOM     21  H   UNL     1      -4.081  13.127  23.497  0.00  0.00    +0.000 HD
BRANCH  19  22
ATOM     22  C   UNL     1      -6.517  14.241  21.083  0.00  0.00    +0.000 C 
BRANCH  22  23
ATOM     23  N   UNL     1      -7.288  14.777  19.989  0.00  0.00    +0.000 NA
ATOM     24  C   UNL     1      -7.734  13.886  18.948  0.00  0.00    +0.000 C 
ATOM     25  C   UNL     1      -6.831  14.317  17.827  0.00  0.00    +0.000 C 
ATOM     26  C   UNL     1      -6.690  15.831  18.011  0.00  0.00    +0.000 C 
ATOM     27  C   UNL     1      -7.085  16.097  19.454  0.00  0.00    +0.000 C 
ENDBRANCH  22  23
ENDBRANCH  19  22
ENDBRANCH  10  11
BRANCH   5  28
ATOM     28  C   UNL     1       3.404   6.537  17.884  0.00  0.00    +0.000 A 
ATOM     29  C   UNL     1       3.151   5.157  17.890  0.00  0.00    +0.000 A 
ATOM     30  C   UNL     1       3.921   4.276  17.119  0.00  0.00    +0.000 A 
ATOM     31  C   UNL     1       4.960   4.768  16.332  0.00  0.00    +0.000 A 
ATOM     32 CL   UNL     1       5.904   3.689  15.382  0.00  0.00    +0.000 Cl
ATOM     33  C   UNL     1       5.230   6.132  16.312  0.00  0.00    +0.000 A 
ATOM     34  C   UNL     1       4.455   7.010  17.082  0.00  0.00    +0.000 A 
ENDBRANCH   5  28
TORSDOF 4
ENDMDL
MODEL 3
REMARK VINA RESULT:      -8.2      4.911     12.054
REMARK  Name = 
REMARK  4 active torsions:
REMARK  status: ('A' for Active; 'I' for Inactive)
REMARK    1  A    between atoms: C_5  and  C_6
REMARK    2  A    between atoms: N_17  and  C_18
REMARK    3  A    between atoms: C_26  and  C_27
REMARK    4  A    between atoms: C_27  and  N_28
REMARK                            x       y       z     vdW  Elec       q    Type
REMARK                         _______ _______ _______ _____ _____    ______ ____
ROOT
ATOM      1  O   UNL     1       0.419  11.374  18.887  0.00  0.00    +0.000 OA
ATOM      2  C   UNL     1       0.618  10.542  19.772  0.00  0.00    +0.000 A 
ATOM      3  C   UNL     1       1.298   9.290  19.529  0.00  0.00    +0.000 A 
ATOM      4  S   UNL     1       2.020   8.854  18.062  0.00  0.00    +0.000 S 
ATOM      5  C   UNL     1       2.581   7.349  18.705  0.00  0.00    +0.000 A 
ATOM      6  C   UNL     1       2.204   7.226  20.036  0.00  0.00    +0.000 A 
ATOM      7  C   UNL     1       1.464   8.347  20.491  0.00  0.00    +0.000 A 
ATOM      8  N   UNL     1       0.963   8.497  21.793  0.00  0.00    +0.000 NA
ATOM      9  C   UNL     1       0.401   9.650  22.013  0.00  0.00    +0.000 A 
ATOM     10  N   UNL     1       0.257  10.697  21.118  0.00  0.00    +0.000 N 
ENDROOT
BRANCH  10  11
ATOM     11  C   UNL     1      -0.482  11.851  21.492  0.00  0.00    +0.000 A 
ATOM     12  C   UNL     1      -0.268  13.135  20.976  0.00  0.00    +0.000 A 
ATOM     13  C   UNL     1      -1.314  14.115  21.048  0.00  0.00    +0.000 A 
ATOM     14  C   UNL     1      -2.481  13.842  21.780  0.00  0.00    +0.000 A 
ATOM     15  C   UNL     1      -2.398  12.719  22.617  0.00  0.00    +0.000 A 
ATOM     16  C   UNL     1      -1.514  11.667  22.372  0.00  0.00    +0.000 A 
ATOM     17  N   UNL     1      -3.367  12.444  23.614  0.00  0.00    +0.000 N 
ATOM     18  C   UNL     1      -4.545  12.544  22.795  0.00  0.00    +0.000 C 
ATOM     19  C   UNL     1      -4.789  14.059  22.547  0.00  0.00    +0.000 C 
ATOM     20  O   UNL     1      -3.739  14.498  21.582  0.00  0.00    +0.000 OA
ATOM     21  H   UNL     1      -3.347  13.245  24.251  0.00  0.00    +0.000 HD
BRANCH  19  22
ATOM     22  C   UNL     1      -6.364  13.926  22.396  0.00  0.00    +0.000 C 
BRANCH  22  23
ATOM     23  N   UNL     1      -7.335  13.310  21.526  0.00  0.00    +0.000 NA
ATOM     24  C   UNL     1      -7.469  11.876  21.536  0.00  0.00    +0.000 C 
ATOM     25  C   UNL     1      -6.850  11.545  20.207  0.00  0.00    +0.000 C 
ATOM     26  C   UNL     1      -7.276  12.695  19.291  0.00  0.00    +0.000 C 
ATOM     27  C   UNL     1      -7.667  13.827  20.225  0.00  0.00    +0.000 C 
ENDBRANCH  22  23
ENDBRANCH  19  22
ENDBRANCH  10  11
BRANCH   5  28
ATOM     28  C   UNL     1       3.386   6.425  17.876  0.00  0.00    +0.000 A 
ATOM     29  C   UNL     1       4.435   6.918  17.086  0.00  0.00    +0.000 A 
ATOM     30  C   UNL     1       5.227   6.058  16.315  0.00  0.00    +0.000 A 
ATOM     31  C   UNL     1       4.976   4.688  16.323  0.00  0.00    +0.000 A 
ATOM     32 CL   UNL     1       5.950   3.629  15.380  0.00  0.00    +0.000 Cl
ATOM     33  C   UNL     1       3.940   4.177  17.096  0.00  0.00    +0.000 A 
ATOM     34  C   UNL     1       3.152   5.040  17.870  0.00  0.00    +0.000 A 
ENDBRANCH   5  28
TORSDOF 4
ENDMDL
MODEL 4
REMARK VINA RESULT:      -7.9      1.223      1.269
REMARK  Name = 
REMARK  4 active torsions:
REMARK  status: ('A' for Active; 'I' for Inactive)
REMARK    1  A    between atoms: C_5  and  C_6
REMARK    2  A    between atoms: N_17  and  C_18
REMARK    3  A    between atoms: C_26  and  C_27
REMARK    4  A    between atoms: C_27  and  N_28
REMARK                            x       y       z     vdW  Elec       q    Type
REMARK                         _______ _______ _______ _____ _____    ______ ____
ROOT
ATOM      1  O   UNL     1       1.390   7.802  21.378  0.00  0.00    +0.000 OA
ATOM      2  C   UNL     1       1.237   8.446  20.340  0.00  0.00    +0.000 A 
ATOM      3  C   UNL     1       0.404   9.625  20.267  0.00  0.00    +0.000 A 
ATOM      4  S   UNL     1      -0.356  10.351  21.592  0.00  0.00    +0.000 S 
ATOM      5  C   UNL     1      -1.012  11.616  20.611  0.00  0.00    +0.000 A 
ATOM      6  C   UNL     1      -0.622  11.450  19.289  0.00  0.00    +0.000 A 
ATOM      7  C   UNL     1       0.187  10.298  19.109  0.00  0.00    +0.000 A 
ATOM      8  N   UNL     1       0.730   9.890  17.882  0.00  0.00    +0.000 NA
ATOM      9  C   UNL     1       1.521   8.860  17.971  0.00  0.00    +0.000 A 
ATOM     10  N   UNL     1       1.860   8.159  19.117  0.00  0.00    +0.000 N 
ENDROOT
BRANCH  10  11
ATOM     11  C   UNL     1       2.655   6.987  19.020  0.00  0.00    +0.000 A 
ATOM     12  C   UNL     1       2.277   5.728  19.501  0.00  0.00    +0.000 A 
ATOM     13  C   UNL     1       2.901   4.547  18.973  0.00  0.00    +0.000 A 
ATOM     14  C   UNL     1       3.998   4.663  18.105  0.00  0.00    +0.000 A 
ATOM     15  C   UNL     1       4.567   5.944  18.049  0.00  0.00    +0.000 A 
ATOM     16  C   UNL     1       3.844   7.099  18.352  0.00  0.00    +0.000 A 
ATOM     17  N   UNL     1       5.825   6.188  17.441  0.00  0.00    +0.000 N 
ATOM     18  C   UNL     1       5.576   5.544  16.180  0.00  0.00    +0.000 C 
ATOM     19  C   UNL     1       5.658   4.013  16.436  0.00  0.00    +0.000 C 
ATOM     20  O   UNL     1       4.419   3.650  17.185  0.00  0.00    +0.000 OA
ATOM     21  H   UNL     1       6.501   5.626  17.964  0.00  0.00    +0.000 HD
BRANCH  19  22
ATOM     22  C   UNL     1       6.143   3.649  14.969  0.00  0.00    +0.000 C 
BRANCH  22  23
ATOM     23  N   UNL     1       6.037   4.152  13.622  0.00  0.00    +0.000 NA
ATOM     24  C   UNL     1       4.989   3.651  12.771  0.00  0.00    +0.000 C 
ATOM     25  C   UNL     1       5.797   2.806  11.827  0.00  0.00    +0.000 C 
ATOM     26  C   UNL     1       7.103   3.582  11.643  0.00  0.00    +0.000 C 
ATOM     27  C   UNL     1       7.178   4.527  12.830  0.00  0.00    +0.000 C 
ENDBRANCH  22  23
ENDBRANCH  19  22
ENDBRANCH  10  11
BRANCH   5  28
ATOM     28  C   UNL     1      -1.819  12.701  21.215  0.00  0.00    +0.000 A 
ATOM     29  C   UNL     1      -1.907  13.950  20.582  0.00  0.00    +0.000 A 
ATOM     30  C   UNL     1      -2.688  14.981  21.120  0.00  0.00    +0.000 A 
ATOM     31  C   UNL     1      -3.389  14.774  22.306  0.00  0.00    +0.000 A 
ATOM     32 CL   UNL     1      -4.351  16.037  22.968  0.00  0.00    +0.000 Cl
ATOM     33  C   UNL     1      -3.315  13.545  22.952  0.00  0.00    +0.000 A 
ATOM     34  C   UNL     1      -2.536  12.515  22.407  0.00  0.00    +0.000 A 
ENDBRANCH   5  28
TORSDOF 4
ENDMDL
MODEL 5
REMARK VINA RESULT:      -7.9      1.926      2.234
REMARK  Name = 
REMARK  4 active torsions:
REMARK  status: ('A' for Active; 'I' for Inactive)
REMARK    1  A    between atoms: C_5  and  C_6
REMARK    2  A    between atoms: N_17  and  C_18
REMARK    3  A    between atoms: C_26  and  C_27
REMARK    4  A    between atoms: C_27  and  N_28
REMARK                            x       y       z     vdW  Elec       q    Type
REMARK                         _______ _______ _______ _____ _____    ______ ____
ROOT
ATOM      1  O   UNL     1       2.204   8.520  17.489  0.00  0.00    +0.000 OA
ATOM      2  C   UNL     1       1.867   8.505  18.672  0.00  0.00    +0.000 A 
ATOM      3  C   UNL     1       1.306   9.658  19.340  0.00  0.00    +0.000 A 
ATOM      4  S   UNL     1       0.917  11.117  18.580  0.00  0.00    +0.000 S 
ATOM      5  C   UNL     1       0.305  11.799  20.047  0.00  0.00    +0.000 A 
ATOM      6  C   UNL     1       0.410  10.882  21.083  0.00  0.00    +0.000 A 
ATOM      7  C   UNL     1       0.992   9.659  20.661  0.00  0.00    +0.000 A 
ATOM      8  N   UNL     1       1.211   8.550  21.493  0.00  0.00    +0.000 NA
ATOM      9  C   UNL     1       1.665   7.503  20.868  0.00  0.00    +0.000 A 
ATOM     10  N   UNL     1       1.941   7.387  19.516  0.00  0.00    +0.000 N 
ENDROOT
BRANCH  10  11
ATOM     11  C   UNL     1       2.537   6.199  19.015  0.00  0.00    +0.000 A 
ATOM     12  C   UNL     1       1.843   5.014  18.745  0.00  0.00    +0.000 A 
ATOM     13  C   UNL     1       2.402   4.050  17.839  0.00  0.00    +0.000 A 
ATOM     14  C   UNL     1       3.711   4.219  17.359  0.00  0.00    +0.000 A 
ATOM     15  C   UNL     1       4.463   5.189  18.038  0.00  0.00    +0.000 A 
ATOM     16  C   UNL     1       3.872   6.253  18.720  0.00  0.00    +0.000 A 
ATOM     17  N   UNL     1       5.866   5.313  17.871  0.00  0.00    +0.000 N 
ATOM     18  C   UNL     1       5.903   5.366  16.435  0.00  0.00    +0.000 C 
ATOM     19  C   UNL     1       5.666   3.914  15.928  0.00  0.00    +0.000 C 
ATOM     20  O   UNL     1       4.221   3.623  16.161  0.00  0.00    +0.000 OA
ATOM     21  H   UNL     1       6.262   4.419  18.173  0.00  0.00    +0.000 HD
BRANCH  19  22
ATOM     22  C   UNL     1       6.499   4.095  14.588  0.00  0.00    +0.000 C 
BRANCH  22  23
ATOM     23  N   UNL     1       6.282   4.190  13.167  0.00  0.00    +0.000 NA
ATOM     24  C   UNL     1       5.098   3.596  12.601  0.00  0.00    +0.000 C 
ATOM     25  C   UNL     1       5.707   2.417  11.894  0.00  0.00    +0.000 C 
ATOM     26  C   UNL     1       7.049   2.937  11.372  0.00  0.00    +0.000 C 
ATOM     27  C   UNL     1       7.351   4.171  12.204  0.00  0.00    +0.000 C 
ENDBRANCH  22  23
ENDBRANCH  19  22
ENDBRANCH  10  11
BRANCH   5  28
ATOM     28  C   UNL     1      -0.274  13.162  20.065  0.00  0.00    +0.000 A 
ATOM     29  C   UNL     1       0.233  14.154  19.213  0.00  0.00    +0.000 A 
ATOM     30  C   UNL     1      -0.318  15.442  19.193  0.00  0.00    +0.000 A 
ATOM     31  C   UNL     1      -1.385  15.754  20.032  0.00  0.00    +0.000 A 
ATOM     32 CL   UNL     1      -2.066  17.334  20.006  0.00  0.00    +0.000 Cl
ATOM     33  C   UNL     1      -1.903  14.787  20.886  0.00  0.00    +0.000 A 
ATOM     34  C   UNL     1      -1.351  13.499  20.900  0.00  0.00    +0.000 A 
ENDBRANCH   5  28
TORSDOF 4
ENDMDL
MODEL 6
REMARK VINA RESULT:      -7.8      4.908     12.339
REMARK  Name = 
REMARK  4 active torsions:
REMARK  status: ('A' for Active; 'I' for Inactive)
REMARK    1  A    between atoms: C_5  and  C_6
REMARK    2  A    between atoms: N_17  and  C_18
REMARK    3  A    between atoms: C_26  and  C_27
REMARK    4  A    between atoms: C_27  and  N_28
REMARK                            x       y       z     vdW  Elec       q    Type
REMARK                         _______ _______ _______ _____ _____    ______ ____
ROOT
ATOM      1  O   UNL     1       0.698  11.349  18.525  0.00  0.00    +0.000 OA
ATOM      2  C   UNL     1       0.811  10.502  19.410  0.00  0.00    +0.000 A 
ATOM      3  C   UNL     1       1.474   9.235  19.200  0.00  0.00    +0.000 A 
ATOM      4  S   UNL     1       2.286   8.796  17.783  0.00  0.00    +0.000 S 
ATOM      5  C   UNL     1       2.760   7.269  18.444  0.00  0.00    +0.000 A 
ATOM      6  C   UNL     1       2.285   7.141  19.742  0.00  0.00    +0.000 A 
ATOM      7  C   UNL     1       1.545   8.277  20.159  0.00  0.00    +0.000 A 
ATOM      8  N   UNL     1       0.957   8.426  21.424  0.00  0.00    +0.000 NA
ATOM      9  C   UNL     1       0.411   9.592  21.618  0.00  0.00    +0.000 A 
ATOM     10  N   UNL     1       0.359  10.652  20.729  0.00  0.00    +0.000 N 
ENDROOT
BRANCH  10  11
ATOM     11  C   UNL     1      -0.374  11.821  21.065  0.00  0.00    +0.000 A 
ATOM     12  C   UNL     1      -0.503  12.944  20.239  0.00  0.00    +0.000 A 
ATOM     13  C   UNL     1      -1.596  13.854  20.437  0.00  0.00    +0.000 A 
ATOM     14  C   UNL     1      -2.431  13.711  21.557  0.00  0.00    +0.000 A 
ATOM     15  C   UNL     1      -1.944  12.840  22.544  0.00  0.00    +0.000 A 
ATOM     16  C   UNL     1      -1.047  11.809  22.256  0.00  0.00    +0.000 A 
ATOM     17  N   UNL     1      -2.510  12.773  23.841  0.00  0.00    +0.000 N 
ATOM     18  C   UNL     1      -3.886  12.600  23.461  0.00  0.00    +0.000 C 
ATOM     19  C   UNL     1      -4.394  13.990  22.982  0.00  0.00    +0.000 C 
ATOM     20  O   UNL     1      -3.763  14.227  21.651  0.00  0.00    +0.000 OA
ATOM     21  H   UNL     1      -2.400  13.708  24.243  0.00  0.00    +0.000 HD
BRANCH  19  22
ATOM     22  C   UNL     1      -5.906  13.738  23.398  0.00  0.00    +0.000 C 
BRANCH  22  23
ATOM     23  N   UNL     1      -7.196  13.551  22.783  0.00  0.00    +0.000 NA
ATOM     24  C   UNL     1      -7.638  12.213  22.484  0.00  0.00    +0.000 C 
ATOM     25  C   UNL     1      -7.515  12.224  20.986  0.00  0.00    +0.000 C 
ATOM     26  C   UNL     1      -7.917  13.644  20.580  0.00  0.00    +0.000 C 
ATOM     27  C   UNL     1      -7.762  14.479  21.840  0.00  0.00    +0.000 C 
ENDBRANCH  22  23
ENDBRANCH  19  22
ENDBRANCH  10  11
BRANCH   5  28
ATOM     28  C   UNL     1       3.597   6.333  17.661  0.00  0.00    +0.000 A 
ATOM     29  C   UNL     1       3.503   4.950  17.880  0.00  0.00    +0.000 A 
ATOM     30  C   UNL     1       4.265   4.044  17.132  0.00  0.00    +0.000 A 
ATOM     31  C   UNL     1       5.138   4.514  16.153  0.00  0.00    +0.000 A 
ATOM     32 CL   UNL     1       6.073   3.404  15.229  0.00  0.00    +0.000 Cl
ATOM     33  C   UNL     1       5.249   5.880  15.919  0.00  0.00    +0.000 A 
ATOM     34  C   UNL     1       4.481   6.783  16.668  0.00  0.00    +0.000 A 
ENDBRANCH   5  28
TORSDOF 4
ENDMDL
MODEL 7
REMARK VINA RESULT:      -7.8      1.257      1.713
REMARK  Name = 
REMARK  4 active torsions:
REMARK  status: ('A' for Active; 'I' for Inactive)
REMARK    1  A    between atoms: C_5  and  C_6
REMARK    2  A    between atoms: N_17  and  C_18
REMARK    3  A    between atoms: C_26  and  C_27
REMARK    4  A    between atoms: C_27  and  N_28
REMARK                            x       y       z     vdW  Elec       q    Type
REMARK                         _______ _______ _______ _____ _____    ______ ____
ROOT
ATOM      1  O   UNL     1       1.428   8.052  21.563  0.00  0.00    +0.000 OA
ATOM      2  C   UNL     1       1.126   8.735  20.585  0.00  0.00    +0.000 A 
ATOM      3  C   UNL     1       0.253   9.884  20.674  0.00  0.00    +0.000 A 
ATOM      4  S   UNL     1      -0.357  10.521  22.117  0.00  0.00    +0.000 S 
ATOM      5  C   UNL     1      -1.170  11.804  21.289  0.00  0.00    +0.000 A 
ATOM      6  C   UNL     1      -0.944  11.712  19.922  0.00  0.00    +0.000 A 
ATOM      7  C   UNL     1      -0.128  10.601  19.586  0.00  0.00    +0.000 A 
ATOM      8  N   UNL     1       0.270  10.269  18.282  0.00  0.00    +0.000 NA
ATOM      9  C   UNL     1       1.098   9.266  18.223  0.00  0.00    +0.000 A 
ATOM     10  N   UNL     1       1.599   8.528  19.282  0.00  0.00    +0.000 N 
ENDROOT
BRANCH  10  11
ATOM     11  C   UNL     1       2.413   7.392  19.029  0.00  0.00    +0.000 A 
ATOM     12  C   UNL     1       2.129   6.096  19.475  0.00  0.00    +0.000 A 
ATOM     13  C   UNL     1       2.723   4.968  18.814  0.00  0.00    +0.000 A 
ATOM     14  C   UNL     1       3.711   5.170  17.838  0.00  0.00    +0.000 A 
ATOM     15  C   UNL     1       4.232   6.472  17.793  0.00  0.00    +0.000 A 
ATOM     16  C   UNL     1       3.514   7.582  18.240  0.00  0.00    +0.000 A 
ATOM     17  N   UNL     1       5.405   6.793  17.063  0.00  0.00    +0.000 N 
ATOM     18  C   UNL     1       5.034   6.210  15.802  0.00  0.00    +0.000 C 
ATOM     19  C   UNL     1       5.190   4.671  15.960  0.00  0.00    +0.000 C 
ATOM     20  O   UNL     1       4.055   4.224  16.819  0.00  0.00    +0.000 OA
ATOM     21  H   UNL     1       6.152   6.228  17.474  0.00  0.00    +0.000 HD
BRANCH  19  22
ATOM     22  C   UNL     1       5.515   4.404  14.429  0.00  0.00    +0.000 C 
BRANCH  22  23
ATOM     23  N   UNL     1       6.627   4.025  13.593  0.00  0.00    +0.000 NA
ATOM     24  C   UNL     1       7.829   4.818  13.630  0.00  0.00    +0.000 C 
ATOM     25  C   UNL     1       7.739   5.495  12.291  0.00  0.00    +0.000 C 
ATOM     26  C   UNL     1       7.133   4.435  11.368  0.00  0.00    +0.000 C 
ATOM     27  C   UNL     1       6.469   3.430  12.293  0.00  0.00    +0.000 C 
ENDBRANCH  22  23
ENDBRANCH  19  22
ENDBRANCH  10  11
BRANCH   5  28
ATOM     28  C   UNL     1      -1.929  12.829  22.040  0.00  0.00    +0.000 A 
ATOM     29  C   UNL     1      -3.199  13.230  21.601  0.00  0.00    +0.000 A 
ATOM     30  C   UNL     1      -3.946  14.178  22.312  0.00  0.00    +0.000 A 
ATOM     31  C   UNL     1      -3.427  14.741  23.475  0.00  0.00    +0.000 A 
ATOM     32 CL   UNL     1      -4.344  15.902  24.353  0.00  0.00    +0.000 Cl
ATOM     33  C   UNL     1      -2.169  14.360  23.929  0.00  0.00    +0.000 A 
ATOM     34  C   UNL     1      -1.427  13.408  23.217  0.00  0.00    +0.000 A 
ENDBRANCH   5  28
TORSDOF 4
ENDMDL
MODEL 8
REMARK VINA RESULT:      -7.7      5.163     12.257
REMARK  Name = 
REMARK  4 active torsions:
REMARK  status: ('A' for Active; 'I' for Inactive)
REMARK    1  A    between atoms: C_5  and  C_6
REMARK    2  A    between atoms: N_17  and  C_18
REMARK    3  A    between atoms: C_26  and  C_27
REMARK    4  A    between atoms: C_27  and  N_28
REMARK                            x       y       z     vdW  Elec       q    Type
REMARK                         _______ _______ _______ _____ _____    ______ ____
ROOT
ATOM      1  O   UNL     1      -0.605  11.606  19.645  0.00  0.00    +0.000 OA
ATOM      2  C   UNL     1      -0.257  10.864  20.563  0.00  0.00    +0.000 A 
ATOM      3  C   UNL     1       0.503   9.654  20.345  0.00  0.00    +0.000 A 
ATOM      4  S   UNL     1       1.126   9.163  18.851  0.00  0.00    +0.000 S 
ATOM      5  C   UNL     1       1.868   7.761  19.543  0.00  0.00    +0.000 A 
ATOM      6  C   UNL     1       1.623   7.712  20.908  0.00  0.00    +0.000 A 
ATOM      7  C   UNL     1       0.833   8.804  21.352  0.00  0.00    +0.000 A 
ATOM      8  N   UNL     1       0.439   9.016  22.682  0.00  0.00    +0.000 NA
ATOM      9  C   UNL     1      -0.198  10.135  22.872  0.00  0.00    +0.000 A 
ATOM     10  N   UNL     1      -0.510  11.095  21.923  0.00  0.00    +0.000 N 
ENDROOT
BRANCH  10  11
ATOM     11  C   UNL     1      -1.308  12.212  22.283  0.00  0.00    +0.000 A 
ATOM     12  C   UNL     1      -0.899  13.547  22.183  0.00  0.00    +0.000 A 
ATOM     13  C   UNL     1      -1.883  14.592  22.124  0.00  0.00    +0.000 A 
ATOM     14  C   UNL     1      -3.238  14.290  22.334  0.00  0.00    +0.000 A 
ATOM     15  C   UNL     1      -3.478  13.013  22.864  0.00  0.00    +0.000 A 
ATOM     16  C   UNL     1      -2.587  11.952  22.695  0.00  0.00    +0.000 A 
ATOM     17  N   UNL     1      -4.742  12.634  23.382  0.00  0.00    +0.000 N 
ATOM     18  C   UNL     1      -5.554  13.023  22.261  0.00  0.00    +0.000 C 
ATOM     19  C   UNL     1      -5.663  14.574  22.305  0.00  0.00    +0.000 C 
ATOM     20  O   UNL     1      -4.331  15.096  21.881  0.00  0.00    +0.000 OA
ATOM     21  H   UNL     1      -4.930  13.277  24.156  0.00  0.00    +0.000 HD
BRANCH  19  22
ATOM     22  C   UNL     1      -7.087  14.635  21.605  0.00  0.00    +0.000 C 
BRANCH  22  23
ATOM     23  N   UNL     1      -7.673  14.488  20.296  0.00  0.00    +0.000 NA
ATOM     24  C   UNL     1      -7.915  13.163  19.786  0.00  0.00    +0.000 C 
ATOM     25  C   UNL     1      -6.844  13.087  18.734  0.00  0.00    +0.000 C 
ATOM     26  C   UNL     1      -6.772  14.504  18.159  0.00  0.00    +0.000 C 
ATOM     27  C   UNL     1      -7.412  15.395  19.210  0.00  0.00    +0.000 C 
ENDBRANCH  22  23
ENDBRANCH  19  22
ENDBRANCH  10  11
BRANCH   5  28
ATOM     28  C   UNL     1       2.672   6.841  18.708  0.00  0.00    +0.000 A 
ATOM     29  C   UNL     1       2.261   5.513  18.525  0.00  0.00    +0.000 A 
ATOM     30  C   UNL     1       2.991   4.633  17.716  0.00  0.00    +0.000 A 
ATOM     31  C   UNL     1       4.150   5.073  17.080  0.00  0.00    +0.000 A 
ATOM     32 CL   UNL     1       5.047   3.996  16.083  0.00  0.00    +0.000 Cl
ATOM     33  C   UNL     1       4.578   6.385  17.249  0.00  0.00    +0.000 A 
ATOM     34  C   UNL     1       3.842   7.263  18.055  0.00  0.00    +0.000 A 
ENDBRANCH   5  28
TORSDOF 4
ENDMDL
MODEL 9
REMARK VINA RESULT:      -7.6      5.027     12.632
REMARK  Name = 
REMARK  4 active torsions:
REMARK  status: ('A' for Active; 'I' for Inactive)
REMARK    1  A    between atoms: C_5  and  C_6
REMARK    2  A    between atoms: N_17  and  C_18
REMARK    3  A    between atoms: C_26  and  C_27
REMARK    4  A    between atoms: C_27  and  N_28
REMARK                            x       y       z     vdW  Elec       q    Type
REMARK                         _______ _______ _______ _____ _____    ______ ____
ROOT
ATOM      1  O   UNL     1      -0.128   9.821  22.461  0.00  0.00    +0.000 OA
ATOM      2  C   UNL     1      -0.050  10.298  21.330  0.00  0.00    +0.000 A 
ATOM      3  C   UNL     1       0.713   9.679  20.270  0.00  0.00    +0.000 A 
ATOM      4  S   UNL     1       1.482   8.177  20.388  0.00  0.00    +0.000 S 
ATOM      5  C   UNL     1       2.029   8.250  18.748  0.00  0.00    +0.000 A 
ATOM      6  C   UNL     1       1.598   9.427  18.151  0.00  0.00    +0.000 A 
ATOM      7  C   UNL     1       0.848  10.238  19.040  0.00  0.00    +0.000 A 
ATOM      8  N   UNL     1       0.282  11.477  18.705  0.00  0.00    +0.000 NA
ATOM      9  C   UNL     1      -0.447  11.997  19.650  0.00  0.00    +0.000 A 
ATOM     10  N   UNL     1      -0.703  11.464  20.902  0.00  0.00    +0.000 N 
ENDROOT
BRANCH  10  11
ATOM     11  C   UNL     1      -1.435  12.219  21.857  0.00  0.00    +0.000 A 
ATOM     12  C   UNL     1      -0.859  12.966  22.891  0.00  0.00    +0.000 A 
ATOM     13  C   UNL     1      -1.604  14.032  23.500  0.00  0.00    +0.000 A 
ATOM     14  C   UNL     1      -2.959  14.212  23.178  0.00  0.00    +0.000 A 
ATOM     15  C   UNL     1      -3.542  13.143  22.481  0.00  0.00    +0.000 A 
ATOM     16  C   UNL     1      -2.794  12.259  21.703  0.00  0.00    +0.000 A 
ATOM     17  N   UNL     1      -4.944  13.031  22.304  0.00  0.00    +0.000 N 
ATOM     18  C   UNL     1      -5.196  14.347  21.782  0.00  0.00    +0.000 C 
ATOM     19  C   UNL     1      -5.123  15.327  22.987  0.00  0.00    +0.000 C 
ATOM     20  O   UNL     1      -3.678  15.439  23.344  0.00  0.00    +0.000 OA
ATOM     21  H   UNL     1      -5.341  12.975  23.246  0.00  0.00    +0.000 HD
BRANCH  19  22
ATOM     22  C   UNL     1      -6.138  16.382  22.373  0.00  0.00    +0.000 C 
BRANCH  22  23
ATOM     23  N   UNL     1      -6.176  17.406  21.358  0.00  0.00    +0.000 NA
ATOM     24  C   UNL     1      -7.128  17.286  20.284  0.00  0.00    +0.000 C 
ATOM     25  C   UNL     1      -6.203  16.940  19.150  0.00  0.00    +0.000 C 
ATOM     26  C   UNL     1      -4.937  17.754  19.429  0.00  0.00    +0.000 C 
ATOM     27  C   UNL     1      -5.006  18.110  20.905  0.00  0.00    +0.000 C 
ENDBRANCH  22  23
ENDBRANCH  19  22
ENDBRANCH  10  11
BRANCH   5  28
ATOM     28  C   UNL     1       2.797   7.132  18.156  0.00  0.00    +0.000 A 
ATOM     29  C   UNL     1       3.937   7.391  17.381  0.00  0.00    +0.000 A 
ATOM     30  C   UNL     1       4.694   6.347  16.834  0.00  0.00    +0.000 A 
ATOM     31  C   UNL     1       4.316   5.025  17.056  0.00  0.00    +0.000 A 
ATOM     32 CL   UNL     1       5.247   3.741  16.389  0.00  0.00    +0.000 Cl
ATOM     33  C   UNL     1       3.189   4.743  17.819  0.00  0.00    +0.000 A 
ATOM     34  C   UNL     1       2.436   5.791  18.368  0.00  0.00    +0.000 A 
ENDBRANCH   5  28
TORSDOF 4
ENDMDL
