MODEL 1
REMARK VINA RESULT:      -6.5      0.000      0.000
REMARK  Name = 
REMARK  10 active torsions:
REMARK  status: ('A' for Active; 'I' for Inactive)
REMARK    1  A    between atoms: C_1  and  O_2
REMARK    2  A    between atoms: O_2  and  C_3
REMARK    3  A    between atoms: C_3  and  C_4
REMARK    4  A    between atoms: N_6  and  C_7
REMARK    5  A    between atoms: C_7  and  C_8
REMARK    6  A    between atoms: C_8  and  N_9
REMARK    7  A    between atoms: N_9  and  C_10
REMARK    8  A    between atoms: C_10  and  C_11
REMARK    9  A    between atoms: C_11  and  O_12
REMARK   10  A    between atoms: C_11  and  C_13
REMARK                            x       y       z     vdW  Elec       q    Type
REMARK                         _______ _______ _______ _____ _____    ______ ____
ROOT
ATOM      1  N   UNL     1       5.438   5.542  18.801  0.00  0.00    +0.000 NA
ATOM      2  H   UNL     1       5.315   5.857  19.765  0.00  0.00    +0.000 HD
ENDROOT
BRANCH   1   3
ATOM      3  C   UNL     1       6.794   5.821  18.313  0.00  0.00    +0.000 C 
BRANCH   3   4
ATOM      4  C   UNL     1       7.497   4.638  17.615  0.00  0.00    +0.000 C 
BRANCH   4   7
ATOM      5  C   UNL     1       6.907   4.615  15.226  0.00  0.00    +0.000 C 
ATOM      6  O   UNL     1       7.739   5.461  14.924  0.00  0.00    +0.000 OA
ATOM      7  N   UNL     1       6.739   4.115  16.502  0.00  0.00    +0.000 N 
ATOM      8  H   UNL     1       5.935   3.520  16.674  0.00  0.00    +0.000 HD
BRANCH   5   9
ATOM      9  C   UNL     1       5.944   4.003  14.203  0.00  0.00    +0.000 C 
BRANCH   9  11
ATOM     10  C   UNL     1       5.663   3.094  12.045  0.00  0.00    +0.000 C 
ATOM     11  O   UNL     1       6.557   3.749  12.943  0.00  0.00    +0.000 OA
ENDBRANCH   9  11
ENDBRANCH   5   9
ENDBRANCH   4   7
ENDBRANCH   3   4
ENDBRANCH   1   3
BRANCH   1  12
ATOM     12  C   UNL     1       4.406   6.169  17.958  0.00  0.00    +0.000 C 
BRANCH  12  13
ATOM     13  C   UNL     1       3.120   6.513  18.749  0.00  0.00    +0.000 C 
BRANCH  13  14
ATOM     14  C   UNL     1       2.294   5.266  19.012  0.00  0.00    +0.000 A 
ATOM     15  C   UNL     1       1.813   5.010  20.306  0.00  0.00    +0.000 A 
ATOM     16  C   UNL     1       1.099   3.842  20.584  0.00  0.00    +0.000 A 
ATOM     17  C   UNL     1       0.853   2.914  19.575  0.00  0.00    +0.000 A 
ATOM     18  C   UNL     1       1.317   3.155  18.284  0.00  0.00    +0.000 A 
ATOM     19  C   UNL     1       2.030   4.323  18.004  0.00  0.00    +0.000 A 
ENDBRANCH  13  14
BRANCH  13  20
ATOM     20  O   UNL     1       2.346   7.470  18.014  0.00  0.00    +0.000 OA
ATOM     21  H   UNL     1       1.666   7.816  18.614  0.00  0.00    +0.000 HD
ENDBRANCH  13  20
ENDBRANCH  12  13
ENDBRANCH   1  12
TORSDOF 9
ENDMDL
MODEL 2
REMARK VINA RESULT:      -6.5      1.939      2.221
REMARK  Name = 
REMARK  10 active torsions:
REMARK  status: ('A' for Active; 'I' for Inactive)
REMARK    1  A    between atoms: C_1  and  O_2
REMARK    2  A    between atoms: O_2  and  C_3
REMARK    3  A    between atoms: C_3  and  C_4
REMARK    4  A    between atoms: N_6  and  C_7
REMARK    5  A    between atoms: C_7  and  C_8
REMARK    6  A    between atoms: C_8  and  N_9
REMARK    7  A    between atoms: N_9  and  C_10
REMARK    8  A    between atoms: C_10  and  C_11
REMARK    9  A    between atoms: C_11  and  O_12
REMARK   10  A    between atoms: C_11  and  C_13
REMARK                            x       y       z     vdW  Elec       q    Type
REMARK                         _______ _______ _______ _____ _____    ______ ____
ROOT
ATOM      1  N   UNL     1       6.478   4.124  18.428  0.00  0.00    +0.000 NA
ATOM      2  H   UNL     1       6.842   4.209  19.380  0.00  0.00    +0.000 HD
ENDROOT
BRANCH   1   3
ATOM      3  C   UNL     1       7.462   4.572  17.435  0.00  0.00    +0.000 C 
BRANCH   3   4
ATOM      4  C   UNL     1       6.934   5.587  16.399  0.00  0.00    +0.000 C 
BRANCH   4   7
ATOM      5  C   UNL     1       6.247   4.389  14.361  0.00  0.00    +0.000 C 
ATOM      6  O   UNL     1       5.158   4.065  14.816  0.00  0.00    +0.000 OA
ATOM      7  N   UNL     1       7.168   5.167  15.037  0.00  0.00    +0.000 N 
ATOM      8  H   UNL     1       8.092   5.265  14.629  0.00  0.00    +0.000 HD
BRANCH   5   9
ATOM      9  C   UNL     1       6.719   3.964  12.967  0.00  0.00    +0.000 C 
BRANCH   9  11
ATOM     10  C   UNL     1       5.745   2.277  11.638  0.00  0.00    +0.000 C 
ATOM     11  O   UNL     1       5.646   3.624  12.096  0.00  0.00    +0.000 OA
ENDBRANCH   9  11
ENDBRANCH   5   9
ENDBRANCH   4   7
ENDBRANCH   3   4
ENDBRANCH   1   3
BRANCH   1  12
ATOM     12  C   UNL     1       5.213   4.871  18.331  0.00  0.00    +0.000 C 
BRANCH  12  13
ATOM     13  C   UNL     1       4.020   3.971  17.926  0.00  0.00    +0.000 C 
BRANCH  13  14
ATOM     14  C   UNL     1       3.109   3.709  19.113  0.00  0.00    +0.000 A 
ATOM     15  C   UNL     1       3.565   2.920  20.180  0.00  0.00    +0.000 A 
ATOM     16  C   UNL     1       2.726   2.620  21.256  0.00  0.00    +0.000 A 
ATOM     17  C   UNL     1       1.420   3.106  21.283  0.00  0.00    +0.000 A 
ATOM     18  C   UNL     1       0.955   3.897  20.236  0.00  0.00    +0.000 A 
ATOM     19  C   UNL     1       1.792   4.199  19.160  0.00  0.00    +0.000 A 
ENDBRANCH  13  14
BRANCH  13  20
ATOM     20  O   UNL     1       4.511   2.731  17.399  0.00  0.00    +0.000 OA
ATOM     21  H   UNL     1       5.162   2.945  16.713  0.00  0.00    +0.000 HD
ENDBRANCH  13  20
ENDBRANCH  12  13
ENDBRANCH   1  12
TORSDOF 9
ENDMDL
MODEL 3
REMARK VINA RESULT:      -6.4      1.608      1.684
REMARK  Name = 
REMARK  10 active torsions:
REMARK  status: ('A' for Active; 'I' for Inactive)
REMARK    1  A    between atoms: C_1  and  O_2
REMARK    2  A    between atoms: O_2  and  C_3
REMARK    3  A    between atoms: C_3  and  C_4
REMARK    4  A    between atoms: N_6  and  C_7
REMARK    5  A    between atoms: C_7  and  C_8
REMARK    6  A    between atoms: C_8  and  N_9
REMARK    7  A    between atoms: N_9  and  C_10
REMARK    8  A    between atoms: C_10  and  C_11
REMARK    9  A    between atoms: C_11  and  O_12
REMARK   10  A    between atoms: C_11  and  C_13
REMARK                            x       y       z     vdW  Elec       q    Type
REMARK                         _______ _______ _______ _____ _____    ______ ____
ROOT
ATOM      1  N   UNL     1       6.101   5.425  19.555  0.00  0.00    +0.000 NA
ATOM      2  H   UNL     1       6.043   5.993  20.402  0.00  0.00    +0.000 HD
ENDROOT
BRANCH   1   3
ATOM      3  C   UNL     1       7.139   5.923  18.644  0.00  0.00    +0.000 C 
BRANCH   3   4
ATOM      4  C   UNL     1       7.918   4.833  17.877  0.00  0.00    +0.000 C 
BRANCH   4   7
ATOM      5  C   UNL     1       7.024   4.717  15.587  0.00  0.00    +0.000 C 
ATOM      6  O   UNL     1       7.645   5.700  15.204  0.00  0.00    +0.000 OA
ATOM      7  N   UNL     1       7.121   4.189  16.860  0.00  0.00    +0.000 N 
ATOM      8  H   UNL     1       6.465   3.458  17.119  0.00  0.00    +0.000 HD
BRANCH   5   9
ATOM      9  C   UNL     1       6.055   3.948  14.683  0.00  0.00    +0.000 C 
BRANCH   9  11
ATOM     10  C   UNL     1       5.589   3.417  12.434  0.00  0.00    +0.000 C 
ATOM     11  O   UNL     1       6.606   3.645  13.406  0.00  0.00    +0.000 OA
ENDBRANCH   9  11
ENDBRANCH   5   9
ENDBRANCH   4   7
ENDBRANCH   3   4
ENDBRANCH   1   3
BRANCH   1  12
ATOM     12  C   UNL     1       4.776   5.384  18.914  0.00  0.00    +0.000 C 
BRANCH  12  13
ATOM     13  C   UNL     1       4.345   3.947  18.530  0.00  0.00    +0.000 C 
BRANCH  13  14
ATOM     14  C   UNL     1       2.963   3.630  19.075  0.00  0.00    +0.000 A 
ATOM     15  C   UNL     1       2.582   4.119  20.334  0.00  0.00    +0.000 A 
ATOM     16  C   UNL     1       1.338   3.794  20.879  0.00  0.00    +0.000 A 
ATOM     17  C   UNL     1       0.455   2.977  20.174  0.00  0.00    +0.000 A 
ATOM     18  C   UNL     1       0.815   2.490  18.921  0.00  0.00    +0.000 A 
ATOM     19  C   UNL     1       2.058   2.815  18.374  0.00  0.00    +0.000 A 
ENDBRANCH  13  14
BRANCH  13  20
ATOM     20  O   UNL     1       5.302   3.007  19.036  0.00  0.00    +0.000 OA
ATOM     21  H   UNL     1       4.980   2.700  19.898  0.00  0.00    +0.000 HD
ENDBRANCH  13  20
ENDBRANCH  12  13
ENDBRANCH   1  12
TORSDOF 9
ENDMDL
MODEL 4
REMARK VINA RESULT:      -6.4      1.806      2.118
REMARK  Name = 
REMARK  10 active torsions:
REMARK  status: ('A' for Active; 'I' for Inactive)
REMARK    1  A    between atoms: C_1  and  O_2
REMARK    2  A    between atoms: O_2  and  C_3
REMARK    3  A    between atoms: C_3  and  C_4
REMARK    4  A    between atoms: N_6  and  C_7
REMARK    5  A    between atoms: C_7  and  C_8
REMARK    6  A    between atoms: C_8  and  N_9
REMARK    7  A    between atoms: N_9  and  C_10
REMARK    8  A    between atoms: C_10  and  C_11
REMARK    9  A    between atoms: C_11  and  O_12
REMARK   10  A    between atoms: C_11  and  C_13
REMARK                            x       y       z     vdW  Elec       q    Type
REMARK                         _______ _______ _______ _____ _____    ______ ____
ROOT
ATOM      1  N   UNL     1       6.712   4.058  18.272  0.00  0.00    +0.000 NA
ATOM      2  H   UNL     1       7.237   3.359  18.801  0.00  0.00    +0.000 HD
ENDROOT
BRANCH   1   3
ATOM      3  C   UNL     1       7.550   5.211  17.924  0.00  0.00    +0.000 C 
BRANCH   3   4
ATOM      4  C   UNL     1       7.308   5.798  16.517  0.00  0.00    +0.000 C 
BRANCH   4   7
ATOM      5  C   UNL     1       6.898   4.817  14.297  0.00  0.00    +0.000 C 
ATOM      6  O   UNL     1       7.801   5.445  13.759  0.00  0.00    +0.000 OA
ATOM      7  N   UNL     1       6.604   4.886  15.645  0.00  0.00    +0.000 N 
ATOM      8  H   UNL     1       5.754   4.434  15.966  0.00  0.00    +0.000 HD
BRANCH   5   9
ATOM      9  C   UNL     1       5.979   3.866  13.524  0.00  0.00    +0.000 C 
BRANCH   9  11
ATOM     10  C   UNL     1       5.720   2.435  11.668  0.00  0.00    +0.000 C 
ATOM     11  O   UNL     1       6.569   3.373  12.325  0.00  0.00    +0.000 OA
ENDBRANCH   9  11
ENDBRANCH   5   9
ENDBRANCH   4   7
ENDBRANCH   3   4
ENDBRANCH   1   3
BRANCH   1  12
ATOM     12  C   UNL     1       5.524   4.451  19.049  0.00  0.00    +0.000 C 
BRANCH  12  13
ATOM     13  C   UNL     1       4.199   4.119  18.320  0.00  0.00    +0.000 C 
BRANCH  13  14
ATOM     14  C   UNL     1       3.147   3.630  19.299  0.00  0.00    +0.000 A 
ATOM     15  C   UNL     1       1.787   3.828  19.016  0.00  0.00    +0.000 A 
ATOM     16  C   UNL     1       0.803   3.436  19.927  0.00  0.00    +0.000 A 
ATOM     17  C   UNL     1       1.163   2.840  21.133  0.00  0.00    +0.000 A 
ATOM     18  C   UNL     1       2.508   2.628  21.427  0.00  0.00    +0.000 A 
ATOM     19  C   UNL     1       3.492   3.018  20.517  0.00  0.00    +0.000 A 
ENDBRANCH  13  14
BRANCH  13  20
ATOM     20  O   UNL     1       4.440   3.123  17.316  0.00  0.00    +0.000 OA
ATOM     21  H   UNL     1       5.398   2.976  17.277  0.00  0.00    +0.000 HD
ENDBRANCH  13  20
ENDBRANCH  12  13
ENDBRANCH   1  12
TORSDOF 9
ENDMDL
MODEL 5
REMARK VINA RESULT:      -6.2      0.581      1.276
REMARK  Name = 
REMARK  10 active torsions:
REMARK  status: ('A' for Active; 'I' for Inactive)
REMARK    1  A    between atoms: C_1  and  O_2
REMARK    2  A    between atoms: O_2  and  C_3
REMARK    3  A    between atoms: C_3  and  C_4
REMARK    4  A    between atoms: N_6  and  C_7
REMARK    5  A    between atoms: C_7  and  C_8
REMARK    6  A    between atoms: C_8  and  N_9
REMARK    7  A    between atoms: N_9  and  C_10
REMARK    8  A    between atoms: C_10  and  C_11
REMARK    9  A    between atoms: C_11  and  O_12
REMARK   10  A    between atoms: C_11  and  C_13
REMARK                            x       y       z     vdW  Elec       q    Type
REMARK                         _______ _______ _______ _____ _____    ______ ____
ROOT
ATOM      1  N   UNL     1       5.525   6.639  17.608  0.00  0.00    +0.000 NA
ATOM      2  H   UNL     1       5.979   6.607  16.693  0.00  0.00    +0.000 HD
ENDROOT
BRANCH   1   3
ATOM      3  C   UNL     1       6.157   5.711  18.555  0.00  0.00    +0.000 C 
BRANCH   3   4
ATOM      4  C   UNL     1       7.222   4.775  17.946  0.00  0.00    +0.000 C 
BRANCH   4   7
ATOM      5  C   UNL     1       6.924   4.568  15.512  0.00  0.00    +0.000 C 
ATOM      6  O   UNL     1       7.554   5.588  15.262  0.00  0.00    +0.000 OA
ATOM      7  N   UNL     1       6.741   4.063  16.784  0.00  0.00    +0.000 N 
ATOM      8  H   UNL     1       6.091   3.292  16.897  0.00  0.00    +0.000 HD
BRANCH   5   9
ATOM      9  C   UNL     1       6.257   3.722  14.422  0.00  0.00    +0.000 C 
BRANCH   9  11
ATOM     10  C   UNL     1       6.513   3.306  12.115  0.00  0.00    +0.000 C 
ATOM     11  O   UNL     1       6.363   4.301  13.125  0.00  0.00    +0.000 OA
ENDBRANCH   9  11
ENDBRANCH   5   9
ENDBRANCH   4   7
ENDBRANCH   3   4
ENDBRANCH   1   3
BRANCH   1  12
ATOM     12  C   UNL     1       4.089   6.363  17.438  0.00  0.00    +0.000 C 
BRANCH  12  13
ATOM     13  C   UNL     1       3.290   6.531  18.754  0.00  0.00    +0.000 C 
BRANCH  13  14
ATOM     14  C   UNL     1       2.443   5.303  19.037  0.00  0.00    +0.000 A 
ATOM     15  C   UNL     1       2.164   4.396  18.003  0.00  0.00    +0.000 A 
ATOM     16  C   UNL     1       1.341   3.290  18.228  0.00  0.00    +0.000 A 
ATOM     17  C   UNL     1       0.788   3.071  19.487  0.00  0.00    +0.000 A 
ATOM     18  C   UNL     1       1.061   3.957  20.526  0.00  0.00    +0.000 A 
ATOM     19  C   UNL     1       1.884   5.063  20.305  0.00  0.00    +0.000 A 
ENDBRANCH  13  14
BRANCH  13  20
ATOM     20  O   UNL     1       2.457   7.695  18.665  0.00  0.00    +0.000 OA
ATOM     21  H   UNL     1       2.789   8.233  17.929  0.00  0.00    +0.000 HD
ENDBRANCH  13  20
ENDBRANCH  12  13
ENDBRANCH   1  12
TORSDOF 9
ENDMDL
MODEL 6
REMARK VINA RESULT:      -6.2      2.759      3.976
REMARK  Name = 
REMARK  10 active torsions:
REMARK  status: ('A' for Active; 'I' for Inactive)
REMARK    1  A    between atoms: C_1  and  O_2
REMARK    2  A    between atoms: O_2  and  C_3
REMARK    3  A    between atoms: C_3  and  C_4
REMARK    4  A    between atoms: N_6  and  C_7
REMARK    5  A    between atoms: C_7  and  C_8
REMARK    6  A    between atoms: C_8  and  N_9
REMARK    7  A    between atoms: N_9  and  C_10
REMARK    8  A    between atoms: C_10  and  C_11
REMARK    9  A    between atoms: C_11  and  O_12
REMARK   10  A    between atoms: C_11  and  C_13
REMARK                            x       y       z     vdW  Elec       q    Type
REMARK                         _______ _______ _______ _____ _____    ______ ____
ROOT
ATOM      1  N   UNL     1       4.416   4.146  16.000  0.00  0.00    +0.000 NA
ATOM      2  H   UNL     1       4.447   3.132  15.875  0.00  0.00    +0.000 HD
ENDROOT
BRANCH   1   3
ATOM      3  C   UNL     1       5.573   4.800  15.376  0.00  0.00    +0.000 C 
BRANCH   3   4
ATOM      4  C   UNL     1       6.918   4.590  16.104  0.00  0.00    +0.000 C 
BRANCH   4   7
ATOM      5  C   UNL     1       7.702   5.817  18.088  0.00  0.00    +0.000 C 
ATOM      6  O   UNL     1       7.659   4.835  18.818  0.00  0.00    +0.000 OA
ATOM      7  N   UNL     1       7.402   5.793  16.740  0.00  0.00    +0.000 N 
ATOM      8  H   UNL     1       7.336   6.683  16.256  0.00  0.00    +0.000 HD
BRANCH   5   9
ATOM      9  C   UNL     1       8.103   7.206  18.596  0.00  0.00    +0.000 C 
BRANCH   9  11
ATOM     10  C   UNL     1       8.406   9.484  18.067  0.00  0.00    +0.000 C 
ATOM     11  O   UNL     1       7.848   8.239  17.650  0.00  0.00    +0.000 OA
ENDBRANCH   9  11
ENDBRANCH   5   9
ENDBRANCH   4   7
ENDBRANCH   3   4
ENDBRANCH   1   3
BRANCH   1  12
ATOM     12  C   UNL     1       4.318   4.447  17.438  0.00  0.00    +0.000 C 
BRANCH  12  13
ATOM     13  C   UNL     1       4.357   3.173  18.317  0.00  0.00    +0.000 C 
BRANCH  13  14
ATOM     14  C   UNL     1       3.164   3.122  19.254  0.00  0.00    +0.000 A 
ATOM     15  C   UNL     1       3.366   2.928  20.629  0.00  0.00    +0.000 A 
ATOM     16  C   UNL     1       2.281   2.822  21.503  0.00  0.00    +0.000 A 
ATOM     17  C   UNL     1       0.978   2.911  21.016  0.00  0.00    +0.000 A 
ATOM     18  C   UNL     1       0.760   3.112  19.656  0.00  0.00    +0.000 A 
ATOM     19  C   UNL     1       1.843   3.219  18.781  0.00  0.00    +0.000 A 
ENDBRANCH  13  14
BRANCH  13  20
ATOM     20  O   UNL     1       5.577   3.146  19.070  0.00  0.00    +0.000 OA
ATOM     21  H   UNL     1       5.506   3.822  19.762  0.00  0.00    +0.000 HD
ENDBRANCH  13  20
ENDBRANCH  12  13
ENDBRANCH   1  12
TORSDOF 9
ENDMDL
MODEL 7
REMARK VINA RESULT:      -6.1      2.062      2.212
REMARK  Name = 
REMARK  10 active torsions:
REMARK  status: ('A' for Active; 'I' for Inactive)
REMARK    1  A    between atoms: C_1  and  O_2
REMARK    2  A    between atoms: O_2  and  C_3
REMARK    3  A    between atoms: C_3  and  C_4
REMARK    4  A    between atoms: N_6  and  C_7
REMARK    5  A    between atoms: C_7  and  C_8
REMARK    6  A    between atoms: C_8  and  N_9
REMARK    7  A    between atoms: N_9  and  C_10
REMARK    8  A    between atoms: C_10  and  C_11
REMARK    9  A    between atoms: C_11  and  O_12
REMARK   10  A    between atoms: C_11  and  C_13
REMARK                            x       y       z     vdW  Elec       q    Type
REMARK                         _______ _______ _______ _____ _____    ______ ____
ROOT
ATOM      1  N   UNL     1       6.719   4.275  18.511  0.00  0.00    +0.000 NA
ATOM      2  H   UNL     1       7.358   4.187  19.304  0.00  0.00    +0.000 HD
ENDROOT
BRANCH   1   3
ATOM      3  C   UNL     1       7.069   5.422  17.664  0.00  0.00    +0.000 C 
BRANCH   3   4
ATOM      4  C   UNL     1       5.962   5.882  16.692  0.00  0.00    +0.000 C 
BRANCH   4   7
ATOM      5  C   UNL     1       6.572   4.750  14.593  0.00  0.00    +0.000 C 
ATOM      6  O   UNL     1       7.645   5.329  14.493  0.00  0.00    +0.000 OA
ATOM      7  N   UNL     1       5.697   4.917  15.650  0.00  0.00    +0.000 N 
ATOM      8  H   UNL     1       4.777   4.497  15.571  0.00  0.00    +0.000 HD
BRANCH   5   9
ATOM      9  C   UNL     1       6.069   3.755  13.542  0.00  0.00    +0.000 C 
BRANCH   9  11
ATOM     10  C   UNL     1       6.626   2.652  11.534  0.00  0.00    +0.000 C 
ATOM     11  O   UNL     1       6.783   3.836  12.313  0.00  0.00    +0.000 OA
ENDBRANCH   9  11
ENDBRANCH   5   9
ENDBRANCH   4   7
ENDBRANCH   3   4
ENDBRANCH   1   3
BRANCH   1  12
ATOM     12  C   UNL     1       5.339   4.361  19.017  0.00  0.00    +0.000 C 
BRANCH  12  13
ATOM     13  C   UNL     1       4.606   2.998  18.980  0.00  0.00    +0.000 C 
BRANCH  13  14
ATOM     14  C   UNL     1       3.136   3.161  19.324  0.00  0.00    +0.000 A 
ATOM     15  C   UNL     1       2.758   4.004  20.381  0.00  0.00    +0.000 A 
ATOM     16  C   UNL     1       1.416   4.126  20.751  0.00  0.00    +0.000 A 
ATOM     17  C   UNL     1       0.433   3.411  20.071  0.00  0.00    +0.000 A 
ATOM     18  C   UNL     1       0.790   2.577  19.015  0.00  0.00    +0.000 A 
ATOM     19  C   UNL     1       2.130   2.454  18.642  0.00  0.00    +0.000 A 
ENDBRANCH  13  14
BRANCH  13  20
ATOM     20  O   UNL     1       5.230   2.092  19.899  0.00  0.00    +0.000 OA
ATOM     21  H   UNL     1       4.657   1.312  19.972  0.00  0.00    +0.000 HD
ENDBRANCH  13  20
ENDBRANCH  12  13
ENDBRANCH   1  12
TORSDOF 9
ENDMDL
MODEL 8
REMARK VINA RESULT:      -6.0      1.235      1.236
REMARK  Name = 
REMARK  10 active torsions:
REMARK  status: ('A' for Active; 'I' for Inactive)
REMARK    1  A    between atoms: C_1  and  O_2
REMARK    2  A    between atoms: O_2  and  C_3
REMARK    3  A    between atoms: C_3  and  C_4
REMARK    4  A    between atoms: N_6  and  C_7
REMARK    5  A    between atoms: C_7  and  C_8
REMARK    6  A    between atoms: C_8  and  N_9
REMARK    7  A    between atoms: N_9  and  C_10
REMARK    8  A    between atoms: C_10  and  C_11
REMARK    9  A    between atoms: C_11  and  O_12
REMARK   10  A    between atoms: C_11  and  C_13
REMARK                            x       y       z     vdW  Elec       q    Type
REMARK                         _______ _______ _______ _____ _____    ______ ____
ROOT
ATOM      1  N   UNL     1       5.728   4.915  19.230  0.00  0.00    +0.000 NA
ATOM      2  H   UNL     1       5.864   4.498  20.153  0.00  0.00    +0.000 HD
ENDROOT
BRANCH   1   3
ATOM      3  C   UNL     1       6.985   5.450  18.691  0.00  0.00    +0.000 C 
BRANCH   3   4
ATOM      4  C   UNL     1       7.698   4.545  17.664  0.00  0.00    +0.000 C 
BRANCH   4   7
ATOM      5  C   UNL     1       6.575   4.220  15.498  0.00  0.00    +0.000 C 
ATOM      6  O   UNL     1       5.915   3.265  15.887  0.00  0.00    +0.000 OA
ATOM      7  N   UNL     1       7.441   4.939  16.299  0.00  0.00    +0.000 N 
ATOM      8  H   UNL     1       8.041   5.624  15.849  0.00  0.00    +0.000 HD
BRANCH   5   9
ATOM      9  C   UNL     1       6.512   4.735  14.057  0.00  0.00    +0.000 C 
BRANCH   9  11
ATOM     10  C   UNL     1       6.238   3.264  12.234  0.00  0.00    +0.000 C 
ATOM     11  O   UNL     1       5.582   4.020  13.250  0.00  0.00    +0.000 OA
ENDBRANCH   9  11
ENDBRANCH   5   9
ENDBRANCH   4   7
ENDBRANCH   3   4
ENDBRANCH   1   3
BRANCH   1  12
ATOM     12  C   UNL     1       4.682   5.946  19.320  0.00  0.00    +0.000 C 
BRANCH  12  13
ATOM     13  C   UNL     1       3.566   5.757  18.264  0.00  0.00    +0.000 C 
BRANCH  13  14
ATOM     14  C   UNL     1       2.565   4.707  18.712  0.00  0.00    +0.000 A 
ATOM     15  C   UNL     1       1.892   4.864  19.934  0.00  0.00    +0.000 A 
ATOM     16  C   UNL     1       1.008   3.884  20.392  0.00  0.00    +0.000 A 
ATOM     17  C   UNL     1       0.781   2.735  19.637  0.00  0.00    +0.000 A 
ATOM     18  C   UNL     1       1.435   2.567  18.420  0.00  0.00    +0.000 A 
ATOM     19  C   UNL     1       2.318   3.546  17.959  0.00  0.00    +0.000 A 
ENDBRANCH  13  14
BRANCH  13  20
ATOM     20  O   UNL     1       4.151   5.377  17.011  0.00  0.00    +0.000 OA
ATOM     21  H   UNL     1       3.706   4.567  16.716  0.00  0.00    +0.000 HD
ENDBRANCH  13  20
ENDBRANCH  12  13
ENDBRANCH   1  12
TORSDOF 9
ENDMDL
MODEL 9
REMARK VINA RESULT:      -6.0      1.300      1.377
REMARK  Name = 
REMARK  10 active torsions:
REMARK  status: ('A' for Active; 'I' for Inactive)
REMARK    1  A    between atoms: C_1  and  O_2
REMARK    2  A    between atoms: O_2  and  C_3
REMARK    3  A    between atoms: C_3  and  C_4
REMARK    4  A    between atoms: N_6  and  C_7
REMARK    5  A    between atoms: C_7  and  C_8
REMARK    6  A    between atoms: C_8  and  N_9
REMARK    7  A    between atoms: N_9  and  C_10
REMARK    8  A    between atoms: C_10  and  C_11
REMARK    9  A    between atoms: C_11  and  O_12
REMARK   10  A    between atoms: C_11  and  C_13
REMARK                            x       y       z     vdW  Elec       q    Type
REMARK                         _______ _______ _______ _____ _____    ______ ____
ROOT
ATOM      1  N   UNL     1       6.030   5.098  18.619  0.00  0.00    +0.000 NA
ATOM      2  H   UNL     1       6.332   4.225  19.057  0.00  0.00    +0.000 HD
ENDROOT
BRANCH   1   3
ATOM      3  C   UNL     1       7.104   6.099  18.620  0.00  0.00    +0.000 C 
BRANCH   3   4
ATOM      4  C   UNL     1       7.263   6.893  17.306  0.00  0.00    +0.000 C 
BRANCH   4   7
ATOM      5  C   UNL     1       6.895   5.183  15.575  0.00  0.00    +0.000 C 
ATOM      6  O   UNL     1       7.867   4.516  15.908  0.00  0.00    +0.000 OA
ATOM      7  N   UNL     1       6.491   6.335  16.220  0.00  0.00    +0.000 N 
ATOM      8  H   UNL     1       5.758   6.887  15.785  0.00  0.00    +0.000 HD
BRANCH   5   9
ATOM      9  C   UNL     1       6.003   4.806  14.388  0.00  0.00    +0.000 C 
BRANCH   9  11
ATOM     10  C   UNL     1       6.321   3.529  12.432  0.00  0.00    +0.000 C 
ATOM     11  O   UNL     1       6.296   3.518  13.858  0.00  0.00    +0.000 OA
ENDBRANCH   9  11
ENDBRANCH   5   9
ENDBRANCH   4   7
ENDBRANCH   3   4
ENDBRANCH   1   3
BRANCH   1  12
ATOM     12  C   UNL     1       4.821   5.583  19.305  0.00  0.00    +0.000 C 
BRANCH  12  13
ATOM     13  C   UNL     1       3.544   5.423  18.445  0.00  0.00    +0.000 C 
BRANCH  13  14
ATOM     14  C   UNL     1       2.546   4.498  19.120  0.00  0.00    +0.000 A 
ATOM     15  C   UNL     1       2.531   4.392  20.520  0.00  0.00    +0.000 A 
ATOM     16  C   UNL     1       1.660   3.507  21.159  0.00  0.00    +0.000 A 
ATOM     17  C   UNL     1       0.790   2.717  20.411  0.00  0.00    +0.000 A 
ATOM     18  C   UNL     1       0.786   2.815  19.023  0.00  0.00    +0.000 A 
ATOM     19  C   UNL     1       1.655   3.700  18.381  0.00  0.00    +0.000 A 
ENDBRANCH  13  14
BRANCH  13  20
ATOM     20  O   UNL     1       3.896   4.909  17.154  0.00  0.00    +0.000 OA
ATOM     21  H   UNL     1       4.241   5.650  16.631  0.00  0.00    +0.000 HD
ENDBRANCH  13  20
ENDBRANCH  12  13
ENDBRANCH   1  12
TORSDOF 9
ENDMDL
