MODEL 1
REMARK VINA RESULT:      -7.2      0.000      0.000
REMARK  Name = 
REMARK  15 active torsions:
REMARK  status: ('A' for Active; 'I' for Inactive)
REMARK    1  A    between atoms: C_2  and  C_3
REMARK    2  A    between atoms: C_3  and  N_4
REMARK    3  A    between atoms: N_4  and  C_5
REMARK    4  A    between atoms: N_4  and  C_15
REMARK    5  A    between atoms: C_5  and  C_6
REMARK    6  A    between atoms: C_6  and  C_7
REMARK    7  A    between atoms: C_7  and  C_8
REMARK    8  A    between atoms: C_8  and  C_9
REMARK    9  A    between atoms: C_15  and  C_16
REMARK   10  A    between atoms: C_16  and  C_17
REMARK   11  A    between atoms: C_17  and  N_18
REMARK   12  A    between atoms: C_23  and  O_24
REMARK   13  A    between atoms: O_24  and  C_25
REMARK   14  A    between atoms: C_26  and  O_27
REMARK   15  A    between atoms: O_27  and  C_28
REMARK                            x       y       z     vdW  Elec       q    Type
REMARK                         _______ _______ _______ _____ _____    ______ ____
ROOT
ATOM      1  C   UNL     1       2.130   2.401  20.329  0.00  0.00    +0.000 C 
ENDROOT
BRANCH   1   2
ATOM      2  N   UNL     1       3.269   2.498  19.411  0.00  0.00    +0.000 N 
ATOM      3  C   UNL     1       3.099   3.032  18.146  0.00  0.00    +0.000 C 
ATOM      4  C   UNL     1       4.091   2.787  17.277  0.00  0.00    +0.000 C 
ATOM      5  C   UNL     1       5.057   3.879  17.143  0.00  0.00    +0.000 A 
ATOM      6  C   UNL     1       5.490   4.239  15.869  0.00  0.00    +0.000 A 
ATOM      7  C   UNL     1       6.416   5.271  15.700  0.00  0.00    +0.000 A 
ATOM      8  C   UNL     1       6.908   5.955  16.824  0.00  0.00    +0.000 A 
ATOM      9  C   UNL     1       6.517   5.547  18.111  0.00  0.00    +0.000 A 
ATOM     10  C   UNL     1       5.610   4.474  18.294  0.00  0.00    +0.000 A 
ATOM     11  C   UNL     1       5.247   4.045  19.718  0.00  0.00    +0.000 C 
ATOM     12  C   UNL     1       4.528   2.704  20.026  0.00  0.00    +0.000 C 
ATOM     13  O   UNL     1       4.936   1.965  20.927  0.00  0.00    +0.000 OA
BRANCH   7  14
ATOM     14  O   UNL     1       6.907   5.659  14.478  0.00  0.00    +0.000 OA
ATOM     15  C   UNL     1       7.164   4.627  13.538  0.00  0.00    +0.000 C 
ENDBRANCH   7  14
BRANCH   8  16
ATOM     16  O   UNL     1       7.772   6.984  16.546  0.00  0.00    +0.000 OA
ATOM     17  C   UNL     1       7.741   8.156  17.345  0.00  0.00    +0.000 C 
ENDBRANCH   8  16
ENDBRANCH   1   2
BRANCH   1  18
ATOM     18  C   UNL     1       1.874   3.665  21.153  0.00  0.00    +0.000 C 
BRANCH  18  19
ATOM     19  C   UNL     1       1.199   4.776  20.330  0.00  0.00    +0.000 C 
BRANCH  19  20
ATOM     20  N   UNL     1       1.998   6.003  20.091  0.00  0.00    +0.000 NA
BRANCH  20  21
ATOM     21  C   UNL     1       1.854   6.446  18.687  0.00  0.00    +0.000 C 
BRANCH  21  23
ATOM     22  C   UNL     1       3.568   7.796  17.436  0.00  0.00    +0.000 C 
ATOM     23  C   UNL     1       3.166   6.638  17.975  0.00  0.00    +0.000 C 
ENDBRANCH  21  23
ENDBRANCH  20  21
BRANCH  20  24
ATOM     24  C   UNL     1       1.557   7.083  21.012  0.00  0.00    +0.000 C 
BRANCH  24  25
ATOM     25  C   UNL     1       1.710   8.517  20.471  0.00  0.00    +0.000 C 
BRANCH  25  26
ATOM     26  C   UNL     1       0.387   9.242  20.195  0.00  0.00    +0.000 C 
BRANCH  26  27
ATOM     27  C   UNL     1       0.362   9.891  18.810  0.00  0.00    +0.000 C 
BRANCH  27  28
ATOM     28  C   UNL     1      -1.001  10.420  18.440  0.00  0.00    +0.000 A 
ATOM     29  C   UNL     1      -1.680   9.895  17.333  0.00  0.00    +0.000 A 
ATOM     30  C   UNL     1      -2.955  10.359  17.003  0.00  0.00    +0.000 A 
ATOM     31  C   UNL     1      -3.556  11.356  17.769  0.00  0.00    +0.000 A 
ATOM     32  C   UNL     1      -2.879  11.897  18.860  0.00  0.00    +0.000 A 
ATOM     33  C   UNL     1      -1.605  11.433  19.194  0.00  0.00    +0.000 A 
ENDBRANCH  27  28
ENDBRANCH  26  27
ENDBRANCH  25  26
ENDBRANCH  24  25
ENDBRANCH  20  24
ENDBRANCH  19  20
ENDBRANCH  18  19
ENDBRANCH   1  18
TORSDOF 13
ENDMDL
MODEL 2
REMARK VINA RESULT:      -7.0      1.611      2.101
REMARK  Name = 
REMARK  15 active torsions:
REMARK  status: ('A' for Active; 'I' for Inactive)
REMARK    1  A    between atoms: C_2  and  C_3
REMARK    2  A    between atoms: C_3  and  N_4
REMARK    3  A    between atoms: N_4  and  C_5
REMARK    4  A    between atoms: N_4  and  C_15
REMARK    5  A    between atoms: C_5  and  C_6
REMARK    6  A    between atoms: C_6  and  C_7
REMARK    7  A    between atoms: C_7  and  C_8
REMARK    8  A    between atoms: C_8  and  C_9
REMARK    9  A    between atoms: C_15  and  C_16
REMARK   10  A    between atoms: C_16  and  C_17
REMARK   11  A    between atoms: C_17  and  N_18
REMARK   12  A    between atoms: C_23  and  O_24
REMARK   13  A    between atoms: O_24  and  C_25
REMARK   14  A    between atoms: C_26  and  O_27
REMARK   15  A    between atoms: O_27  and  C_28
REMARK                            x       y       z     vdW  Elec       q    Type
REMARK                         _______ _______ _______ _____ _____    ______ ____
ROOT
ATOM      1  C   UNL     1       1.651   2.738  19.876  0.00  0.00    +0.000 C 
ENDROOT
BRANCH   1   2
ATOM      2  N   UNL     1       2.905   2.758  19.115  0.00  0.00    +0.000 N 
ATOM      3  C   UNL     1       2.925   3.252  17.823  0.00  0.00    +0.000 C 
ATOM      4  C   UNL     1       4.011   2.937  17.102  0.00  0.00    +0.000 C 
ATOM      5  C   UNL     1       5.033   3.986  17.063  0.00  0.00    +0.000 A 
ATOM      6  C   UNL     1       5.643   4.283  15.847  0.00  0.00    +0.000 A 
ATOM      7  C   UNL     1       6.627   5.272  15.770  0.00  0.00    +0.000 A 
ATOM      8  C   UNL     1       6.996   5.978  16.928  0.00  0.00    +0.000 A 
ATOM      9  C   UNL     1       6.422   5.632  18.163  0.00  0.00    +0.000 A 
ATOM     10  C   UNL     1       5.454   4.601  18.258  0.00  0.00    +0.000 A 
ATOM     11  C   UNL     1       4.888   4.239  19.634  0.00  0.00    +0.000 C 
ATOM     12  C   UNL     1       4.080   2.939  19.885  0.00  0.00    +0.000 C 
ATOM     13  O   UNL     1       4.333   2.218  20.855  0.00  0.00    +0.000 OA
BRANCH   7  14
ATOM     14  O   UNL     1       7.291   5.596  14.613  0.00  0.00    +0.000 OA
ATOM     15  C   UNL     1       7.143   4.700  13.522  0.00  0.00    +0.000 C 
ENDBRANCH   7  14
BRANCH   8  16
ATOM     16  O   UNL     1       7.932   6.962  16.735  0.00  0.00    +0.000 OA
ATOM     17  C   UNL     1       7.849   8.161  17.489  0.00  0.00    +0.000 C 
ENDBRANCH   8  16
ENDBRANCH   1   2
BRANCH   1  18
ATOM     18  C   UNL     1       0.975   4.105  20.015  0.00  0.00    +0.000 C 
BRANCH  18  19
ATOM     19  C   UNL     1       1.745   5.048  20.955  0.00  0.00    +0.000 C 
BRANCH  19  20
ATOM     20  N   UNL     1       2.237   6.318  20.363  0.00  0.00    +0.000 NA
BRANCH  20  21
ATOM     21  C   UNL     1       1.749   6.461  18.975  0.00  0.00    +0.000 C 
BRANCH  21  23
ATOM     22  C   UNL     1       2.796   8.392  17.749  0.00  0.00    +0.000 C 
ATOM     23  C   UNL     1       2.751   7.086  18.042  0.00  0.00    +0.000 C 
ENDBRANCH  21  23
ENDBRANCH  20  21
BRANCH  20  24
ATOM     24  C   UNL     1       1.780   7.469  21.184  0.00  0.00    +0.000 C 
BRANCH  24  25
ATOM     25  C   UNL     1       0.396   8.036  20.816  0.00  0.00    +0.000 C 
BRANCH  25  26
ATOM     26  C   UNL     1       0.406   9.495  20.344  0.00  0.00    +0.000 C 
BRANCH  26  27
ATOM     27  C   UNL     1       0.661  10.472  21.493  0.00  0.00    +0.000 C 
BRANCH  27  28
ATOM     28  C   UNL     1      -0.565  11.267  21.864  0.00  0.00    +0.000 A 
ATOM     29  C   UNL     1      -1.272  10.961  23.034  0.00  0.00    +0.000 A 
ATOM     30  C   UNL     1      -2.391  11.713  23.400  0.00  0.00    +0.000 A 
ATOM     31  C   UNL     1      -2.817  12.767  22.594  0.00  0.00    +0.000 A 
ATOM     32  C   UNL     1      -2.131  13.066  21.419  0.00  0.00    +0.000 A 
ATOM     33  C   UNL     1      -1.010  12.317  21.053  0.00  0.00    +0.000 A 
ENDBRANCH  27  28
ENDBRANCH  26  27
ENDBRANCH  25  26
ENDBRANCH  24  25
ENDBRANCH  20  24
ENDBRANCH  19  20
ENDBRANCH  18  19
ENDBRANCH   1  18
TORSDOF 13
ENDMDL
MODEL 3
REMARK VINA RESULT:      -6.9      1.374      1.991
REMARK  Name = 
REMARK  15 active torsions:
REMARK  status: ('A' for Active; 'I' for Inactive)
REMARK    1  A    between atoms: C_2  and  C_3
REMARK    2  A    between atoms: C_3  and  N_4
REMARK    3  A    between atoms: N_4  and  C_5
REMARK    4  A    between atoms: N_4  and  C_15
REMARK    5  A    between atoms: C_5  and  C_6
REMARK    6  A    between atoms: C_6  and  C_7
REMARK    7  A    between atoms: C_7  and  C_8
REMARK    8  A    between atoms: C_8  and  C_9
REMARK    9  A    between atoms: C_15  and  C_16
REMARK   10  A    between atoms: C_16  and  C_17
REMARK   11  A    between atoms: C_17  and  N_18
REMARK   12  A    between atoms: C_23  and  O_24
REMARK   13  A    between atoms: O_24  and  C_25
REMARK   14  A    between atoms: C_26  and  O_27
REMARK   15  A    between atoms: O_27  and  C_28
REMARK                            x       y       z     vdW  Elec       q    Type
REMARK                         _______ _______ _______ _____ _____    ______ ____
ROOT
ATOM      1  C   UNL     1       1.362   3.038  19.830  0.00  0.00    +0.000 C 
ENDROOT
BRANCH   1   2
ATOM      2  N   UNL     1       2.584   2.988  19.021  0.00  0.00    +0.000 N 
ATOM      3  C   UNL     1       2.596   3.528  17.747  0.00  0.00    +0.000 C 
ATOM      4  C   UNL     1       3.627   3.155  16.973  0.00  0.00    +0.000 C 
ATOM      5  C   UNL     1       4.727   4.121  16.931  0.00  0.00    +0.000 A 
ATOM      6  C   UNL     1       5.315   4.414  15.703  0.00  0.00    +0.000 A 
ATOM      7  C   UNL     1       6.371   5.325  15.621  0.00  0.00    +0.000 A 
ATOM      8  C   UNL     1       6.837   5.955  16.788  0.00  0.00    +0.000 A 
ATOM      9  C   UNL     1       6.283   5.609  18.032  0.00  0.00    +0.000 A 
ATOM     10  C   UNL     1       5.240   4.655  18.128  0.00  0.00    +0.000 A 
ATOM     11  C   UNL     1       4.698   4.287  19.512  0.00  0.00    +0.000 C 
ATOM     12  C   UNL     1       3.797   3.046  19.750  0.00  0.00    +0.000 C 
ATOM     13  O   UNL     1       4.027   2.272  20.683  0.00  0.00    +0.000 OA
BRANCH   7  14
ATOM     14  O   UNL     1       7.016   5.640  14.451  0.00  0.00    +0.000 OA
ATOM     15  C   UNL     1       7.040   4.635  13.447  0.00  0.00    +0.000 C 
ENDBRANCH   7  14
BRANCH   8  16
ATOM     16  O   UNL     1       7.842   6.869  16.592  0.00  0.00    +0.000 OA
ATOM     17  C   UNL     1       7.886   8.039  17.393  0.00  0.00    +0.000 C 
ENDBRANCH   8  16
ENDBRANCH   1   2
BRANCH   1  18
ATOM     18  C   UNL     1       0.847   4.453  20.108  0.00  0.00    +0.000 C 
BRANCH  18  19
ATOM     19  C   UNL     1       1.733   5.215  21.109  0.00  0.00    +0.000 C 
BRANCH  19  20
ATOM     20  N   UNL     1       2.049   6.625  20.775  0.00  0.00    +0.000 NA
BRANCH  20  21
ATOM     21  C   UNL     1       2.241   6.778  19.317  0.00  0.00    +0.000 C 
BRANCH  21  23
ATOM     22  C   UNL     1       2.349   8.587  17.572  0.00  0.00    +0.000 C 
ATOM     23  C   UNL     1       2.147   8.202  18.839  0.00  0.00    +0.000 C 
ENDBRANCH  21  23
ENDBRANCH  20  21
BRANCH  20  24
ATOM     24  C   UNL     1       0.952   7.514  21.239  0.00  0.00    +0.000 C 
BRANCH  24  25
ATOM     25  C   UNL     1       1.403   8.812  21.936  0.00  0.00    +0.000 C 
BRANCH  25  26
ATOM     26  C   UNL     1       0.378   9.407  22.909  0.00  0.00    +0.000 C 
BRANCH  26  27
ATOM     27  C   UNL     1      -0.793  10.068  22.180  0.00  0.00    +0.000 C 
BRANCH  27  28
ATOM     28  C   UNL     1      -0.350  10.904  21.007  0.00  0.00    +0.000 A 
ATOM     29  C   UNL     1       0.387  12.077  21.220  0.00  0.00    +0.000 A 
ATOM     30  C   UNL     1       0.827  12.840  20.137  0.00  0.00    +0.000 A 
ATOM     31  C   UNL     1       0.525  12.445  18.835  0.00  0.00    +0.000 A 
ATOM     32  C   UNL     1      -0.224  11.291  18.615  0.00  0.00    +0.000 A 
ATOM     33  C   UNL     1      -0.662  10.524  19.697  0.00  0.00    +0.000 A 
ENDBRANCH  27  28
ENDBRANCH  26  27
ENDBRANCH  25  26
ENDBRANCH  24  25
ENDBRANCH  20  24
ENDBRANCH  19  20
ENDBRANCH  18  19
ENDBRANCH   1  18
TORSDOF 13
ENDMDL
MODEL 4
REMARK VINA RESULT:      -6.9      3.574      8.304
REMARK  Name = 
REMARK  15 active torsions:
REMARK  status: ('A' for Active; 'I' for Inactive)
REMARK    1  A    between atoms: C_2  and  C_3
REMARK    2  A    between atoms: C_3  and  N_4
REMARK    3  A    between atoms: N_4  and  C_5
REMARK    4  A    between atoms: N_4  and  C_15
REMARK    5  A    between atoms: C_5  and  C_6
REMARK    6  A    between atoms: C_6  and  C_7
REMARK    7  A    between atoms: C_7  and  C_8
REMARK    8  A    between atoms: C_8  and  C_9
REMARK    9  A    between atoms: C_15  and  C_16
REMARK   10  A    between atoms: C_16  and  C_17
REMARK   11  A    between atoms: C_17  and  N_18
REMARK   12  A    between atoms: C_23  and  O_24
REMARK   13  A    between atoms: O_24  and  C_25
REMARK   14  A    between atoms: C_26  and  O_27
REMARK   15  A    between atoms: O_27  and  C_28
REMARK                            x       y       z     vdW  Elec       q    Type
REMARK                         _______ _______ _______ _____ _____    ______ ____
ROOT
ATOM      1  C   UNL     1       3.675   5.005  19.954  0.00  0.00    +0.000 C 
ENDROOT
BRANCH   1   2
ATOM      2  N   UNL     1       2.548   5.933  19.814  0.00  0.00    +0.000 N 
ATOM      3  C   UNL     1       2.285   6.862  20.805  0.00  0.00    +0.000 C 
ATOM      4  C   UNL     1       1.073   7.434  20.752  0.00  0.00    +0.000 C 
ATOM      5  C   UNL     1       1.056   8.749  20.108  0.00  0.00    +0.000 A 
ATOM      6  C   UNL     1       0.320   9.775  20.698  0.00  0.00    +0.000 A 
ATOM      7  C   UNL     1       0.273  11.042  20.111  0.00  0.00    +0.000 A 
ATOM      8  C   UNL     1       0.980  11.283  18.920  0.00  0.00    +0.000 A 
ATOM      9  C   UNL     1       1.669  10.229  18.296  0.00  0.00    +0.000 A 
ATOM     10  C   UNL     1       1.687   8.931  18.863  0.00  0.00    +0.000 A 
ATOM     11  C   UNL     1       2.421   7.809  18.122  0.00  0.00    +0.000 C 
ATOM     12  C   UNL     1       2.235   6.312  18.485  0.00  0.00    +0.000 C 
ATOM     13  O   UNL     1       2.039   5.471  17.603  0.00  0.00    +0.000 OA
BRANCH   7  14
ATOM     14  O   UNL     1      -0.454  12.089  20.620  0.00  0.00    +0.000 OA
ATOM     15  C   UNL     1      -0.545  12.173  22.034  0.00  0.00    +0.000 C 
ENDBRANCH   7  14
BRANCH   8  16
ATOM     16  O   UNL     1       0.910  12.572  18.454  0.00  0.00    +0.000 OA
ATOM     17  C   UNL     1       2.049  13.411  18.552  0.00  0.00    +0.000 C 
ENDBRANCH   8  16
ENDBRANCH   1   2
BRANCH   1  18
ATOM     18  C   UNL     1       5.002   5.537  19.406  0.00  0.00    +0.000 C 
BRANCH  18  19
ATOM     19  C   UNL     1       5.710   4.520  18.494  0.00  0.00    +0.000 C 
BRANCH  19  20
ATOM     20  N   UNL     1       7.132   4.796  18.171  0.00  0.00    +0.000 NA
BRANCH  20  21
ATOM     21  C   UNL     1       7.391   4.554  16.736  0.00  0.00    +0.000 C 
BRANCH  21  23
ATOM     22  C   UNL     1       6.055   3.984  14.682  0.00  0.00    +0.000 C 
ATOM     23  C   UNL     1       6.232   3.927  16.009  0.00  0.00    +0.000 C 
ENDBRANCH  21  23
ENDBRANCH  20  21
BRANCH  20  24
ATOM     24  C   UNL     1       7.466   6.202  18.518  0.00  0.00    +0.000 C 
BRANCH  24  25
ATOM     25  C   UNL     1       7.126   7.248  17.439  0.00  0.00    +0.000 C 
BRANCH  25  26
ATOM     26  C   UNL     1       7.989   8.515  17.479  0.00  0.00    +0.000 C 
BRANCH  26  27
ATOM     27  C   UNL     1       8.626   8.736  18.852  0.00  0.00    +0.000 C 
BRANCH  27  28
ATOM     28  C   UNL     1       9.172  10.131  19.022  0.00  0.00    +0.000 A 
ATOM     29  C   UNL     1       9.631  10.557  20.276  0.00  0.00    +0.000 A 
ATOM     30  C   UNL     1      10.166  11.837  20.433  0.00  0.00    +0.000 A 
ATOM     31  C   UNL     1      10.238  12.703  19.344  0.00  0.00    +0.000 A 
ATOM     32  C   UNL     1       9.766  12.294  18.098  0.00  0.00    +0.000 A 
ATOM     33  C   UNL     1       9.233  11.014  17.937  0.00  0.00    +0.000 A 
ENDBRANCH  27  28
ENDBRANCH  26  27
ENDBRANCH  25  26
ENDBRANCH  24  25
ENDBRANCH  20  24
ENDBRANCH  19  20
ENDBRANCH  18  19
ENDBRANCH   1  18
TORSDOF 13
ENDMDL
MODEL 5
REMARK VINA RESULT:      -6.9      3.715      9.124
REMARK  Name = 
REMARK  15 active torsions:
REMARK  status: ('A' for Active; 'I' for Inactive)
REMARK    1  A    between atoms: C_2  and  C_3
REMARK    2  A    between atoms: C_3  and  N_4
REMARK    3  A    between atoms: N_4  and  C_5
REMARK    4  A    between atoms: N_4  and  C_15
REMARK    5  A    between atoms: C_5  and  C_6
REMARK    6  A    between atoms: C_6  and  C_7
REMARK    7  A    between atoms: C_7  and  C_8
REMARK    8  A    between atoms: C_8  and  C_9
REMARK    9  A    between atoms: C_15  and  C_16
REMARK   10  A    between atoms: C_16  and  C_17
REMARK   11  A    between atoms: C_17  and  N_18
REMARK   12  A    between atoms: C_23  and  O_24
REMARK   13  A    between atoms: O_24  and  C_25
REMARK   14  A    between atoms: C_26  and  O_27
REMARK   15  A    between atoms: O_27  and  C_28
REMARK                            x       y       z     vdW  Elec       q    Type
REMARK                         _______ _______ _______ _____ _____    ______ ____
ROOT
ATOM      1  C   UNL     1       1.981   7.402  18.146  0.00  0.00    +0.000 C 
ENDROOT
BRANCH   1   2
ATOM      2  N   UNL     1       1.906   8.743  18.736  0.00  0.00    +0.000 N 
ATOM      3  C   UNL     1       1.736   9.851  17.924  0.00  0.00    +0.000 C 
ATOM      4  C   UNL     1       2.002  11.033  18.499  0.00  0.00    +0.000 C 
ATOM      5  C   UNL     1       0.818  11.743  18.990  0.00  0.00    +0.000 A 
ATOM      6  C   UNL     1       0.708  13.110  18.746  0.00  0.00    +0.000 A 
ATOM      7  C   UNL     1      -0.403  13.824  19.203  0.00  0.00    +0.000 A 
ATOM      8  C   UNL     1      -1.418  13.155  19.907  0.00  0.00    +0.000 A 
ATOM      9  C   UNL     1      -1.272  11.789  20.205  0.00  0.00    +0.000 A 
ATOM     10  C   UNL     1      -0.129  11.067  19.781  0.00  0.00    +0.000 A 
ATOM     11  C   UNL     1      -0.003   9.589  20.164  0.00  0.00    +0.000 C 
ATOM     12  C   UNL     1       1.330   8.806  20.029  0.00  0.00    +0.000 C 
ATOM     13  O   UNL     1       1.740   8.098  20.953  0.00  0.00    +0.000 OA
BRANCH   7  14
ATOM     14  O   UNL     1      -0.563  15.176  19.025  0.00  0.00    +0.000 OA
ATOM     15  C   UNL     1       0.465  16.012  19.534  0.00  0.00    +0.000 C 
ENDBRANCH   7  14
BRANCH   8  16
ATOM     16  O   UNL     1      -2.487  13.936  20.267  0.00  0.00    +0.000 OA
ATOM     17  C   UNL     1      -3.613  13.335  20.887  0.00  0.00    +0.000 C 
ENDBRANCH   8  16
ENDBRANCH   1   2
BRANCH   1  18
ATOM     18  C   UNL     1       3.403   6.849  18.015  0.00  0.00    +0.000 C 
BRANCH  18  19
ATOM     19  C   UNL     1       3.741   5.832  19.119  0.00  0.00    +0.000 C 
BRANCH  19  20
ATOM     20  N   UNL     1       3.112   4.493  19.003  0.00  0.00    +0.000 NA
BRANCH  20  21
ATOM     21  C   UNL     1       1.813   4.472  19.709  0.00  0.00    +0.000 C 
BRANCH  21  23
ATOM     22  C   UNL     1       1.810   2.783  21.573  0.00  0.00    +0.000 C 
ATOM     23  C   UNL     1       1.914   4.050  21.150  0.00  0.00    +0.000 C 
ENDBRANCH  21  23
ENDBRANCH  20  21
BRANCH  20  24
ATOM     24  C   UNL     1       2.917   4.148  17.571  0.00  0.00    +0.000 C 
BRANCH  24  25
ATOM     25  C   UNL     1       4.100   3.426  16.898  0.00  0.00    +0.000 C 
BRANCH  25  26
ATOM     26  C   UNL     1       4.880   4.276  15.888  0.00  0.00    +0.000 C 
BRANCH  26  27
ATOM     27  C   UNL     1       6.393   4.146  16.071  0.00  0.00    +0.000 C 
BRANCH  27  28
ATOM     28  C   UNL     1       6.960   5.199  16.989  0.00  0.00    +0.000 A 
ATOM     29  C   UNL     1       7.420   4.845  18.264  0.00  0.00    +0.000 A 
ATOM     30  C   UNL     1       7.974   5.810  19.108  0.00  0.00    +0.000 A 
ATOM     31  C   UNL     1       8.064   7.136  18.688  0.00  0.00    +0.000 A 
ATOM     32  C   UNL     1       7.592   7.500  17.429  0.00  0.00    +0.000 A 
ATOM     33  C   UNL     1       7.040   6.537  16.583  0.00  0.00    +0.000 A 
ENDBRANCH  27  28
ENDBRANCH  26  27
ENDBRANCH  25  26
ENDBRANCH  24  25
ENDBRANCH  20  24
ENDBRANCH  19  20
ENDBRANCH  18  19
ENDBRANCH   1  18
TORSDOF 13
ENDMDL
MODEL 6
REMARK VINA RESULT:      -6.8      4.128      9.712
REMARK  Name = 
REMARK  15 active torsions:
REMARK  status: ('A' for Active; 'I' for Inactive)
REMARK    1  A    between atoms: C_2  and  C_3
REMARK    2  A    between atoms: C_3  and  N_4
REMARK    3  A    between atoms: N_4  and  C_5
REMARK    4  A    between atoms: N_4  and  C_15
REMARK    5  A    between atoms: C_5  and  C_6
REMARK    6  A    between atoms: C_6  and  C_7
REMARK    7  A    between atoms: C_7  and  C_8
REMARK    8  A    between atoms: C_8  and  C_9
REMARK    9  A    between atoms: C_15  and  C_16
REMARK   10  A    between atoms: C_16  and  C_17
REMARK   11  A    between atoms: C_17  and  N_18
REMARK   12  A    between atoms: C_23  and  O_24
REMARK   13  A    between atoms: O_24  and  C_25
REMARK   14  A    between atoms: C_26  and  O_27
REMARK   15  A    between atoms: O_27  and  C_28
REMARK                            x       y       z     vdW  Elec       q    Type
REMARK                         _______ _______ _______ _____ _____    ______ ____
ROOT
ATOM      1  C   UNL     1       2.274   9.247  18.555  0.00  0.00    +0.000 C 
ENDROOT
BRANCH   1   2
ATOM      2  N   UNL     1       1.122  10.073  18.178  0.00  0.00    +0.000 N 
ATOM      3  C   UNL     1      -0.133   9.502  18.061  0.00  0.00    +0.000 C 
ATOM      4  C   UNL     1      -1.044  10.240  17.409  0.00  0.00    +0.000 C 
ATOM      5  C   UNL     1      -1.940  11.000  18.283  0.00  0.00    +0.000 A 
ATOM      6  C   UNL     1      -3.302  11.022  17.991  0.00  0.00    +0.000 A 
ATOM      7  C   UNL     1      -4.188  11.741  18.797  0.00  0.00    +0.000 A 
ATOM      8  C   UNL     1      -3.701  12.440  19.915  0.00  0.00    +0.000 A 
ATOM      9  C   UNL     1      -2.320  12.465  20.170  0.00  0.00    +0.000 A 
ATOM     10  C   UNL     1      -1.409  11.774  19.333  0.00  0.00    +0.000 A 
ATOM     11  C   UNL     1       0.090  11.865  19.634  0.00  0.00    +0.000 C 
ATOM     12  C   UNL     1       1.172  11.419  18.614  0.00  0.00    +0.000 C 
ATOM     13  O   UNL     1       2.144  12.140  18.374  0.00  0.00    +0.000 OA
BRANCH   7  14
ATOM     14  O   UNL     1      -5.536  11.831  18.553  0.00  0.00    +0.000 OA
ATOM     15  C   UNL     1      -6.289  10.635  18.685  0.00  0.00    +0.000 C 
ENDBRANCH   7  14
BRANCH   8  16
ATOM     16  O   UNL     1      -4.660  13.069  20.669  0.00  0.00    +0.000 OA
ATOM     17  C   UNL     1      -4.349  14.298  21.306  0.00  0.00    +0.000 C 
ENDBRANCH   8  16
ENDBRANCH   1   2
BRANCH   1  18
ATOM     18  C   UNL     1       2.071   7.745  18.342  0.00  0.00    +0.000 C 
BRANCH  18  19
ATOM     19  C   UNL     1       2.712   6.902  19.458  0.00  0.00    +0.000 C 
BRANCH  19  20
ATOM     20  N   UNL     1       3.031   5.492  19.123  0.00  0.00    +0.000 NA
BRANCH  20  21
ATOM     21  C   UNL     1       2.828   4.624  20.303  0.00  0.00    +0.000 C 
BRANCH  21  23
ATOM     22  C   UNL     1       0.880   3.095  20.742  0.00  0.00    +0.000 C 
ATOM     23  C   UNL     1       1.382   4.328  20.596  0.00  0.00    +0.000 C 
ENDBRANCH  21  23
ENDBRANCH  20  21
BRANCH  20  24
ATOM     24  C   UNL     1       2.174   5.031  18.000  0.00  0.00    +0.000 C 
BRANCH  24  25
ATOM     25  C   UNL     1       2.586   3.692  17.360  0.00  0.00    +0.000 C 
BRANCH  25  26
ATOM     26  C   UNL     1       4.100   3.472  17.252  0.00  0.00    +0.000 C 
BRANCH  26  27
ATOM     27  C   UNL     1       4.766   4.486  16.322  0.00  0.00    +0.000 C 
BRANCH  27  28
ATOM     28  C   UNL     1       5.810   5.319  17.021  0.00  0.00    +0.000 A 
ATOM     29  C   UNL     1       6.686   4.722  17.938  0.00  0.00    +0.000 A 
ATOM     30  C   UNL     1       7.674   5.482  18.567  0.00  0.00    +0.000 A 
ATOM     31  C   UNL     1       7.789   6.843  18.293  0.00  0.00    +0.000 A 
ATOM     32  C   UNL     1       6.910   7.449  17.397  0.00  0.00    +0.000 A 
ATOM     33  C   UNL     1       5.922   6.691  16.766  0.00  0.00    +0.000 A 
ENDBRANCH  27  28
ENDBRANCH  26  27
ENDBRANCH  25  26
ENDBRANCH  24  25
ENDBRANCH  20  24
ENDBRANCH  19  20
ENDBRANCH  18  19
ENDBRANCH   1  18
TORSDOF 13
ENDMDL
MODEL 7
REMARK VINA RESULT:      -6.7      4.308      9.755
REMARK  Name = 
REMARK  15 active torsions:
REMARK  status: ('A' for Active; 'I' for Inactive)
REMARK    1  A    between atoms: C_2  and  C_3
REMARK    2  A    between atoms: C_3  and  N_4
REMARK    3  A    between atoms: N_4  and  C_5
REMARK    4  A    between atoms: N_4  and  C_15
REMARK    5  A    between atoms: C_5  and  C_6
REMARK    6  A    between atoms: C_6  and  C_7
REMARK    7  A    between atoms: C_7  and  C_8
REMARK    8  A    between atoms: C_8  and  C_9
REMARK    9  A    between atoms: C_15  and  C_16
REMARK   10  A    between atoms: C_16  and  C_17
REMARK   11  A    between atoms: C_17  and  N_18
REMARK   12  A    between atoms: C_23  and  O_24
REMARK   13  A    between atoms: O_24  and  C_25
REMARK   14  A    between atoms: C_26  and  O_27
REMARK   15  A    between atoms: O_27  and  C_28
REMARK                            x       y       z     vdW  Elec       q    Type
REMARK                         _______ _______ _______ _____ _____    ______ ____
ROOT
ATOM      1  C   UNL     1       1.520   7.507  20.936  0.00  0.00    +0.000 C 
ENDROOT
BRANCH   1   2
ATOM      2  N   UNL     1       1.203   8.934  21.057  0.00  0.00    +0.000 N 
ATOM      3  C   UNL     1       0.310   9.524  20.181  0.00  0.00    +0.000 C 
ATOM      4  C   UNL     1       0.329  10.866  20.155  0.00  0.00    +0.000 C 
ATOM      5  C   UNL     1      -0.712  11.497  20.969  0.00  0.00    +0.000 A 
ATOM      6  C   UNL     1      -1.416  12.576  20.439  0.00  0.00    +0.000 A 
ATOM      7  C   UNL     1      -2.412  13.210  21.186  0.00  0.00    +0.000 A 
ATOM      8  C   UNL     1      -2.710  12.749  22.480  0.00  0.00    +0.000 A 
ATOM      9  C   UNL     1      -1.955  11.701  23.034  0.00  0.00    +0.000 A 
ATOM     10  C   UNL     1      -0.915  11.080  22.299  0.00  0.00    +0.000 A 
ATOM     11  C   UNL     1      -0.099   9.968  22.964  0.00  0.00    +0.000 C 
ATOM     12  C   UNL     1       1.241   9.454  22.374  0.00  0.00    +0.000 C 
ATOM     13  O   UNL     1       2.231   9.307  23.098  0.00  0.00    +0.000 OA
BRANCH   7  14
ATOM     14  O   UNL     1      -3.124  14.295  20.739  0.00  0.00    +0.000 OA
ATOM     15  C   UNL     1      -2.461  15.550  20.774  0.00  0.00    +0.000 C 
ENDBRANCH   7  14
BRANCH   8  16
ATOM     16  O   UNL     1      -3.738  13.406  23.108  0.00  0.00    +0.000 OA
ATOM     17  C   UNL     1      -4.988  12.755  23.264  0.00  0.00    +0.000 C 
ENDBRANCH   8  16
ENDBRANCH   1   2
BRANCH   1  18
ATOM     18  C   UNL     1       2.005   7.085  19.547  0.00  0.00    +0.000 C 
BRANCH  18  19
ATOM     19  C   UNL     1       3.218   6.140  19.611  0.00  0.00    +0.000 C 
BRANCH  19  20
ATOM     20  N   UNL     1       2.923   4.689  19.712  0.00  0.00    +0.000 NA
BRANCH  20  21
ATOM     21  C   UNL     1       1.525   4.419  19.313  0.00  0.00    +0.000 C 
BRANCH  21  23
ATOM     22  C   UNL     1       1.322   2.860  21.276  0.00  0.00    +0.000 C 
ATOM     23  C   UNL     1       0.875   3.311  20.097  0.00  0.00    +0.000 C 
ENDBRANCH  21  23
ENDBRANCH  20  21
BRANCH  20  24
ATOM     24  C   UNL     1       3.856   3.921  18.847  0.00  0.00    +0.000 C 
BRANCH  24  25
ATOM     25  C   UNL     1       3.467   3.845  17.358  0.00  0.00    +0.000 C 
BRANCH  25  26
ATOM     26  C   UNL     1       4.398   4.614  16.412  0.00  0.00    +0.000 C 
BRANCH  26  27
ATOM     27  C   UNL     1       5.866   4.233  16.612  0.00  0.00    +0.000 C 
BRANCH  27  28
ATOM     28  C   UNL     1       6.655   5.310  17.312  0.00  0.00    +0.000 A 
ATOM     29  C   UNL     1       7.343   5.018  18.498  0.00  0.00    +0.000 A 
ATOM     30  C   UNL     1       8.100   6.002  19.134  0.00  0.00    +0.000 A 
ATOM     31  C   UNL     1       8.169   7.287  18.599  0.00  0.00    +0.000 A 
ATOM     32  C   UNL     1       7.473   7.592  17.431  0.00  0.00    +0.000 A 
ATOM     33  C   UNL     1       6.716   6.608  16.790  0.00  0.00    +0.000 A 
ENDBRANCH  27  28
ENDBRANCH  26  27
ENDBRANCH  25  26
ENDBRANCH  24  25
ENDBRANCH  20  24
ENDBRANCH  19  20
ENDBRANCH  18  19
ENDBRANCH   1  18
TORSDOF 13
ENDMDL
MODEL 8
REMARK VINA RESULT:      -6.7      3.787      8.744
REMARK  Name = 
REMARK  15 active torsions:
REMARK  status: ('A' for Active; 'I' for Inactive)
REMARK    1  A    between atoms: C_2  and  C_3
REMARK    2  A    between atoms: C_3  and  N_4
REMARK    3  A    between atoms: N_4  and  C_5
REMARK    4  A    between atoms: N_4  and  C_15
REMARK    5  A    between atoms: C_5  and  C_6
REMARK    6  A    between atoms: C_6  and  C_7
REMARK    7  A    between atoms: C_7  and  C_8
REMARK    8  A    between atoms: C_8  and  C_9
REMARK    9  A    between atoms: C_15  and  C_16
REMARK   10  A    between atoms: C_16  and  C_17
REMARK   11  A    between atoms: C_17  and  N_18
REMARK   12  A    between atoms: C_23  and  O_24
REMARK   13  A    between atoms: O_24  and  C_25
REMARK   14  A    between atoms: C_26  and  O_27
REMARK   15  A    between atoms: O_27  and  C_28
REMARK                            x       y       z     vdW  Elec       q    Type
REMARK                         _______ _______ _______ _____ _____    ______ ____
ROOT
ATOM      1  C   UNL     1       1.809   7.215  18.469  0.00  0.00    +0.000 C 
ENDROOT
BRANCH   1   2
ATOM      2  N   UNL     1       1.795   8.603  18.944  0.00  0.00    +0.000 N 
ATOM      3  C   UNL     1       1.592   9.641  18.052  0.00  0.00    +0.000 C 
ATOM      4  C   UNL     1       1.915  10.861  18.505  0.00  0.00    +0.000 C 
ATOM      5  C   UNL     1       0.778  11.637  19.007  0.00  0.00    +0.000 A 
ATOM      6  C   UNL     1       0.675  12.980  18.654  0.00  0.00    +0.000 A 
ATOM      7  C   UNL     1      -0.390  13.756  19.118  0.00  0.00    +0.000 A 
ATOM      8  C   UNL     1      -1.369  13.172  19.941  0.00  0.00    +0.000 A 
ATOM      9  C   UNL     1      -1.227  11.834  20.345  0.00  0.00    +0.000 A 
ATOM     10  C   UNL     1      -0.127  11.052  19.913  0.00  0.00    +0.000 A 
ATOM     11  C   UNL     1      -0.001   9.610  20.413  0.00  0.00    +0.000 C 
ATOM     12  C   UNL     1       1.307   8.788  20.261  0.00  0.00    +0.000 C 
ATOM     13  O   UNL     1       1.765   8.153  21.215  0.00  0.00    +0.000 OA
BRANCH   7  14
ATOM     14  O   UNL     1      -0.539  15.091  18.835  0.00  0.00    +0.000 OA
ATOM     15  C   UNL     1       0.640  15.881  18.850  0.00  0.00    +0.000 C 
ENDBRANCH   7  14
BRANCH   8  16
ATOM     16  O   UNL     1      -2.399  14.005  20.299  0.00  0.00    +0.000 OA
ATOM     17  C   UNL     1      -2.916  13.946  21.619  0.00  0.00    +0.000 C 
ENDBRANCH   8  16
ENDBRANCH   1   2
BRANCH   1  18
ATOM     18  C   UNL     1       3.189   6.553  18.494  0.00  0.00    +0.000 C 
BRANCH  18  19
ATOM     19  C   UNL     1       4.103   7.060  17.365  0.00  0.00    +0.000 C 
BRANCH  19  20
ATOM     20  N   UNL     1       5.221   6.168  16.966  0.00  0.00    +0.000 NA
BRANCH  20  21
ATOM     21  C   UNL     1       6.514   6.735  17.405  0.00  0.00    +0.000 C 
BRANCH  21  23
ATOM     22  C   UNL     1       8.052   6.020  19.263  0.00  0.00    +0.000 C 
ATOM     23  C   UNL     1       7.393   5.751  18.128  0.00  0.00    +0.000 C 
ENDBRANCH  21  23
ENDBRANCH  20  21
BRANCH  20  24
ATOM     24  C   UNL     1       5.029   4.819  17.559  0.00  0.00    +0.000 C 
BRANCH  24  25
ATOM     25  C   UNL     1       4.585   3.721  16.574  0.00  0.00    +0.000 C 
BRANCH  25  26
ATOM     26  C   UNL     1       3.102   3.340  16.665  0.00  0.00    +0.000 C 
BRANCH  26  27
ATOM     27  C   UNL     1       2.865   2.164  17.612  0.00  0.00    +0.000 C 
BRANCH  27  28
ATOM     28  C   UNL     1       2.416   2.602  18.983  0.00  0.00    +0.000 A 
ATOM     29  C   UNL     1       3.194   2.296  20.108  0.00  0.00    +0.000 A 
ATOM     30  C   UNL     1       2.799   2.725  21.376  0.00  0.00    +0.000 A 
ATOM     31  C   UNL     1       1.622   3.454  21.532  0.00  0.00    +0.000 A 
ATOM     32  C   UNL     1       0.833   3.747  20.422  0.00  0.00    +0.000 A 
ATOM     33  C   UNL     1       1.227   3.320  19.152  0.00  0.00    +0.000 A 
ENDBRANCH  27  28
ENDBRANCH  26  27
ENDBRANCH  25  26
ENDBRANCH  24  25
ENDBRANCH  20  24
ENDBRANCH  19  20
ENDBRANCH  18  19
ENDBRANCH   1  18
TORSDOF 13
ENDMDL
MODEL 9
REMARK VINA RESULT:      -6.6      3.615      8.038
REMARK  Name = 
REMARK  15 active torsions:
REMARK  status: ('A' for Active; 'I' for Inactive)
REMARK    1  A    between atoms: C_2  and  C_3
REMARK    2  A    between atoms: C_3  and  N_4
REMARK    3  A    between atoms: N_4  and  C_5
REMARK    4  A    between atoms: N_4  and  C_15
REMARK    5  A    between atoms: C_5  and  C_6
REMARK    6  A    between atoms: C_6  and  C_7
REMARK    7  A    between atoms: C_7  and  C_8
REMARK    8  A    between atoms: C_8  and  C_9
REMARK    9  A    between atoms: C_15  and  C_16
REMARK   10  A    between atoms: C_16  and  C_17
REMARK   11  A    between atoms: C_17  and  N_18
REMARK   12  A    between atoms: C_23  and  O_24
REMARK   13  A    between atoms: O_24  and  C_25
REMARK   14  A    between atoms: C_26  and  O_27
REMARK   15  A    between atoms: O_27  and  C_28
REMARK                            x       y       z     vdW  Elec       q    Type
REMARK                         _______ _______ _______ _____ _____    ______ ____
ROOT
ATOM      1  C   UNL     1       4.146   4.072  18.620  0.00  0.00    +0.000 C 
ENDROOT
BRANCH   1   2
ATOM      2  N   UNL     1       3.057   4.911  19.133  0.00  0.00    +0.000 N 
ATOM      3  C   UNL     1       3.265   5.723  20.233  0.00  0.00    +0.000 C 
ATOM      4  C   UNL     1       2.155   6.194  20.821  0.00  0.00    +0.000 C 
ATOM      5  C   UNL     1       1.792   7.555  20.419  0.00  0.00    +0.000 A 
ATOM      6  C   UNL     1       1.391   8.458  21.400  0.00  0.00    +0.000 A 
ATOM      7  C   UNL     1       1.030   9.764  21.057  0.00  0.00    +0.000 A 
ATOM      8  C   UNL     1       1.081  10.168  19.711  0.00  0.00    +0.000 A 
ATOM      9  C   UNL     1       1.426   9.235  18.719  0.00  0.00    +0.000 A 
ATOM     10  C   UNL     1       1.753   7.898  19.054  0.00  0.00    +0.000 A 
ATOM     11  C   UNL     1       2.085   6.912  17.930  0.00  0.00    +0.000 C 
ATOM     12  C   UNL     1       2.141   5.378  18.159  0.00  0.00    +0.000 C 
ATOM     13  O   UNL     1       1.578   4.605  17.378  0.00  0.00    +0.000 OA
BRANCH   7  14
ATOM     14  O   UNL     1       0.598  10.698  21.965  0.00  0.00    +0.000 OA
ATOM     15  C   UNL     1      -0.664  10.459  22.572  0.00  0.00    +0.000 C 
ENDBRANCH   7  14
BRANCH   8  16
ATOM     16  O   UNL     1       0.757  11.483  19.488  0.00  0.00    +0.000 OA
ATOM     17  C   UNL     1       1.733  12.359  18.947  0.00  0.00    +0.000 C 
ENDBRANCH   8  16
ENDBRANCH   1   2
BRANCH   1  18
ATOM     18  C   UNL     1       5.534   4.708  18.724  0.00  0.00    +0.000 C 
BRANCH  18  19
ATOM     19  C   UNL     1       6.482   4.235  17.607  0.00  0.00    +0.000 C 
BRANCH  19  20
ATOM     20  N   UNL     1       7.349   5.270  16.992  0.00  0.00    +0.000 NA
BRANCH  20  21
ATOM     21  C   UNL     1       7.317   5.158  15.518  0.00  0.00    +0.000 C 
BRANCH  21  23
ATOM     22  C   UNL     1       5.655   4.165  13.911  0.00  0.00    +0.000 C 
ATOM     23  C   UNL     1       6.411   4.067  15.013  0.00  0.00    +0.000 C 
ENDBRANCH  21  23
ENDBRANCH  20  21
BRANCH  20  24
ATOM     24  C   UNL     1       6.898   6.623  17.409  0.00  0.00    +0.000 C 
BRANCH  24  25
ATOM     25  C   UNL     1       7.991   7.528  18.009  0.00  0.00    +0.000 C 
BRANCH  25  26
ATOM     26  C   UNL     1       7.743   9.032  17.839  0.00  0.00    +0.000 C 
BRANCH  26  27
ATOM     27  C   UNL     1       9.046   9.819  17.691  0.00  0.00    +0.000 C 
BRANCH  27  28
ATOM     28  C   UNL     1       9.177  10.922  18.710  0.00  0.00    +0.000 A 
ATOM     29  C   UNL     1       9.439  10.612  20.051  0.00  0.00    +0.000 A 
ATOM     30  C   UNL     1       9.592  11.630  20.994  0.00  0.00    +0.000 A 
ATOM     31  C   UNL     1       9.475  12.964  20.607  0.00  0.00    +0.000 A 
ATOM     32  C   UNL     1       9.197  13.281  19.279  0.00  0.00    +0.000 A 
ATOM     33  C   UNL     1       9.046  12.264  18.334  0.00  0.00    +0.000 A 
ENDBRANCH  27  28
ENDBRANCH  26  27
ENDBRANCH  25  26
ENDBRANCH  24  25
ENDBRANCH  20  24
ENDBRANCH  19  20
ENDBRANCH  18  19
ENDBRANCH   1  18
TORSDOF 13
ENDMDL
