MODEL 1
REMARK VINA RESULT:      -6.7      0.000      0.000
REMARK  Name = 
REMARK  7 active torsions:
REMARK  status: ('A' for Active; 'I' for Inactive)
REMARK    1  A    between atoms: C_1  and  C_2
REMARK    2  A    between atoms: C_2  and  C_3
REMARK    3  A    between atoms: C_3  and  C_4
REMARK    4  A    between atoms: C_4  and  N_5
REMARK    5  A    between atoms: C_9  and  C_10
REMARK    6  A    between atoms: C_14  and  O_15
REMARK    7  A    between atoms: O_15  and  C_16
REMARK                            x       y       z     vdW  Elec       q    Type
REMARK                         _______ _______ _______ _____ _____    ______ ____
ROOT
ATOM      1  N   UNL     1       6.310   4.246  17.139  0.00  0.00    +0.000 N 
ATOM      2  C   UNL     1       7.567   4.672  17.485  0.00  0.00    +0.000 A 
ATOM      3  N   UNL     1       7.604   5.186  18.688  0.00  0.00    +0.000 NA
ATOM      4  C   UNL     1       6.318   5.106  19.138  0.00  0.00    +0.000 A 
ATOM      5  C   UNL     1       5.466   4.529  18.203  0.00  0.00    +0.000 A 
ENDROOT
BRANCH   5   6
ATOM      6  C   UNL     1       4.026   4.254  18.333  0.00  0.00    +0.000 A 
ATOM      7  C   UNL     1       3.055   4.910  17.568  0.00  0.00    +0.000 A 
ATOM      8  C   UNL     1       1.699   4.613  17.724  0.00  0.00    +0.000 A 
ATOM      9  C   UNL     1       1.294   3.685  18.682  0.00  0.00    +0.000 A 
ATOM     10  C   UNL     1       2.235   3.047  19.487  0.00  0.00    +0.000 A 
ATOM     11  C   UNL     1       3.592   3.324  19.300  0.00  0.00    +0.000 A 
BRANCH  10  12
ATOM     12  O   UNL     1       1.711   2.185  20.411  0.00  0.00    +0.000 OA
ATOM     13  C   UNL     1       1.571   2.674  21.740  0.00  0.00    +0.000 C 
ENDBRANCH  10  12
ENDBRANCH   5   6
BRANCH   1  14
ATOM     14  C   UNL     1       5.961   3.639  15.863  0.00  0.00    +0.000 C 
BRANCH  14  15
ATOM     15  C   UNL     1       5.709   4.619  14.712  0.00  0.00    +0.000 C 
BRANCH  15  17
ATOM     16  C   UNL     1       5.830   3.375  12.539  0.00  0.00    +0.000 C 
ATOM     17  C   UNL     1       6.575   4.290  13.497  0.00  0.00    +0.000 C 
ENDBRANCH  15  17
ENDBRANCH  14  15
ENDBRANCH   1  14
TORSDOF 5
ENDMDL
MODEL 2
REMARK VINA RESULT:      -6.6      3.380      5.342
REMARK  Name = 
REMARK  7 active torsions:
REMARK  status: ('A' for Active; 'I' for Inactive)
REMARK    1  A    between atoms: C_1  and  C_2
REMARK    2  A    between atoms: C_2  and  C_3
REMARK    3  A    between atoms: C_3  and  C_4
REMARK    4  A    between atoms: C_4  and  N_5
REMARK    5  A    between atoms: C_9  and  C_10
REMARK    6  A    between atoms: C_14  and  O_15
REMARK    7  A    between atoms: O_15  and  C_16
REMARK                            x       y       z     vdW  Elec       q    Type
REMARK                         _______ _______ _______ _____ _____    ______ ____
ROOT
ATOM      1  N   UNL     1       3.249   4.168  18.577  0.00  0.00    +0.000 N 
ATOM      2  C   UNL     1       4.305   3.310  18.752  0.00  0.00    +0.000 A 
ATOM      3  N   UNL     1       5.377   3.923  19.184  0.00  0.00    +0.000 NA
ATOM      4  C   UNL     1       5.010   5.234  19.282  0.00  0.00    +0.000 A 
ATOM      5  C   UNL     1       3.688   5.442  18.908  0.00  0.00    +0.000 A 
ENDROOT
BRANCH   5   6
ATOM      6  C   UNL     1       2.932   6.705  18.903  0.00  0.00    +0.000 A 
ATOM      7  C   UNL     1       2.986   7.619  17.845  0.00  0.00    +0.000 A 
ATOM      8  C   UNL     1       2.248   8.804  17.883  0.00  0.00    +0.000 A 
ATOM      9  C   UNL     1       1.478   9.110  19.004  0.00  0.00    +0.000 A 
ATOM     10  C   UNL     1       1.437   8.238  20.090  0.00  0.00    +0.000 A 
ATOM     11  C   UNL     1       2.151   7.038  20.028  0.00  0.00    +0.000 A 
BRANCH  10  12
ATOM     12  O   UNL     1       0.675   8.667  21.142  0.00  0.00    +0.000 OA
ATOM     13  C   UNL     1       0.936   9.976  21.635  0.00  0.00    +0.000 C 
ENDBRANCH  10  12
ENDBRANCH   5   6
BRANCH   1  14
ATOM     14  C   UNL     1       1.931   3.776  18.101  0.00  0.00    +0.000 C 
BRANCH  14  15
ATOM     15  C   UNL     1       1.128   2.873  19.044  0.00  0.00    +0.000 C 
BRANCH  15  17
ATOM     16  C   UNL     1       1.649   2.744  21.493  0.00  0.00    +0.000 C 
ATOM     17  C   UNL     1       0.926   3.528  20.409  0.00  0.00    +0.000 C 
ENDBRANCH  15  17
ENDBRANCH  14  15
ENDBRANCH   1  14
TORSDOF 5
ENDMDL
MODEL 3
REMARK VINA RESULT:      -6.5      1.814      3.355
REMARK  Name = 
REMARK  7 active torsions:
REMARK  status: ('A' for Active; 'I' for Inactive)
REMARK    1  A    between atoms: C_1  and  C_2
REMARK    2  A    between atoms: C_2  and  C_3
REMARK    3  A    between atoms: C_3  and  C_4
REMARK    4  A    between atoms: C_4  and  N_5
REMARK    5  A    between atoms: C_9  and  C_10
REMARK    6  A    between atoms: C_14  and  O_15
REMARK    7  A    between atoms: O_15  and  C_16
REMARK                            x       y       z     vdW  Elec       q    Type
REMARK                         _______ _______ _______ _____ _____    ______ ____
ROOT
ATOM      1  N   UNL     1       6.756   4.786  16.426  0.00  0.00    +0.000 N 
ATOM      2  C   UNL     1       7.370   4.675  15.204  0.00  0.00    +0.000 A 
ATOM      3  N   UNL     1       6.511   4.650  14.217  0.00  0.00    +0.000 NA
ATOM      4  C   UNL     1       5.289   4.733  14.820  0.00  0.00    +0.000 A 
ATOM      5  C   UNL     1       5.387   4.815  16.204  0.00  0.00    +0.000 A 
ENDROOT
BRANCH   5   6
ATOM      6  C   UNL     1       4.299   4.939  17.187  0.00  0.00    +0.000 A 
ATOM      7  C   UNL     1       3.825   6.174  17.645  0.00  0.00    +0.000 A 
ATOM      8  C   UNL     1       2.787   6.242  18.576  0.00  0.00    +0.000 A 
ATOM      9  C   UNL     1       2.238   5.071  19.096  0.00  0.00    +0.000 A 
ATOM     10  C   UNL     1       2.716   3.828  18.689  0.00  0.00    +0.000 A 
ATOM     11  C   UNL     1       3.731   3.768  17.730  0.00  0.00    +0.000 A 
BRANCH  10  12
ATOM     12  O   UNL     1       2.121   2.757  19.297  0.00  0.00    +0.000 OA
ATOM     13  C   UNL     1       0.813   2.410  18.856  0.00  0.00    +0.000 C 
ENDBRANCH  10  12
ENDBRANCH   5   6
BRANCH   1  14
ATOM     14  C   UNL     1       7.452   4.831  17.704  0.00  0.00    +0.000 C 
BRANCH  14  15
ATOM     15  C   UNL     1       7.502   6.205  18.381  0.00  0.00    +0.000 C 
BRANCH  15  17
ATOM     16  C   UNL     1       8.127   8.597  17.966  0.00  0.00    +0.000 C 
ATOM     17  C   UNL     1       7.542   7.335  17.352  0.00  0.00    +0.000 C 
ENDBRANCH  15  17
ENDBRANCH  14  15
ENDBRANCH   1  14
TORSDOF 5
ENDMDL
MODEL 4
REMARK VINA RESULT:      -6.4      3.085      5.624
REMARK  Name = 
REMARK  7 active torsions:
REMARK  status: ('A' for Active; 'I' for Inactive)
REMARK    1  A    between atoms: C_1  and  C_2
REMARK    2  A    between atoms: C_2  and  C_3
REMARK    3  A    between atoms: C_3  and  C_4
REMARK    4  A    between atoms: C_4  and  N_5
REMARK    5  A    between atoms: C_9  and  C_10
REMARK    6  A    between atoms: C_14  and  O_15
REMARK    7  A    between atoms: O_15  and  C_16
REMARK                            x       y       z     vdW  Elec       q    Type
REMARK                         _______ _______ _______ _____ _____    ______ ____
ROOT
ATOM      1  N   UNL     1       3.044   4.424  18.961  0.00  0.00    +0.000 N 
ATOM      2  C   UNL     1       2.651   3.726  20.075  0.00  0.00    +0.000 A 
ATOM      3  N   UNL     1       3.514   2.801  20.410  0.00  0.00    +0.000 NA
ATOM      4  C   UNL     1       4.500   2.889  19.470  0.00  0.00    +0.000 A 
ATOM      5  C   UNL     1       4.250   3.888  18.537  0.00  0.00    +0.000 A 
ENDROOT
BRANCH   5   6
ATOM      6  C   UNL     1       5.087   4.296  17.397  0.00  0.00    +0.000 A 
ATOM      7  C   UNL     1       5.056   3.645  16.158  0.00  0.00    +0.000 A 
ATOM      8  C   UNL     1       5.867   4.072  15.104  0.00  0.00    +0.000 A 
ATOM      9  C   UNL     1       6.755   5.130  15.290  0.00  0.00    +0.000 A 
ATOM     10  C   UNL     1       6.837   5.771  16.525  0.00  0.00    +0.000 A 
ATOM     11  C   UNL     1       5.996   5.361  17.564  0.00  0.00    +0.000 A 
BRANCH  10  12
ATOM     12  O   UNL     1       7.769   6.770  16.592  0.00  0.00    +0.000 OA
ATOM     13  C   UNL     1       7.610   7.731  17.629  0.00  0.00    +0.000 C 
ENDBRANCH  10  12
ENDBRANCH   5   6
BRANCH   1  14
ATOM     14  C   UNL     1       2.286   5.506  18.350  0.00  0.00    +0.000 C 
BRANCH  14  15
ATOM     15  C   UNL     1       2.544   6.903  18.928  0.00  0.00    +0.000 C 
BRANCH  15  17
ATOM     16  C   UNL     1       1.881   9.045  17.808  0.00  0.00    +0.000 C 
ATOM     17  C   UNL     1       2.890   7.908  17.831  0.00  0.00    +0.000 C 
ENDBRANCH  15  17
ENDBRANCH  14  15
ENDBRANCH   1  14
TORSDOF 5
ENDMDL
MODEL 5
REMARK VINA RESULT:      -6.4      2.939      5.776
REMARK  Name = 
REMARK  7 active torsions:
REMARK  status: ('A' for Active; 'I' for Inactive)
REMARK    1  A    between atoms: C_1  and  C_2
REMARK    2  A    between atoms: C_2  and  C_3
REMARK    3  A    between atoms: C_3  and  C_4
REMARK    4  A    between atoms: C_4  and  N_5
REMARK    5  A    between atoms: C_9  and  C_10
REMARK    6  A    between atoms: C_14  and  O_15
REMARK    7  A    between atoms: O_15  and  C_16
REMARK                            x       y       z     vdW  Elec       q    Type
REMARK                         _______ _______ _______ _____ _____    ______ ____
ROOT
ATOM      1  N   UNL     1       2.788   4.183  19.041  0.00  0.00    +0.000 N 
ATOM      2  C   UNL     1       1.967   3.100  19.221  0.00  0.00    +0.000 A 
ATOM      3  N   UNL     1       2.579   1.968  18.982  0.00  0.00    +0.000 NA
ATOM      4  C   UNL     1       3.844   2.328  18.617  0.00  0.00    +0.000 A 
ATOM      5  C   UNL     1       4.025   3.706  18.633  0.00  0.00    +0.000 A 
ENDROOT
BRANCH   5   6
ATOM      6  C   UNL     1       5.248   4.466  18.326  0.00  0.00    +0.000 A 
ATOM      7  C   UNL     1       6.000   5.124  19.306  0.00  0.00    +0.000 A 
ATOM      8  C   UNL     1       7.156   5.831  18.967  0.00  0.00    +0.000 A 
ATOM      9  C   UNL     1       7.551   5.924  17.633  0.00  0.00    +0.000 A 
ATOM     10  C   UNL     1       6.800   5.313  16.632  0.00  0.00    +0.000 A 
ATOM     11  C   UNL     1       5.664   4.579  16.984  0.00  0.00    +0.000 A 
BRANCH  10  12
ATOM     12  O   UNL     1       7.270   5.506  15.362  0.00  0.00    +0.000 OA
ATOM     13  C   UNL     1       6.766   4.643  14.349  0.00  0.00    +0.000 C 
ENDBRANCH  10  12
ENDBRANCH   5   6
BRANCH   1  14
ATOM     14  C   UNL     1       2.385   5.570  19.226  0.00  0.00    +0.000 C 
BRANCH  14  15
ATOM     15  C   UNL     1       2.184   6.377  17.938  0.00  0.00    +0.000 C 
BRANCH  15  17
ATOM     16  C   UNL     1       1.988   8.875  17.853  0.00  0.00    +0.000 C 
ATOM     17  C   UNL     1       2.946   7.701  17.983  0.00  0.00    +0.000 C 
ENDBRANCH  15  17
ENDBRANCH  14  15
ENDBRANCH   1  14
TORSDOF 5
ENDMDL
MODEL 6
REMARK VINA RESULT:      -6.3      2.347      3.990
REMARK  Name = 
REMARK  7 active torsions:
REMARK  status: ('A' for Active; 'I' for Inactive)
REMARK    1  A    between atoms: C_1  and  C_2
REMARK    2  A    between atoms: C_2  and  C_3
REMARK    3  A    between atoms: C_3  and  C_4
REMARK    4  A    between atoms: C_4  and  N_5
REMARK    5  A    between atoms: C_9  and  C_10
REMARK    6  A    between atoms: C_14  and  O_15
REMARK    7  A    between atoms: O_15  and  C_16
REMARK                            x       y       z     vdW  Elec       q    Type
REMARK                         _______ _______ _______ _____ _____    ______ ____
ROOT
ATOM      1  N   UNL     1       6.742   4.734  16.372  0.00  0.00    +0.000 N 
ATOM      2  C   UNL     1       7.398   4.672  15.169  0.00  0.00    +0.000 A 
ATOM      3  N   UNL     1       6.573   4.655  14.153  0.00  0.00    +0.000 NA
ATOM      4  C   UNL     1       5.330   4.692  14.716  0.00  0.00    +0.000 A 
ATOM      5  C   UNL     1       5.380   4.737  16.104  0.00  0.00    +0.000 A 
ENDROOT
BRANCH   5   6
ATOM      6  C   UNL     1       4.257   4.808  17.053  0.00  0.00    +0.000 A 
ATOM      7  C   UNL     1       3.534   3.682  17.462  0.00  0.00    +0.000 A 
ATOM      8  C   UNL     1       2.477   3.799  18.367  0.00  0.00    +0.000 A 
ATOM      9  C   UNL     1       2.101   5.054  18.843  0.00  0.00    +0.000 A 
ATOM     10  C   UNL     1       2.777   6.197  18.423  0.00  0.00    +0.000 A 
ATOM     11  C   UNL     1       3.856   6.068  17.543  0.00  0.00    +0.000 A 
BRANCH  10  12
ATOM     12  O   UNL     1       2.292   7.371  18.932  0.00  0.00    +0.000 OA
ATOM     13  C   UNL     1       2.340   8.511  18.083  0.00  0.00    +0.000 C 
ENDBRANCH  10  12
ENDBRANCH   5   6
BRANCH   1  14
ATOM     14  C   UNL     1       7.393   4.759  17.673  0.00  0.00    +0.000 C 
BRANCH  14  15
ATOM     15  C   UNL     1       7.450   6.129  18.358  0.00  0.00    +0.000 C 
BRANCH  15  17
ATOM     16  C   UNL     1       8.113   8.503  17.899  0.00  0.00    +0.000 C 
ATOM     17  C   UNL     1       7.429   7.266  17.338  0.00  0.00    +0.000 C 
ENDBRANCH  15  17
ENDBRANCH  14  15
ENDBRANCH   1  14
TORSDOF 5
ENDMDL
MODEL 7
REMARK VINA RESULT:      -6.3      2.817      5.322
REMARK  Name = 
REMARK  7 active torsions:
REMARK  status: ('A' for Active; 'I' for Inactive)
REMARK    1  A    between atoms: C_1  and  C_2
REMARK    2  A    between atoms: C_2  and  C_3
REMARK    3  A    between atoms: C_3  and  C_4
REMARK    4  A    between atoms: C_4  and  N_5
REMARK    5  A    between atoms: C_9  and  C_10
REMARK    6  A    between atoms: C_14  and  O_15
REMARK    7  A    between atoms: O_15  and  C_16
REMARK                            x       y       z     vdW  Elec       q    Type
REMARK                         _______ _______ _______ _____ _____    ______ ____
ROOT
ATOM      1  N   UNL     1       2.144   3.906  18.241  0.00  0.00    +0.000 N 
ATOM      2  C   UNL     1       1.265   3.029  18.822  0.00  0.00    +0.000 A 
ATOM      3  N   UNL     1       1.782   1.836  18.976  0.00  0.00    +0.000 NA
ATOM      4  C   UNL     1       3.042   1.937  18.460  0.00  0.00    +0.000 A 
ATOM      5  C   UNL     1       3.317   3.212  17.982  0.00  0.00    +0.000 A 
ENDROOT
BRANCH   5   6
ATOM      6  C   UNL     1       4.566   3.708  17.382  0.00  0.00    +0.000 A 
ATOM      7  C   UNL     1       4.753   3.821  15.999  0.00  0.00    +0.000 A 
ATOM      8  C   UNL     1       5.956   4.301  15.476  0.00  0.00    +0.000 A 
ATOM      9  C   UNL     1       7.005   4.634  16.330  0.00  0.00    +0.000 A 
ATOM     10  C   UNL     1       6.862   4.493  17.709  0.00  0.00    +0.000 A 
ATOM     11  C   UNL     1       5.644   4.046  18.226  0.00  0.00    +0.000 A 
BRANCH  10  12
ATOM     12  O   UNL     1       7.974   4.819  18.438  0.00  0.00    +0.000 OA
ATOM     13  C   UNL     1       7.820   5.822  19.435  0.00  0.00    +0.000 C 
ENDBRANCH  10  12
ENDBRANCH   5   6
BRANCH   1  14
ATOM     14  C   UNL     1       1.849   5.300  17.939  0.00  0.00    +0.000 C 
BRANCH  14  15
ATOM     15  C   UNL     1       2.541   6.331  18.838  0.00  0.00    +0.000 C 
BRANCH  15  17
ATOM     16  C   UNL     1       4.198   7.295  17.223  0.00  0.00    +0.000 C 
ATOM     17  C   UNL     1       2.953   7.574  18.050  0.00  0.00    +0.000 C 
ENDBRANCH  15  17
ENDBRANCH  14  15
ENDBRANCH   1  14
TORSDOF 5
ENDMDL
MODEL 8
REMARK VINA RESULT:      -6.3      1.128      1.158
REMARK  Name = 
REMARK  7 active torsions:
REMARK  status: ('A' for Active; 'I' for Inactive)
REMARK    1  A    between atoms: C_1  and  C_2
REMARK    2  A    between atoms: C_2  and  C_3
REMARK    3  A    between atoms: C_3  and  C_4
REMARK    4  A    between atoms: C_4  and  N_5
REMARK    5  A    between atoms: C_9  and  C_10
REMARK    6  A    between atoms: C_14  and  O_15
REMARK    7  A    between atoms: O_15  and  C_16
REMARK                            x       y       z     vdW  Elec       q    Type
REMARK                         _______ _______ _______ _____ _____    ______ ____
ROOT
ATOM      1  N   UNL     1       6.252   4.715  16.519  0.00  0.00    +0.000 N 
ATOM      2  C   UNL     1       7.182   5.723  16.546  0.00  0.00    +0.000 A 
ATOM      3  N   UNL     1       7.060   6.484  17.605  0.00  0.00    +0.000 NA
ATOM      4  C   UNL     1       5.999   5.960  18.286  0.00  0.00    +0.000 A 
ATOM      5  C   UNL     1       5.455   4.853  17.646  0.00  0.00    +0.000 A 
ENDROOT
BRANCH   5   6
ATOM      6  C   UNL     1       4.327   4.013  18.083  0.00  0.00    +0.000 A 
ATOM      7  C   UNL     1       3.313   3.592  17.216  0.00  0.00    +0.000 A 
ATOM      8  C   UNL     1       2.264   2.792  17.676  0.00  0.00    +0.000 A 
ATOM      9  C   UNL     1       2.194   2.440  19.023  0.00  0.00    +0.000 A 
ATOM     10  C   UNL     1       3.168   2.879  19.917  0.00  0.00    +0.000 A 
ATOM     11  C   UNL     1       4.233   3.649  19.442  0.00  0.00    +0.000 A 
BRANCH  10  12
ATOM     12  O   UNL     1       2.970   2.497  21.216  0.00  0.00    +0.000 OA
ATOM     13  C   UNL     1       1.642   2.591  21.720  0.00  0.00    +0.000 C 
ENDBRANCH  10  12
ENDBRANCH   5   6
BRANCH   1  14
ATOM     14  C   UNL     1       6.139   3.718  15.464  0.00  0.00    +0.000 C 
BRANCH  14  15
ATOM     15  C   UNL     1       5.486   4.203  14.165  0.00  0.00    +0.000 C 
BRANCH  15  17
ATOM     16  C   UNL     1       5.097   3.247  11.881  0.00  0.00    +0.000 C 
ATOM     17  C   UNL     1       6.141   3.568  12.939  0.00  0.00    +0.000 C 
ENDBRANCH  15  17
ENDBRANCH  14  15
ENDBRANCH   1  14
TORSDOF 5
ENDMDL
MODEL 9
REMARK VINA RESULT:      -6.3      1.504      1.855
REMARK  Name = 
REMARK  7 active torsions:
REMARK  status: ('A' for Active; 'I' for Inactive)
REMARK    1  A    between atoms: C_1  and  C_2
REMARK    2  A    between atoms: C_2  and  C_3
REMARK    3  A    between atoms: C_3  and  C_4
REMARK    4  A    between atoms: C_4  and  N_5
REMARK    5  A    between atoms: C_9  and  C_10
REMARK    6  A    between atoms: C_14  and  O_15
REMARK    7  A    between atoms: O_15  and  C_16
REMARK                            x       y       z     vdW  Elec       q    Type
REMARK                         _______ _______ _______ _____ _____    ______ ____
ROOT
ATOM      1  N   UNL     1       6.173   4.501  15.775  0.00  0.00    +0.000 N 
ATOM      2  C   UNL     1       7.525   4.330  15.925  0.00  0.00    +0.000 A 
ATOM      3  N   UNL     1       7.912   4.496  17.164  0.00  0.00    +0.000 NA
ATOM      4  C   UNL     1       6.770   4.801  17.846  0.00  0.00    +0.000 A 
ATOM      5  C   UNL     1       5.652   4.822  17.020  0.00  0.00    +0.000 A 
ENDROOT
BRANCH   5   6
ATOM      6  C   UNL     1       4.252   5.085  17.391  0.00  0.00    +0.000 A 
ATOM      7  C   UNL     1       3.785   6.357  17.743  0.00  0.00    +0.000 A 
ATOM      8  C   UNL     1       2.446   6.558  18.085  0.00  0.00    +0.000 A 
ATOM      9  C   UNL     1       1.565   5.479  18.122  0.00  0.00    +0.000 A 
ATOM     10  C   UNL     1       2.011   4.195  17.816  0.00  0.00    +0.000 A 
ATOM     11  C   UNL     1       3.344   4.008  17.441  0.00  0.00    +0.000 A 
BRANCH  10  12
ATOM     12  O   UNL     1       1.061   3.216  17.923  0.00  0.00    +0.000 OA
ATOM     13  C   UNL     1       1.312   2.173  18.857  0.00  0.00    +0.000 C 
ENDBRANCH  10  12
ENDBRANCH   5   6
BRANCH   1  14
ATOM     14  C   UNL     1       5.456   4.387  14.513  0.00  0.00    +0.000 C 
BRANCH  14  15
ATOM     15  C   UNL     1       6.334   4.240  13.265  0.00  0.00    +0.000 C 
BRANCH  15  17
ATOM     16  C   UNL     1       4.537   3.438  11.713  0.00  0.00    +0.000 C 
ATOM     17  C   UNL     1       5.860   3.091  12.377  0.00  0.00    +0.000 C 
ENDBRANCH  15  17
ENDBRANCH  14  15
ENDBRANCH   1  14
TORSDOF 5
ENDMDL
