MODEL 1
REMARK VINA RESULT:      -7.5      0.000      0.000
REMARK  Name = 
REMARK  5 active torsions:
REMARK  status: ('A' for Active; 'I' for Inactive)
REMARK    1  A    between atoms: C_1  and  C_2
REMARK    2  A    between atoms: C_8  and  C_9
REMARK    3  A    between atoms: C_9  and  O_11
REMARK    4  A    between atoms: O_11  and  C_12
REMARK    5  A    between atoms: C_12  and  C_13
REMARK                            x       y       z     vdW  Elec       q    Type
REMARK                         _______ _______ _______ _____ _____    ______ ____
ROOT
ATOM      1  C   UNL     1       1.405   6.190  20.464  0.00  0.00    +0.000 C 
ATOM      2  C   UNL     1       1.893   4.800  20.203  0.00  0.00    +0.000 A 
ATOM      3  C   UNL     1       1.105   3.714  20.304  0.00  0.00    +0.000 A 
ATOM      4  C   UNL     1       1.754   2.409  20.002  0.00  0.00    +0.000 A 
ATOM      5  N   UNL     1       2.990   2.225  19.659  0.00  0.00    +0.000 NA
ATOM      6  C   UNL     1       3.756   3.352  19.568  0.00  0.00    +0.000 A 
ATOM      7  N   UNL     1       5.017   3.470  19.227  0.00  0.00    +0.000 NA
ATOM      8  C   UNL     1       5.257   4.828  19.270  0.00  0.00    +0.000 A 
ATOM      9  N   UNL     1       4.196   5.558  19.654  0.00  0.00    +0.000 NA
ATOM     10  N   UNL     1       3.233   4.625  19.830  0.00  0.00    +0.000 N 
ENDROOT
BRANCH   8  11
ATOM     11  C   UNL     1       6.526   5.430  18.818  0.00  0.00    +0.000 C 
ATOM     12  O   UNL     1       7.637   5.053  19.179  0.00  0.00    +0.000 OA
BRANCH  11  13
ATOM     13  O   UNL     1       6.329   6.526  18.023  0.00  0.00    +0.000 OA
BRANCH  13  14
ATOM     14  C   UNL     1       6.185   6.228  16.631  0.00  0.00    +0.000 C 
BRANCH  14  15
ATOM     15  C   UNL     1       6.867   4.946  16.141  0.00  0.00    +0.000 C 
ATOM     16  C   UNL     1       5.907   3.860  15.684  0.00  0.00    +0.000 C 
ATOM     17  C   UNL     1       5.704   4.184  14.225  0.00  0.00    +0.000 C 
ATOM     18  C   UNL     1       7.057   4.723  13.816  0.00  0.00    +0.000 C 
ATOM     19  O   UNL     1       7.661   5.290  14.985  0.00  0.00    +0.000 OA
ENDBRANCH  14  15
ENDBRANCH  13  14
ENDBRANCH  11  13
ENDBRANCH   8  11
TORSDOF 4
ENDMDL
MODEL 2
REMARK VINA RESULT:      -7.3      2.768      5.618
REMARK  Name = 
REMARK  5 active torsions:
REMARK  status: ('A' for Active; 'I' for Inactive)
REMARK    1  A    between atoms: C_1  and  C_2
REMARK    2  A    between atoms: C_8  and  C_9
REMARK    3  A    between atoms: C_9  and  O_11
REMARK    4  A    between atoms: O_11  and  C_12
REMARK    5  A    between atoms: C_12  and  C_13
REMARK                            x       y       z     vdW  Elec       q    Type
REMARK                         _______ _______ _______ _____ _____    ______ ____
ROOT
ATOM      1  C   UNL     1       7.807   6.306  18.621  0.00  0.00    +0.000 C 
ATOM      2  C   UNL     1       6.934   5.675  17.581  0.00  0.00    +0.000 A 
ATOM      3  C   UNL     1       7.001   5.992  16.275  0.00  0.00    +0.000 A 
ATOM      4  C   UNL     1       6.063   5.262  15.380  0.00  0.00    +0.000 A 
ATOM      5  N   UNL     1       5.199   4.363  15.737  0.00  0.00    +0.000 NA
ATOM      6  C   UNL     1       5.164   4.070  17.071  0.00  0.00    +0.000 A 
ATOM      7  N   UNL     1       4.415   3.201  17.706  0.00  0.00    +0.000 NA
ATOM      8  C   UNL     1       4.821   3.299  19.022  0.00  0.00    +0.000 A 
ATOM      9  N   UNL     1       5.777   4.220  19.231  0.00  0.00    +0.000 NA
ATOM     10  N   UNL     1       6.010   4.704  17.990  0.00  0.00    +0.000 N 
ENDROOT
BRANCH   8  11
ATOM     11  C   UNL     1       4.336   2.389  20.078  0.00  0.00    +0.000 C 
ATOM     12  O   UNL     1       5.065   1.702  20.786  0.00  0.00    +0.000 OA
BRANCH  11  13
ATOM     13  O   UNL     1       2.969   2.317  20.117  0.00  0.00    +0.000 OA
BRANCH  13  14
ATOM     14  C   UNL     1       2.361   3.171  21.090  0.00  0.00    +0.000 C 
BRANCH  14  15
ATOM     15  C   UNL     1       1.292   4.137  20.567  0.00  0.00    +0.000 C 
ATOM     16  C   UNL     1       1.667   5.606  20.675  0.00  0.00    +0.000 C 
ATOM     17  C   UNL     1       2.386   5.864  19.374  0.00  0.00    +0.000 C 
ATOM     18  C   UNL     1       1.646   4.967  18.405  0.00  0.00    +0.000 C 
ATOM     19  O   UNL     1       1.116   3.870  19.160  0.00  0.00    +0.000 OA
ENDBRANCH  14  15
ENDBRANCH  13  14
ENDBRANCH  11  13
ENDBRANCH   8  11
TORSDOF 4
ENDMDL
MODEL 3
REMARK VINA RESULT:      -7.2      2.798      5.566
REMARK  Name = 
REMARK  5 active torsions:
REMARK  status: ('A' for Active; 'I' for Inactive)
REMARK    1  A    between atoms: C_1  and  C_2
REMARK    2  A    between atoms: C_8  and  C_9
REMARK    3  A    between atoms: C_9  and  O_11
REMARK    4  A    between atoms: O_11  and  C_12
REMARK    5  A    between atoms: C_12  and  C_13
REMARK                            x       y       z     vdW  Elec       q    Type
REMARK                         _______ _______ _______ _____ _____    ______ ____
ROOT
ATOM      1  C   UNL     1       5.401   4.941  15.019  0.00  0.00    +0.000 C 
ATOM      2  C   UNL     1       6.043   4.897  16.370  0.00  0.00    +0.000 A 
ATOM      3  C   UNL     1       7.352   4.644  16.553  0.00  0.00    +0.000 A 
ATOM      4  C   UNL     1       7.822   4.646  17.965  0.00  0.00    +0.000 A 
ATOM      5  N   UNL     1       7.098   4.863  19.019  0.00  0.00    +0.000 NA
ATOM      6  C   UNL     1       5.776   5.115  18.789  0.00  0.00    +0.000 A 
ATOM      7  N   UNL     1       4.824   5.385  19.650  0.00  0.00    +0.000 NA
ATOM      8  C   UNL     1       3.704   5.586  18.869  0.00  0.00    +0.000 A 
ATOM      9  N   UNL     1       3.920   5.422  17.552  0.00  0.00    +0.000 NA
ATOM     10  N   UNL     1       5.241   5.137  17.494  0.00  0.00    +0.000 N 
ENDROOT
BRANCH   8  11
ATOM     11  C   UNL     1       2.419   6.058  19.420  0.00  0.00    +0.000 C 
ATOM     12  O   UNL     1       2.261   7.143  19.972  0.00  0.00    +0.000 OA
BRANCH  11  13
ATOM     13  O   UNL     1       1.437   5.108  19.339  0.00  0.00    +0.000 OA
BRANCH  13  14
ATOM     14  C   UNL     1       1.304   4.295  20.509  0.00  0.00    +0.000 C 
BRANCH  14  15
ATOM     15  C   UNL     1       1.331   2.779  20.284  0.00  0.00    +0.000 C 
ATOM     16  C   UNL     1       0.812   2.337  18.925  0.00  0.00    +0.000 C 
ATOM     17  C   UNL     1       2.049   2.381  18.063  0.00  0.00    +0.000 C 
ATOM     18  C   UNL     1       3.139   1.972  19.030  0.00  0.00    +0.000 C 
ATOM     19  O   UNL     1       2.710   2.355  20.343  0.00  0.00    +0.000 OA
ENDBRANCH  14  15
ENDBRANCH  13  14
ENDBRANCH  11  13
ENDBRANCH   8  11
TORSDOF 4
ENDMDL
MODEL 4
REMARK VINA RESULT:      -7.1      0.772      1.852
REMARK  Name = 
REMARK  5 active torsions:
REMARK  status: ('A' for Active; 'I' for Inactive)
REMARK    1  A    between atoms: C_1  and  C_2
REMARK    2  A    between atoms: C_8  and  C_9
REMARK    3  A    between atoms: C_9  and  O_11
REMARK    4  A    between atoms: O_11  and  C_12
REMARK    5  A    between atoms: C_12  and  C_13
REMARK                            x       y       z     vdW  Elec       q    Type
REMARK                         _______ _______ _______ _____ _____    ______ ____
ROOT
ATOM      1  C   UNL     1       2.867   1.505  19.270  0.00  0.00    +0.000 C 
ATOM      2  C   UNL     1       2.455   2.902  19.618  0.00  0.00    +0.000 A 
ATOM      3  C   UNL     1       1.224   3.215  20.062  0.00  0.00    +0.000 A 
ATOM      4  C   UNL     1       0.990   4.653  20.366  0.00  0.00    +0.000 A 
ATOM      5  N   UNL     1       1.848   5.617  20.242  0.00  0.00    +0.000 NA
ATOM      6  C   UNL     1       3.085   5.256  19.789  0.00  0.00    +0.000 A 
ATOM      7  N   UNL     1       4.142   6.006  19.587  0.00  0.00    +0.000 NA
ATOM      8  C   UNL     1       5.112   5.120  19.164  0.00  0.00    +0.000 A 
ATOM      9  N   UNL     1       4.686   3.849  19.068  0.00  0.00    +0.000 NA
ATOM     10  N   UNL     1       3.401   3.927  19.478  0.00  0.00    +0.000 N 
ENDROOT
BRANCH   8  11
ATOM     11  C   UNL     1       6.519   5.515  18.956  0.00  0.00    +0.000 C 
ATOM     12  O   UNL     1       7.458   5.104  19.630  0.00  0.00    +0.000 OA
BRANCH  11  13
ATOM     13  O   UNL     1       6.654   6.472  17.986  0.00  0.00    +0.000 OA
BRANCH  13  14
ATOM     14  C   UNL     1       6.208   6.065  16.689  0.00  0.00    +0.000 C 
BRANCH  14  15
ATOM     15  C   UNL     1       6.895   4.830  16.095  0.00  0.00    +0.000 C 
ATOM     16  C   UNL     1       5.939   3.781  15.552  0.00  0.00    +0.000 C 
ATOM     17  C   UNL     1       5.732   4.223  14.125  0.00  0.00    +0.000 C 
ATOM     18  C   UNL     1       7.082   4.800  13.760  0.00  0.00    +0.000 C 
ATOM     19  O   UNL     1       7.686   5.272  14.971  0.00  0.00    +0.000 OA
ENDBRANCH  14  15
ENDBRANCH  13  14
ENDBRANCH  11  13
ENDBRANCH   8  11
TORSDOF 4
ENDMDL
MODEL 5
REMARK VINA RESULT:      -7.1      3.045      6.816
REMARK  Name = 
REMARK  5 active torsions:
REMARK  status: ('A' for Active; 'I' for Inactive)
REMARK    1  A    between atoms: C_1  and  C_2
REMARK    2  A    between atoms: C_8  and  C_9
REMARK    3  A    between atoms: C_9  and  O_11
REMARK    4  A    between atoms: O_11  and  C_12
REMARK    5  A    between atoms: C_12  and  C_13
REMARK                            x       y       z     vdW  Elec       q    Type
REMARK                         _______ _______ _______ _____ _____    ______ ____
ROOT
ATOM      1  C   UNL     1       5.190   2.975  12.248  0.00  0.00    +0.000 C 
ATOM      2  C   UNL     1       6.257   3.882  12.776  0.00  0.00    +0.000 A 
ATOM      3  C   UNL     1       7.190   4.451  11.992  0.00  0.00    +0.000 A 
ATOM      4  C   UNL     1       8.171   5.332  12.683  0.00  0.00    +0.000 A 
ATOM      5  N   UNL     1       8.210   5.594  13.953  0.00  0.00    +0.000 NA
ATOM      6  C   UNL     1       7.245   4.997  14.712  0.00  0.00    +0.000 A 
ATOM      7  N   UNL     1       7.031   5.095  16.003  0.00  0.00    +0.000 NA
ATOM      8  C   UNL     1       5.914   4.315  16.223  0.00  0.00    +0.000 A 
ATOM      9  N   UNL     1       5.443   3.712  15.118  0.00  0.00    +0.000 NA
ATOM     10  N   UNL     1       6.277   4.154  14.151  0.00  0.00    +0.000 N 
ENDROOT
BRANCH   8  11
ATOM     11  C   UNL     1       5.230   4.250  17.529  0.00  0.00    +0.000 C 
ATOM     12  O   UNL     1       5.782   3.952  18.584  0.00  0.00    +0.000 OA
BRANCH  11  13
ATOM     13  O   UNL     1       3.882   4.462  17.423  0.00  0.00    +0.000 OA
BRANCH  13  14
ATOM     14  C   UNL     1       3.075   3.365  17.860  0.00  0.00    +0.000 C 
BRANCH  14  15
ATOM     15  C   UNL     1       1.628   3.699  18.239  0.00  0.00    +0.000 C 
ATOM     16  C   UNL     1       0.900   2.587  18.978  0.00  0.00    +0.000 C 
ATOM     17  C   UNL     1       1.234   2.871  20.422  0.00  0.00    +0.000 C 
ATOM     18  C   UNL     1       1.293   4.382  20.455  0.00  0.00    +0.000 C 
ATOM     19  O   UNL     1       1.664   4.824  19.143  0.00  0.00    +0.000 OA
ENDBRANCH  14  15
ENDBRANCH  13  14
ENDBRANCH  11  13
ENDBRANCH   8  11
TORSDOF 4
ENDMDL
MODEL 6
REMARK VINA RESULT:      -7.1      1.671      2.380
REMARK  Name = 
REMARK  5 active torsions:
REMARK  status: ('A' for Active; 'I' for Inactive)
REMARK    1  A    between atoms: C_1  and  C_2
REMARK    2  A    between atoms: C_8  and  C_9
REMARK    3  A    between atoms: C_9  and  O_11
REMARK    4  A    between atoms: O_11  and  C_12
REMARK    5  A    between atoms: C_12  and  C_13
REMARK                            x       y       z     vdW  Elec       q    Type
REMARK                         _______ _______ _______ _____ _____    ______ ____
ROOT
ATOM      1  C   UNL     1       1.599   4.372  17.639  0.00  0.00    +0.000 C 
ATOM      2  C   UNL     1       2.671   3.790  18.505  0.00  0.00    +0.000 A 
ATOM      3  C   UNL     1       2.432   2.849  19.438  0.00  0.00    +0.000 A 
ATOM      4  C   UNL     1       3.617   2.378  20.204  0.00  0.00    +0.000 A 
ATOM      5  N   UNL     1       4.840   2.785  20.060  0.00  0.00    +0.000 NA
ATOM      6  C   UNL     1       5.039   3.739  19.104  0.00  0.00    +0.000 A 
ATOM      7  N   UNL     1       6.158   4.314  18.731  0.00  0.00    +0.000 NA
ATOM      8  C   UNL     1       5.781   5.164  17.711  0.00  0.00    +0.000 A 
ATOM      9  N   UNL     1       4.461   5.159  17.457  0.00  0.00    +0.000 NA
ATOM     10  N   UNL     1       3.986   4.243  18.330  0.00  0.00    +0.000 N 
ENDROOT
BRANCH   8  11
ATOM     11  C   UNL     1       6.754   5.916  16.896  0.00  0.00    +0.000 C 
ATOM     12  O   UNL     1       6.756   7.137  16.775  0.00  0.00    +0.000 OA
BRANCH  11  13
ATOM     13  O   UNL     1       7.601   5.093  16.205  0.00  0.00    +0.000 OA
BRANCH  13  14
ATOM     14  C   UNL     1       6.947   4.200  15.298  0.00  0.00    +0.000 C 
BRANCH  14  15
ATOM     15  C   UNL     1       6.324   4.839  14.052  0.00  0.00    +0.000 C 
ATOM     16  C   UNL     1       7.285   5.007  12.886  0.00  0.00    +0.000 C 
ATOM     17  C   UNL     1       7.154   3.696  12.152  0.00  0.00    +0.000 C 
ATOM     18  C   UNL     1       5.695   3.349  12.357  0.00  0.00    +0.000 C 
ATOM     19  O   UNL     1       5.281   3.956  13.587  0.00  0.00    +0.000 OA
ENDBRANCH  14  15
ENDBRANCH  13  14
ENDBRANCH  11  13
ENDBRANCH   8  11
TORSDOF 4
ENDMDL
MODEL 7
REMARK VINA RESULT:      -7.0      2.864      5.447
REMARK  Name = 
REMARK  5 active torsions:
REMARK  status: ('A' for Active; 'I' for Inactive)
REMARK    1  A    between atoms: C_1  and  C_2
REMARK    2  A    between atoms: C_8  and  C_9
REMARK    3  A    between atoms: C_9  and  O_11
REMARK    4  A    between atoms: O_11  and  C_12
REMARK    5  A    between atoms: C_12  and  C_13
REMARK                            x       y       z     vdW  Elec       q    Type
REMARK                         _______ _______ _______ _____ _____    ______ ____
ROOT
ATOM      1  C   UNL     1       7.848   5.505  19.111  0.00  0.00    +0.000 C 
ATOM      2  C   UNL     1       6.910   5.125  18.008  0.00  0.00    +0.000 A 
ATOM      3  C   UNL     1       7.318   4.557  16.859  0.00  0.00    +0.000 A 
ATOM      4  C   UNL     1       6.248   4.240  15.875  0.00  0.00    +0.000 A 
ATOM      5  N   UNL     1       4.978   4.460  16.019  0.00  0.00    +0.000 NA
ATOM      6  C   UNL     1       4.606   5.038  17.199  0.00  0.00    +0.000 A 
ATOM      7  N   UNL     1       3.405   5.354  17.622  0.00  0.00    +0.000 NA
ATOM      8  C   UNL     1       3.613   5.870  18.885  0.00  0.00    +0.000 A 
ATOM      9  N   UNL     1       4.906   5.913  19.251  0.00  0.00    +0.000 NA
ATOM     10  N   UNL     1       5.541   5.370  18.188  0.00  0.00    +0.000 N 
ENDROOT
BRANCH   8  11
ATOM     11  C   UNL     1       2.507   6.227  19.795  0.00  0.00    +0.000 C 
ATOM     12  O   UNL     1       1.960   7.325  19.818  0.00  0.00    +0.000 OA
BRANCH  11  13
ATOM     13  O   UNL     1       2.221   5.228  20.685  0.00  0.00    +0.000 OA
BRANCH  13  14
ATOM     14  C   UNL     1       1.300   4.248  20.197  0.00  0.00    +0.000 C 
BRANCH  14  15
ATOM     15  C   UNL     1       1.712   2.783  20.380  0.00  0.00    +0.000 C 
ATOM     16  C   UNL     1       1.470   1.907  19.162  0.00  0.00    +0.000 C 
ATOM     17  C   UNL     1       2.751   2.059  18.380  0.00  0.00    +0.000 C 
ATOM     18  C   UNL     1       3.789   2.193  19.472  0.00  0.00    +0.000 C 
ATOM     19  O   UNL     1       3.136   2.758  20.615  0.00  0.00    +0.000 OA
ENDBRANCH  14  15
ENDBRANCH  13  14
ENDBRANCH  11  13
ENDBRANCH   8  11
TORSDOF 4
ENDMDL
MODEL 8
REMARK VINA RESULT:      -6.9      2.995      6.293
REMARK  Name = 
REMARK  5 active torsions:
REMARK  status: ('A' for Active; 'I' for Inactive)
REMARK    1  A    between atoms: C_1  and  C_2
REMARK    2  A    between atoms: C_8  and  C_9
REMARK    3  A    between atoms: C_9  and  O_11
REMARK    4  A    between atoms: O_11  and  C_12
REMARK    5  A    between atoms: C_12  and  C_13
REMARK                            x       y       z     vdW  Elec       q    Type
REMARK                         _______ _______ _______ _____ _____    ______ ____
ROOT
ATOM      1  C   UNL     1       8.868   6.082  12.842  0.00  0.00    +0.000 C 
ATOM      2  C   UNL     1       7.741   5.101  12.924  0.00  0.00    +0.000 A 
ATOM      3  C   UNL     1       7.224   4.484  11.845  0.00  0.00    +0.000 A 
ATOM      4  C   UNL     1       6.111   3.534  12.111  0.00  0.00    +0.000 A 
ATOM      5  N   UNL     1       5.598   3.252  13.268  0.00  0.00    +0.000 NA
ATOM      6  C   UNL     1       6.150   3.899  14.336  0.00  0.00    +0.000 A 
ATOM      7  N   UNL     1       5.851   3.797  15.609  0.00  0.00    +0.000 NA
ATOM      8  C   UNL     1       6.742   4.643  16.237  0.00  0.00    +0.000 A 
ATOM      9  N   UNL     1       7.566   5.290  15.396  0.00  0.00    +0.000 NA
ATOM     10  N   UNL     1       7.204   4.809  14.185  0.00  0.00    +0.000 N 
ENDROOT
BRANCH   8  11
ATOM     11  C   UNL     1       6.858   4.734  17.706  0.00  0.00    +0.000 C 
ATOM     12  O   UNL     1       7.872   4.453  18.337  0.00  0.00    +0.000 OA
BRANCH  11  13
ATOM     13  O   UNL     1       5.674   5.073  18.303  0.00  0.00    +0.000 OA
BRANCH  13  14
ATOM     14  C   UNL     1       5.072   4.019  19.061  0.00  0.00    +0.000 C 
BRANCH  14  15
ATOM     15  C   UNL     1       3.561   4.133  19.296  0.00  0.00    +0.000 C 
ATOM     16  C   UNL     1       2.777   4.639  18.096  0.00  0.00    +0.000 C 
ATOM     17  C   UNL     1       2.459   3.370  17.345  0.00  0.00    +0.000 C 
ATOM     18  C   UNL     1       2.271   2.365  18.460  0.00  0.00    +0.000 C 
ATOM     19  O   UNL     1       3.063   2.806  19.570  0.00  0.00    +0.000 OA
ENDBRANCH  14  15
ENDBRANCH  13  14
ENDBRANCH  11  13
ENDBRANCH   8  11
TORSDOF 4
ENDMDL
MODEL 9
REMARK VINA RESULT:      -6.9      2.777      5.966
REMARK  Name = 
REMARK  5 active torsions:
REMARK  status: ('A' for Active; 'I' for Inactive)
REMARK    1  A    between atoms: C_1  and  C_2
REMARK    2  A    between atoms: C_8  and  C_9
REMARK    3  A    between atoms: C_9  and  O_11
REMARK    4  A    between atoms: O_11  and  C_12
REMARK    5  A    between atoms: C_12  and  C_13
REMARK                            x       y       z     vdW  Elec       q    Type
REMARK                         _______ _______ _______ _____ _____    ______ ____
ROOT
ATOM      1  C   UNL     1       6.472   5.534  15.226  0.00  0.00    +0.000 C 
ATOM      2  C   UNL     1       6.638   5.517  16.713  0.00  0.00    +0.000 A 
ATOM      3  C   UNL     1       7.501   6.317  17.365  0.00  0.00    +0.000 A 
ATOM      4  C   UNL     1       7.530   6.172  18.846  0.00  0.00    +0.000 A 
ATOM      5  N   UNL     1       6.814   5.357  19.554  0.00  0.00    +0.000 NA
ATOM      6  C   UNL     1       5.951   4.562  18.855  0.00  0.00    +0.000 A 
ATOM      7  N   UNL     1       5.101   3.669  19.303  0.00  0.00    +0.000 NA
ATOM      8  C   UNL     1       4.469   3.200  18.169  0.00  0.00    +0.000 A 
ATOM      9  N   UNL     1       4.918   3.750  17.027  0.00  0.00    +0.000 NA
ATOM     10  N   UNL     1       5.850   4.629  17.459  0.00  0.00    +0.000 N 
ENDROOT
BRANCH   8  11
ATOM     11  C   UNL     1       3.324   2.271  18.219  0.00  0.00    +0.000 C 
ATOM     12  O   UNL     1       3.421   1.065  18.422  0.00  0.00    +0.000 OA
BRANCH  11  13
ATOM     13  O   UNL     1       2.140   2.887  17.913  0.00  0.00    +0.000 OA
BRANCH  13  14
ATOM     14  C   UNL     1       1.995   4.197  18.470  0.00  0.00    +0.000 C 
BRANCH  14  15
ATOM     15  C   UNL     1       1.161   4.298  19.752  0.00  0.00    +0.000 C 
ATOM     16  C   UNL     1       0.760   2.958  20.347  0.00  0.00    +0.000 C 
ATOM     17  C   UNL     1       1.922   2.632  21.252  0.00  0.00    +0.000 C 
ATOM     18  C   UNL     1       2.341   3.996  21.754  0.00  0.00    +0.000 C 
ATOM     19  O   UNL     1       1.976   4.951  20.750  0.00  0.00    +0.000 OA
ENDBRANCH  14  15
ENDBRANCH  13  14
ENDBRANCH  11  13
ENDBRANCH   8  11
TORSDOF 4
ENDMDL
