MODEL 1
REMARK VINA RESULT:      -8.9      0.000      0.000
REMARK  Name = 
REMARK  5 active torsions:
REMARK  status: ('A' for Active; 'I' for Inactive)
REMARK    1  A    between atoms: C_2  and  C_3
REMARK    2  A    between atoms: C_2  and  C_24
REMARK    3  A    between atoms: C_3  and  N_4
REMARK    4  A    between atoms: N_7  and  C_8
REMARK    5  A    between atoms: C_11  and  C_12
REMARK                            x       y       z     vdW  Elec       q    Type
REMARK                         _______ _______ _______ _____ _____    ______ ____
ROOT
ATOM      1  N   UNL     1      -0.464  12.065  22.086  0.00  0.00    +0.000 N 
ATOM      2  C   UNL     1      -0.918  11.091  22.959  0.00  0.00    +0.000 A 
ATOM      3  C   UNL     1      -0.531   9.888  22.453  0.00  0.00    +0.000 A 
ATOM      4  N   UNL     1       0.175  10.144  21.290  0.00  0.00    +0.000 N 
ATOM      5  C   UNL     1       0.193  11.475  21.072  0.00  0.00    +0.000 A 
ENDROOT
BRANCH   4   6
ATOM      6  C   UNL     1       0.851   9.182  20.433  0.00  0.00    +0.000 A 
ATOM      7  C   UNL     1       1.316   7.986  20.990  0.00  0.00    +0.000 A 
ATOM      8  C   UNL     1       2.072   7.126  20.199  0.00  0.00    +0.000 A 
ATOM      9  C   UNL     1       2.387   7.476  18.875  0.00  0.00    +0.000 A 
ATOM     10  C   UNL     1       1.857   8.666  18.328  0.00  0.00    +0.000 A 
ATOM     11  C   UNL     1       1.102   9.515  19.115  0.00  0.00    +0.000 A 
BRANCH   9  12
ATOM     12  C   UNL     1       3.244   6.651  18.054  0.00  0.00    +0.000 A 
ATOM     13  C   UNL     1       3.206   5.315  17.720  0.00  0.00    +0.000 A 
ATOM     14  C   UNL     1       4.328   5.088  16.900  0.00  0.00    +0.000 A 
ATOM     15  C   UNL     1       4.887   3.966  16.287  0.00  0.00    +0.000 A 
ATOM     16  C   UNL     1       6.278   3.982  16.217  0.00  0.00    +0.000 A 
ATOM     17  C   UNL     1       6.956   5.195  16.131  0.00  0.00    +0.000 A 
ATOM     18  C   UNL     1       6.285   6.413  16.284  0.00  0.00    +0.000 A 
ATOM     19  C   UNL     1       5.018   6.288  16.837  0.00  0.00    +0.000 A 
ATOM     20  O   UNL     1       4.306   7.266  17.460  0.00  0.00    +0.000 OA
ENDBRANCH   9  12
ENDBRANCH   4   6
BRANCH   1  21
ATOM     21  C   UNL     1      -0.713  13.515  22.227  0.00  0.00    +0.000 C 
BRANCH  21  23
ATOM     22  O   UNL     1      -1.430  15.039  20.493  0.00  0.00    +0.000 OA
ATOM     23  C   UNL     1      -1.722  14.099  21.239  0.00  0.00    +0.000 C 
BRANCH  23  24
ATOM     24  C   UNL     1      -3.062  13.452  21.161  0.00  0.00    +0.000 A 
ATOM     25  C   UNL     1      -3.909  13.530  22.270  0.00  0.00    +0.000 A 
ATOM     26  C   UNL     1      -5.199  13.022  22.221  0.00  0.00    +0.000 A 
ATOM     27  C   UNL     1      -5.687  12.427  21.017  0.00  0.00    +0.000 A 
ATOM     28  C   UNL     1      -7.014  11.969  20.911  0.00  0.00    +0.000 A 
ATOM     29  C   UNL     1      -7.469  11.382  19.725  0.00  0.00    +0.000 A 
ATOM     30  C   UNL     1      -6.592  11.228  18.656  0.00  0.00    +0.000 A 
ATOM     31  C   UNL     1      -5.279  11.666  18.754  0.00  0.00    +0.000 A 
ATOM     32  C   UNL     1      -4.816  12.296  19.926  0.00  0.00    +0.000 A 
ATOM     33  C   UNL     1      -3.512  12.811  19.998  0.00  0.00    +0.000 A 
ENDBRANCH  23  24
ENDBRANCH  21  23
ENDBRANCH   1  21
TORSDOF 5
ENDMDL
MODEL 2
REMARK VINA RESULT:      -8.8      5.884      9.531
REMARK  Name = 
REMARK  5 active torsions:
REMARK  status: ('A' for Active; 'I' for Inactive)
REMARK    1  A    between atoms: C_2  and  C_3
REMARK    2  A    between atoms: C_2  and  C_24
REMARK    3  A    between atoms: C_3  and  N_4
REMARK    4  A    between atoms: N_7  and  C_8
REMARK    5  A    between atoms: C_11  and  C_12
REMARK                            x       y       z     vdW  Elec       q    Type
REMARK                         _______ _______ _______ _____ _____    ______ ____
ROOT
ATOM      1  N   UNL     1       4.943   3.551  17.341  0.00  0.00    +0.000 N 
ATOM      2  C   UNL     1       5.347   3.720  16.027  0.00  0.00    +0.000 A 
ATOM      3  C   UNL     1       6.057   4.880  15.972  0.00  0.00    +0.000 A 
ATOM      4  N   UNL     1       6.099   5.393  17.258  0.00  0.00    +0.000 N 
ATOM      5  C   UNL     1       5.402   4.579  18.077  0.00  0.00    +0.000 A 
ENDROOT
BRANCH   4   6
ATOM      6  C   UNL     1       6.805   6.579  17.717  0.00  0.00    +0.000 A 
ATOM      7  C   UNL     1       6.527   7.810  17.112  0.00  0.00    +0.000 A 
ATOM      8  C   UNL     1       7.292   8.918  17.463  0.00  0.00    +0.000 A 
ATOM      9  C   UNL     1       8.344   8.788  18.386  0.00  0.00    +0.000 A 
ATOM     10  C   UNL     1       8.562   7.543  19.017  0.00  0.00    +0.000 A 
ATOM     11  C   UNL     1       7.797   6.446  18.669  0.00  0.00    +0.000 A 
BRANCH   9  12
ATOM     12  C   UNL     1       9.215   9.896  18.706  0.00  0.00    +0.000 A 
ATOM     13  C   UNL     1       9.678  10.399  19.902  0.00  0.00    +0.000 A 
ATOM     14  C   UNL     1      10.482  11.507  19.572  0.00  0.00    +0.000 A 
ATOM     15  C   UNL     1      11.184  12.466  20.304  0.00  0.00    +0.000 A 
ATOM     16  C   UNL     1      11.209  13.730  19.721  0.00  0.00    +0.000 A 
ATOM     17  C   UNL     1      11.155  13.858  18.335  0.00  0.00    +0.000 A 
ATOM     18  C   UNL     1      10.906  12.753  17.515  0.00  0.00    +0.000 A 
ATOM     19  C   UNL     1      10.406  11.651  18.196  0.00  0.00    +0.000 A 
ATOM     20  O   UNL     1       9.714  10.612  17.657  0.00  0.00    +0.000 OA
ENDBRANCH   9  12
ENDBRANCH   4   6
BRANCH   1  21
ATOM     21  C   UNL     1       4.099   2.444  17.835  0.00  0.00    +0.000 C 
BRANCH  21  23
ATOM     22  O   UNL     1       1.734   1.986  17.635  0.00  0.00    +0.000 OA
ATOM     23  C   UNL     1       2.616   2.777  17.987  0.00  0.00    +0.000 C 
BRANCH  23  24
ATOM     24  C   UNL     1       2.263   4.071  18.636  0.00  0.00    +0.000 A 
ATOM     25  C   UNL     1       1.977   4.078  20.004  0.00  0.00    +0.000 A 
ATOM     26  C   UNL     1       1.729   5.265  20.676  0.00  0.00    +0.000 A 
ATOM     27  C   UNL     1       1.783   6.509  19.973  0.00  0.00    +0.000 A 
ATOM     28  C   UNL     1       1.609   7.736  20.641  0.00  0.00    +0.000 A 
ATOM     29  C   UNL     1       1.659   8.942  19.932  0.00  0.00    +0.000 A 
ATOM     30  C   UNL     1       1.856   8.919  18.554  0.00  0.00    +0.000 A 
ATOM     31  C   UNL     1       2.017   7.715  17.886  0.00  0.00    +0.000 A 
ATOM     32  C   UNL     1       2.011   6.494  18.589  0.00  0.00    +0.000 A 
ATOM     33  C   UNL     1       2.254   5.281  17.927  0.00  0.00    +0.000 A 
ENDBRANCH  23  24
ENDBRANCH  21  23
ENDBRANCH   1  21
TORSDOF 5
ENDMDL
MODEL 3
REMARK VINA RESULT:      -8.8      2.828     11.606
REMARK  Name = 
REMARK  5 active torsions:
REMARK  status: ('A' for Active; 'I' for Inactive)
REMARK    1  A    between atoms: C_2  and  C_3
REMARK    2  A    between atoms: C_2  and  C_24
REMARK    3  A    between atoms: C_3  and  N_4
REMARK    4  A    between atoms: N_7  and  C_8
REMARK    5  A    between atoms: C_11  and  C_12
REMARK                            x       y       z     vdW  Elec       q    Type
REMARK                         _______ _______ _______ _____ _____    ______ ____
ROOT
ATOM      1  N   UNL     1       2.685   6.634  18.886  0.00  0.00    +0.000 N 
ATOM      2  C   UNL     1       2.630   7.506  17.811  0.00  0.00    +0.000 A 
ATOM      3  C   UNL     1       1.979   8.623  18.235  0.00  0.00    +0.000 A 
ATOM      4  N   UNL     1       1.665   8.431  19.570  0.00  0.00    +0.000 N 
ATOM      5  C   UNL     1       2.089   7.207  19.947  0.00  0.00    +0.000 A 
ENDROOT
BRANCH   4   6
ATOM      6  C   UNL     1       1.031   9.374  20.477  0.00  0.00    +0.000 A 
ATOM      7  C   UNL     1       0.379   8.887  21.615  0.00  0.00    +0.000 A 
ATOM      8  C   UNL     1      -0.335   9.777  22.412  0.00  0.00    +0.000 A 
ATOM      9  C   UNL     1      -0.422  11.134  22.056  0.00  0.00    +0.000 A 
ATOM     10  C   UNL     1       0.293  11.601  20.931  0.00  0.00    +0.000 A 
ATOM     11  C   UNL     1       1.004  10.715  20.143  0.00  0.00    +0.000 A 
BRANCH   9  12
ATOM     12  C   UNL     1      -1.227  12.068  22.810  0.00  0.00    +0.000 A 
ATOM     13  C   UNL     1      -2.567  12.097  23.127  0.00  0.00    +0.000 A 
ATOM     14  C   UNL     1      -2.765  13.275  23.872  0.00  0.00    +0.000 A 
ATOM     15  C   UNL     1      -3.874  13.910  24.432  0.00  0.00    +0.000 A 
ATOM     16  C   UNL     1      -3.811  15.300  24.415  0.00  0.00    +0.000 A 
ATOM     17  C   UNL     1      -2.577  15.942  24.474  0.00  0.00    +0.000 A 
ATOM     18  C   UNL     1      -1.381  15.222  24.381  0.00  0.00    +0.000 A 
ATOM     19  C   UNL     1      -1.542  13.927  23.907  0.00  0.00    +0.000 A 
ATOM     20  O   UNL     1      -0.582  13.145  23.344  0.00  0.00    +0.000 OA
ENDBRANCH   9  12
ENDBRANCH   4   6
BRANCH   1  21
ATOM     21  C   UNL     1       3.262   5.275  18.850  0.00  0.00    +0.000 C 
BRANCH  21  23
ATOM     22  O   UNL     1       5.471   5.126  19.821  0.00  0.00    +0.000 OA
ATOM     23  C   UNL     1       4.788   5.220  18.796  0.00  0.00    +0.000 C 
BRANCH  23  24
ATOM     24  C   UNL     1       5.430   5.219  17.451  0.00  0.00    +0.000 A 
ATOM     25  C   UNL     1       6.640   5.899  17.286  0.00  0.00    +0.000 A 
ATOM     26  C   UNL     1       7.325   5.859  16.081  0.00  0.00    +0.000 A 
ATOM     27  C   UNL     1       6.805   5.097  14.989  0.00  0.00    +0.000 A 
ATOM     28  C   UNL     1       7.511   4.975  13.778  0.00  0.00    +0.000 A 
ATOM     29  C   UNL     1       6.980   4.230  12.719  0.00  0.00    +0.000 A 
ATOM     30  C   UNL     1       5.732   3.630  12.862  0.00  0.00    +0.000 A 
ATOM     31  C   UNL     1       5.023   3.753  14.048  0.00  0.00    +0.000 A 
ATOM     32  C   UNL     1       5.561   4.465  15.138  0.00  0.00    +0.000 A 
ATOM     33  C   UNL     1       4.881   4.523  16.365  0.00  0.00    +0.000 A 
ENDBRANCH  23  24
ENDBRANCH  21  23
ENDBRANCH   1  21
TORSDOF 5
ENDMDL
MODEL 4
REMARK VINA RESULT:      -8.7      2.901     11.679
REMARK  Name = 
REMARK  5 active torsions:
REMARK  status: ('A' for Active; 'I' for Inactive)
REMARK    1  A    between atoms: C_2  and  C_3
REMARK    2  A    between atoms: C_2  and  C_24
REMARK    3  A    between atoms: C_3  and  N_4
REMARK    4  A    between atoms: N_7  and  C_8
REMARK    5  A    between atoms: C_11  and  C_12
REMARK                            x       y       z     vdW  Elec       q    Type
REMARK                         _______ _______ _______ _____ _____    ______ ____
ROOT
ATOM      1  N   UNL     1       3.225   6.538  19.071  0.00  0.00    +0.000 N 
ATOM      2  C   UNL     1       3.136   7.312  17.926  0.00  0.00    +0.000 A 
ATOM      3  C   UNL     1       2.256   8.317  18.189  0.00  0.00    +0.000 A 
ATOM      4  N   UNL     1       1.837   8.158  19.499  0.00  0.00    +0.000 N 
ATOM      5  C   UNL     1       2.425   7.060  20.017  0.00  0.00    +0.000 A 
ENDROOT
BRANCH   4   6
ATOM      6  C   UNL     1       0.952   9.028  20.259  0.00  0.00    +0.000 A 
ATOM      7  C   UNL     1       0.347  10.111  19.613  0.00  0.00    +0.000 A 
ATOM      8  C   UNL     1      -0.395  11.014  20.368  0.00  0.00    +0.000 A 
ATOM      9  C   UNL     1      -0.504  10.851  21.760  0.00  0.00    +0.000 A 
ATOM     10  C   UNL     1       0.074   9.717  22.371  0.00  0.00    +0.000 A 
ATOM     11  C   UNL     1       0.808   8.820  21.617  0.00  0.00    +0.000 A 
BRANCH   9  12
ATOM     12  C   UNL     1      -1.192  11.817  22.587  0.00  0.00    +0.000 A 
ATOM     13  C   UNL     1      -2.464  11.852  23.112  0.00  0.00    +0.000 A 
ATOM     14  C   UNL     1      -2.558  13.065  23.821  0.00  0.00    +0.000 A 
ATOM     15  C   UNL     1      -3.573  13.719  24.521  0.00  0.00    +0.000 A 
ATOM     16  C   UNL     1      -3.534  15.108  24.426  0.00  0.00    +0.000 A 
ATOM     17  C   UNL     1      -2.316  15.760  24.255  0.00  0.00    +0.000 A 
ATOM     18  C   UNL     1      -1.140  15.045  24.007  0.00  0.00    +0.000 A 
ATOM     19  C   UNL     1      -1.356  13.726  23.629  0.00  0.00    +0.000 A 
ATOM     20  O   UNL     1      -0.486  12.924  22.958  0.00  0.00    +0.000 OA
ENDBRANCH   9  12
ENDBRANCH   4   6
BRANCH   1  21
ATOM     21  C   UNL     1       4.031   5.308  19.204  0.00  0.00    +0.000 C 
BRANCH  21  23
ATOM     22  O   UNL     1       3.122   3.430  17.983  0.00  0.00    +0.000 OA
ATOM     23  C   UNL     1       3.950   4.347  18.019  0.00  0.00    +0.000 C 
BRANCH  23  24
ATOM     24  C   UNL     1       4.867   4.591  16.870  0.00  0.00    +0.000 A 
ATOM     25  C   UNL     1       6.033   5.329  17.089  0.00  0.00    +0.000 A 
ATOM     26  C   UNL     1       6.964   5.512  16.078  0.00  0.00    +0.000 A 
ATOM     27  C   UNL     1       6.747   4.924  14.793  0.00  0.00    +0.000 A 
ATOM     28  C   UNL     1       7.707   5.029  13.768  0.00  0.00    +0.000 A 
ATOM     29  C   UNL     1       7.471   4.452  12.515  0.00  0.00    +0.000 A 
ATOM     30  C   UNL     1       6.267   3.795  12.278  0.00  0.00    +0.000 A 
ATOM     31  C   UNL     1       5.311   3.696  13.279  0.00  0.00    +0.000 A 
ATOM     32  C   UNL     1       5.548   4.235  14.558  0.00  0.00    +0.000 A 
ATOM     33  C   UNL     1       4.616   4.067  15.594  0.00  0.00    +0.000 A 
ENDBRANCH  23  24
ENDBRANCH  21  23
ENDBRANCH   1  21
TORSDOF 5
ENDMDL
MODEL 5
REMARK VINA RESULT:      -8.7      3.618     11.102
REMARK  Name = 
REMARK  5 active torsions:
REMARK  status: ('A' for Active; 'I' for Inactive)
REMARK    1  A    between atoms: C_2  and  C_3
REMARK    2  A    between atoms: C_2  and  C_24
REMARK    3  A    between atoms: C_3  and  N_4
REMARK    4  A    between atoms: N_7  and  C_8
REMARK    5  A    between atoms: C_11  and  C_12
REMARK                            x       y       z     vdW  Elec       q    Type
REMARK                         _______ _______ _______ _____ _____    ______ ____
ROOT
ATOM      1  N   UNL     1       3.179   4.990  19.489  0.00  0.00    +0.000 N 
ATOM      2  C   UNL     1       2.286   4.728  20.515  0.00  0.00    +0.000 A 
ATOM      3  C   UNL     1       1.622   5.888  20.774  0.00  0.00    +0.000 A 
ATOM      4  N   UNL     1       2.100   6.837  19.886  0.00  0.00    +0.000 N 
ATOM      5  C   UNL     1       3.060   6.277  19.121  0.00  0.00    +0.000 A 
ENDROOT
BRANCH   4   6
ATOM      6  C   UNL     1       1.646   8.209  19.726  0.00  0.00    +0.000 A 
ATOM      7  C   UNL     1       1.809   8.838  18.486  0.00  0.00    +0.000 A 
ATOM      8  C   UNL     1       1.492  10.187  18.371  0.00  0.00    +0.000 A 
ATOM      9  C   UNL     1       1.048  10.909  19.492  0.00  0.00    +0.000 A 
ATOM     10  C   UNL     1       0.844  10.231  20.715  0.00  0.00    +0.000 A 
ATOM     11  C   UNL     1       1.156   8.889  20.825  0.00  0.00    +0.000 A 
BRANCH   9  12
ATOM     12  C   UNL     1       0.795  12.331  19.431  0.00  0.00    +0.000 A 
ATOM     13  C   UNL     1      -0.368  13.067  19.387  0.00  0.00    +0.000 A 
ATOM     14  C   UNL     1       0.029  14.416  19.316  0.00  0.00    +0.000 A 
ATOM     15  C   UNL     1      -0.641  15.634  19.193  0.00  0.00    +0.000 A 
ATOM     16  C   UNL     1       0.036  16.591  18.443  0.00  0.00    +0.000 A 
ATOM     17  C   UNL     1       1.428  16.591  18.408  0.00  0.00    +0.000 A 
ATOM     18  C   UNL     1       2.167  15.548  18.977  0.00  0.00    +0.000 A 
ATOM     19  C   UNL     1       1.414  14.415  19.255  0.00  0.00    +0.000 A 
ATOM     20  O   UNL     1       1.885  13.150  19.423  0.00  0.00    +0.000 OA
ENDBRANCH   9  12
ENDBRANCH   4   6
BRANCH   1  21
ATOM     21  C   UNL     1       4.141   4.017  18.930  0.00  0.00    +0.000 C 
BRANCH  21  23
ATOM     22  O   UNL     1       6.317   4.812  19.621  0.00  0.00    +0.000 OA
ATOM     23  C   UNL     1       5.547   4.562  18.687  0.00  0.00    +0.000 C 
BRANCH  23  24
ATOM     24  C   UNL     1       5.987   4.726  17.273  0.00  0.00    +0.000 A 
ATOM     25  C   UNL     1       7.074   5.562  17.002  0.00  0.00    +0.000 A 
ATOM     26  C   UNL     1       7.580   5.683  15.717  0.00  0.00    +0.000 A 
ATOM     27  C   UNL     1       7.002   4.930  14.648  0.00  0.00    +0.000 A 
ATOM     28  C   UNL     1       7.539   4.974  13.347  0.00  0.00    +0.000 A 
ATOM     29  C   UNL     1       6.952   4.235  12.314  0.00  0.00    +0.000 A 
ATOM     30  C   UNL     1       5.816   3.475  12.574  0.00  0.00    +0.000 A 
ATOM     31  C   UNL     1       5.274   3.434  13.850  0.00  0.00    +0.000 A 
ATOM     32  C   UNL     1       5.874   4.139  14.911  0.00  0.00    +0.000 A 
ATOM     33  C   UNL     1       5.374   4.035  16.218  0.00  0.00    +0.000 A 
ENDBRANCH  23  24
ENDBRANCH  21  23
ENDBRANCH   1  21
TORSDOF 5
ENDMDL
MODEL 6
REMARK VINA RESULT:      -8.7      3.202     10.767
REMARK  Name = 
REMARK  5 active torsions:
REMARK  status: ('A' for Active; 'I' for Inactive)
REMARK    1  A    between atoms: C_2  and  C_3
REMARK    2  A    between atoms: C_2  and  C_24
REMARK    3  A    between atoms: C_3  and  N_4
REMARK    4  A    between atoms: N_7  and  C_8
REMARK    5  A    between atoms: C_11  and  C_12
REMARK                            x       y       z     vdW  Elec       q    Type
REMARK                         _______ _______ _______ _____ _____    ______ ____
ROOT
ATOM      1  N   UNL     1       2.131   4.032  19.450  0.00  0.00    +0.000 N 
ATOM      2  C   UNL     1       2.376   4.079  20.813  0.00  0.00    +0.000 A 
ATOM      3  C   UNL     1       2.286   5.383  21.192  0.00  0.00    +0.000 A 
ATOM      4  N   UNL     1       1.963   6.114  20.061  0.00  0.00    +0.000 N 
ATOM      5  C   UNL     1       1.888   5.278  19.005  0.00  0.00    +0.000 A 
ENDROOT
BRANCH   4   6
ATOM      6  C   UNL     1       1.688   7.540  19.975  0.00  0.00    +0.000 A 
ATOM      7  C   UNL     1       1.132   8.191  21.082  0.00  0.00    +0.000 A 
ATOM      8  C   UNL     1       0.753   9.524  20.955  0.00  0.00    +0.000 A 
ATOM      9  C   UNL     1       0.898  10.188  19.724  0.00  0.00    +0.000 A 
ATOM     10  C   UNL     1       1.511   9.516  18.644  0.00  0.00    +0.000 A 
ATOM     11  C   UNL     1       1.891   8.193  18.775  0.00  0.00    +0.000 A 
BRANCH   9  12
ATOM     12  C   UNL     1       0.433  11.543  19.532  0.00  0.00    +0.000 A 
ATOM     13  C   UNL     1       0.930  12.602  18.806  0.00  0.00    +0.000 A 
ATOM     14  C   UNL     1       0.043  13.674  19.025  0.00  0.00    +0.000 A 
ATOM     15  C   UNL     1       0.003  15.013  18.635  0.00  0.00    +0.000 A 
ATOM     16  C   UNL     1      -0.542  15.873  19.585  0.00  0.00    +0.000 A 
ATOM     17  C   UNL     1      -1.513  15.408  20.469  0.00  0.00    +0.000 A 
ATOM     18  C   UNL     1      -1.836  14.048  20.540  0.00  0.00    +0.000 A 
ATOM     19  C   UNL     1      -0.907  13.219  19.926  0.00  0.00    +0.000 A 
ATOM     20  O   UNL     1      -0.727  11.891  20.160  0.00  0.00    +0.000 OA
ENDBRANCH   9  12
ENDBRANCH   4   6
BRANCH   1  21
ATOM     21  C   UNL     1       2.183   2.812  18.619  0.00  0.00    +0.000 C 
BRANCH  21  23
ATOM     22  O   UNL     1       3.907   1.274  17.906  0.00  0.00    +0.000 OA
ATOM     23  C   UNL     1       3.568   2.449  18.086  0.00  0.00    +0.000 C 
BRANCH  23  24
ATOM     24  C   UNL     1       4.484   3.569  17.728  0.00  0.00    +0.000 A 
ATOM     25  C   UNL     1       4.292   4.228  16.511  0.00  0.00    +0.000 A 
ATOM     26  C   UNL     1       5.058   5.331  16.167  0.00  0.00    +0.000 A 
ATOM     27  C   UNL     1       6.049   5.823  17.072  0.00  0.00    +0.000 A 
ATOM     28  C   UNL     1       6.793   6.984  16.785  0.00  0.00    +0.000 A 
ATOM     29  C   UNL     1       7.764   7.443  17.682  0.00  0.00    +0.000 A 
ATOM     30  C   UNL     1       8.010   6.728  18.851  0.00  0.00    +0.000 A 
ATOM     31  C   UNL     1       7.291   5.578  19.137  0.00  0.00    +0.000 A 
ATOM     32  C   UNL     1       6.281   5.123  18.265  0.00  0.00    +0.000 A 
ATOM     33  C   UNL     1       5.498   4.005  18.592  0.00  0.00    +0.000 A 
ENDBRANCH  23  24
ENDBRANCH  21  23
ENDBRANCH   1  21
TORSDOF 5
ENDMDL
MODEL 7
REMARK VINA RESULT:      -8.7      2.884     11.671
REMARK  Name = 
REMARK  5 active torsions:
REMARK  status: ('A' for Active; 'I' for Inactive)
REMARK    1  A    between atoms: C_2  and  C_3
REMARK    2  A    between atoms: C_2  and  C_24
REMARK    3  A    between atoms: C_3  and  N_4
REMARK    4  A    between atoms: N_7  and  C_8
REMARK    5  A    between atoms: C_11  and  C_12
REMARK                            x       y       z     vdW  Elec       q    Type
REMARK                         _______ _______ _______ _____ _____    ______ ____
ROOT
ATOM      1  N   UNL     1       2.976   6.132  18.600  0.00  0.00    +0.000 N 
ATOM      2  C   UNL     1       3.200   6.999  17.544  0.00  0.00    +0.000 A 
ATOM      3  C   UNL     1       2.636   8.192  17.878  0.00  0.00    +0.000 A 
ATOM      4  N   UNL     1       2.096   8.046  19.145  0.00  0.00    +0.000 N 
ATOM      5  C   UNL     1       2.298   6.780  19.564  0.00  0.00    +0.000 A 
ENDROOT
BRANCH   4   6
ATOM      6  C   UNL     1       1.452   9.066  19.957  0.00  0.00    +0.000 A 
ATOM      7  C   UNL     1       1.032   8.738  21.251  0.00  0.00    +0.000 A 
ATOM      8  C   UNL     1       0.304   9.675  21.978  0.00  0.00    +0.000 A 
ATOM      9  C   UNL     1      -0.029  10.914  21.404  0.00  0.00    +0.000 A 
ATOM     10  C   UNL     1       0.457  11.232  20.116  0.00  0.00    +0.000 A 
ATOM     11  C   UNL     1       1.184  10.301  19.399  0.00  0.00    +0.000 A 
BRANCH   9  12
ATOM     12  C   UNL     1      -0.859  11.874  22.095  0.00  0.00    +0.000 A 
ATOM     13  C   UNL     1      -0.682  13.204  22.404  0.00  0.00    +0.000 A 
ATOM     14  C   UNL     1      -1.836  13.597  23.109  0.00  0.00    +0.000 A 
ATOM     15  C   UNL     1      -2.254  14.771  23.736  0.00  0.00    +0.000 A 
ATOM     16  C   UNL     1      -3.021  14.570  24.880  0.00  0.00    +0.000 A 
ATOM     17  C   UNL     1      -3.821  13.435  24.992  0.00  0.00    +0.000 A 
ATOM     18  C   UNL     1      -3.745  12.401  24.053  0.00  0.00    +0.000 A 
ATOM     19  C   UNL     1      -2.619  12.461  23.243  0.00  0.00    +0.000 A 
ATOM     20  O   UNL     1      -2.070  11.433  22.542  0.00  0.00    +0.000 OA
ENDBRANCH   9  12
ENDBRANCH   4   6
BRANCH   1  21
ATOM     21  C   UNL     1       3.375   4.710  18.632  0.00  0.00    +0.000 C 
BRANCH  21  23
ATOM     22  O   UNL     1       5.535   4.061  19.503  0.00  0.00    +0.000 OA
ATOM     23  C   UNL     1       4.879   4.456  18.534  0.00  0.00    +0.000 C 
BRANCH  23  24
ATOM     24  C   UNL     1       5.523   4.643  17.203  0.00  0.00    +0.000 A 
ATOM     25  C   UNL     1       6.691   5.407  17.126  0.00  0.00    +0.000 A 
ATOM     26  C   UNL     1       7.380   5.541  15.930  0.00  0.00    +0.000 A 
ATOM     27  C   UNL     1       6.909   4.876  14.756  0.00  0.00    +0.000 A 
ATOM     28  C   UNL     1       7.624   4.931  13.545  0.00  0.00    +0.000 A 
ATOM     29  C   UNL     1       7.140   4.278  12.406  0.00  0.00    +0.000 A 
ATOM     30  C   UNL     1       5.930   3.594  12.469  0.00  0.00    +0.000 A 
ATOM     31  C   UNL     1       5.213   3.543  13.655  0.00  0.00    +0.000 A 
ATOM     32  C   UNL     1       5.704   4.160  14.822  0.00  0.00    +0.000 A 
ATOM     33  C   UNL     1       5.019   4.041  16.042  0.00  0.00    +0.000 A 
ENDBRANCH  23  24
ENDBRANCH  21  23
ENDBRANCH   1  21
TORSDOF 5
ENDMDL
MODEL 8
REMARK VINA RESULT:      -8.6      7.525     11.208
REMARK  Name = 
REMARK  5 active torsions:
REMARK  status: ('A' for Active; 'I' for Inactive)
REMARK    1  A    between atoms: C_2  and  C_3
REMARK    2  A    between atoms: C_2  and  C_24
REMARK    3  A    between atoms: C_3  and  N_4
REMARK    4  A    between atoms: N_7  and  C_8
REMARK    5  A    between atoms: C_11  and  C_12
REMARK                            x       y       z     vdW  Elec       q    Type
REMARK                         _______ _______ _______ _____ _____    ______ ____
ROOT
ATOM      1  N   UNL     1       6.885   6.678  17.107  0.00  0.00    +0.000 N 
ATOM      2  C   UNL     1       7.502   6.067  18.186  0.00  0.00    +0.000 A 
ATOM      3  C   UNL     1       8.258   7.014  18.805  0.00  0.00    +0.000 A 
ATOM      4  N   UNL     1       8.076   8.199  18.110  0.00  0.00    +0.000 N 
ATOM      5  C   UNL     1       7.248   7.973  17.069  0.00  0.00    +0.000 A 
ENDROOT
BRANCH   4   6
ATOM      6  C   UNL     1       8.619   9.509  18.433  0.00  0.00    +0.000 A 
ATOM      7  C   UNL     1       9.325   9.675  19.629  0.00  0.00    +0.000 A 
ATOM      8  C   UNL     1       9.733  10.953  19.997  0.00  0.00    +0.000 A 
ATOM      9  C   UNL     1       9.409  12.058  19.191  0.00  0.00    +0.000 A 
ATOM     10  C   UNL     1       8.742  11.848  17.963  0.00  0.00    +0.000 A 
ATOM     11  C   UNL     1       8.342  10.576  17.600  0.00  0.00    +0.000 A 
BRANCH   9  12
ATOM     12  C   UNL     1       9.738  13.409  19.585  0.00  0.00    +0.000 A 
ATOM     13  C   UNL     1      10.242  13.941  20.751  0.00  0.00    +0.000 A 
ATOM     14  C   UNL     1      10.330  15.331  20.538  0.00  0.00    +0.000 A 
ATOM     15  C   UNL     1      10.699  16.424  21.322  0.00  0.00    +0.000 A 
ATOM     16  C   UNL     1       9.987  17.590  21.055  0.00  0.00    +0.000 A 
ATOM     17  C   UNL     1       9.491  17.825  19.775  0.00  0.00    +0.000 A 
ATOM     18  C   UNL     1       9.546  16.839  18.785  0.00  0.00    +0.000 A 
ATOM     19  C   UNL     1       9.812  15.568  19.275  0.00  0.00    +0.000 A 
ATOM     20  O   UNL     1       9.541  14.388  18.655  0.00  0.00    +0.000 OA
ENDBRANCH   9  12
ENDBRANCH   4   6
BRANCH   1  21
ATOM     21  C   UNL     1       6.012   5.997  16.129  0.00  0.00    +0.000 C 
BRANCH  21  23
ATOM     22  O   UNL     1       6.013   3.580  16.087  0.00  0.00    +0.000 OA
ATOM     23  C   UNL     1       5.521   4.614  16.552  0.00  0.00    +0.000 C 
BRANCH  23  24
ATOM     24  C   UNL     1       4.462   4.549  17.599  0.00  0.00    +0.000 A 
ATOM     25  C   UNL     1       3.366   5.410  17.498  0.00  0.00    +0.000 A 
ATOM     26  C   UNL     1       2.311   5.333  18.394  0.00  0.00    +0.000 A 
ATOM     27  C   UNL     1       2.324   4.347  19.429  0.00  0.00    +0.000 A 
ATOM     28  C   UNL     1       1.236   4.194  20.309  0.00  0.00    +0.000 A 
ATOM     29  C   UNL     1       1.273   3.227  21.320  0.00  0.00    +0.000 A 
ATOM     30  C   UNL     1       2.407   2.434  21.469  0.00  0.00    +0.000 A 
ATOM     31  C   UNL     1       3.488   2.585  20.614  0.00  0.00    +0.000 A 
ATOM     32  C   UNL     1       3.452   3.524  19.565  0.00  0.00    +0.000 A 
ATOM     33  C   UNL     1       4.512   3.623  18.651  0.00  0.00    +0.000 A 
ENDBRANCH  23  24
ENDBRANCH  21  23
ENDBRANCH   1  21
TORSDOF 5
ENDMDL
MODEL 9
REMARK VINA RESULT:      -8.6      7.746     11.226
REMARK  Name = 
REMARK  5 active torsions:
REMARK  status: ('A' for Active; 'I' for Inactive)
REMARK    1  A    between atoms: C_2  and  C_3
REMARK    2  A    between atoms: C_2  and  C_24
REMARK    3  A    between atoms: C_3  and  N_4
REMARK    4  A    between atoms: N_7  and  C_8
REMARK    5  A    between atoms: C_11  and  C_12
REMARK                            x       y       z     vdW  Elec       q    Type
REMARK                         _______ _______ _______ _____ _____    ______ ____
ROOT
ATOM      1  N   UNL     1       6.584   6.548  16.932  0.00  0.00    +0.000 N 
ATOM      2  C   UNL     1       7.399   5.918  17.858  0.00  0.00    +0.000 A 
ATOM      3  C   UNL     1       8.156   6.884  18.447  0.00  0.00    +0.000 A 
ATOM      4  N   UNL     1       7.778   8.094  17.891  0.00  0.00    +0.000 N 
ATOM      5  C   UNL     1       6.829   7.870  16.958  0.00  0.00    +0.000 A 
ENDROOT
BRANCH   4   6
ATOM      6  C   UNL     1       8.252   9.422  18.248  0.00  0.00    +0.000 A 
ATOM      7  C   UNL     1       7.941  10.501  17.414  0.00  0.00    +0.000 A 
ATOM      8  C   UNL     1       8.502  11.745  17.688  0.00  0.00    +0.000 A 
ATOM      9  C   UNL     1       9.389  11.899  18.767  0.00  0.00    +0.000 A 
ATOM     10  C   UNL     1       9.638  10.802  19.621  0.00  0.00    +0.000 A 
ATOM     11  C   UNL     1       9.076   9.569  19.348  0.00  0.00    +0.000 A 
BRANCH   9  12
ATOM     12  C   UNL     1      10.058  13.154  19.028  0.00  0.00    +0.000 A 
ATOM     13  C   UNL     1      11.315  13.456  19.503  0.00  0.00    +0.000 A 
ATOM     14  C   UNL     1      11.381  14.861  19.559  0.00  0.00    +0.000 A 
ATOM     15  C   UNL     1      12.333  15.784  19.993  0.00  0.00    +0.000 A 
ATOM     16  C   UNL     1      11.800  16.934  20.569  0.00  0.00    +0.000 A 
ATOM     17  C   UNL     1      10.555  17.405  20.158  0.00  0.00    +0.000 A 
ATOM     18  C   UNL     1       9.746  16.656  19.296  0.00  0.00    +0.000 A 
ATOM     19  C   UNL     1      10.134  15.329  19.176  0.00  0.00    +0.000 A 
ATOM     20  O   UNL     1       9.357  14.293  18.759  0.00  0.00    +0.000 OA
ENDBRANCH   9  12
ENDBRANCH   4   6
BRANCH   1  21
ATOM     21  C   UNL     1       5.637   5.863  16.028  0.00  0.00    +0.000 C 
BRANCH  21  23
ATOM     22  O   UNL     1       5.807   3.452  15.983  0.00  0.00    +0.000 OA
ATOM     23  C   UNL     1       5.245   4.448  16.451  0.00  0.00    +0.000 C 
BRANCH  23  24
ATOM     24  C   UNL     1       4.198   4.308  17.502  0.00  0.00    +0.000 A 
ATOM     25  C   UNL     1       2.953   4.907  17.290  0.00  0.00    +0.000 A 
ATOM     26  C   UNL     1       1.914   4.736  18.193  0.00  0.00    +0.000 A 
ATOM     27  C   UNL     1       2.102   3.919  19.351  0.00  0.00    +0.000 A 
ATOM     28  C   UNL     1       1.047   3.665  20.248  0.00  0.00    +0.000 A 
ATOM     29  C   UNL     1       1.256   2.869  21.380  0.00  0.00    +0.000 A 
ATOM     30  C   UNL     1       2.523   2.350  21.629  0.00  0.00    +0.000 A 
ATOM     31  C   UNL     1       3.571   2.604  20.757  0.00  0.00    +0.000 A 
ATOM     32  C   UNL     1       3.370   3.369  19.592  0.00  0.00    +0.000 A 
ATOM     33  C   UNL     1       4.410   3.560  18.668  0.00  0.00    +0.000 A 
ENDBRANCH  23  24
ENDBRANCH  21  23
ENDBRANCH   1  21
TORSDOF 5
ENDMDL
