MODEL 1
REMARK VINA RESULT:      -7.9      0.000      0.000
REMARK  Name = 
REMARK  10 active torsions:
REMARK  status: ('A' for Active; 'I' for Inactive)
REMARK    1  A    between atoms: C_6  and  C_7
REMARK    2  A    between atoms: C_10  and  O_11
REMARK    3  A    between atoms: C_12  and  C_13
REMARK    4  A    between atoms: C_12  and  C_14
REMARK    5  A    between atoms: C_14  and  O_15
REMARK    6  A    between atoms: C_16  and  C_17
REMARK    7  A    between atoms: C_17  and  C_18
REMARK    8  A    between atoms: C_24  and  O_25
REMARK    9  A    between atoms: O_25  and  C_26
REMARK   10  A    between atoms: C_31  and  N_32
REMARK                            x       y       z     vdW  Elec       q    Type
REMARK                         _______ _______ _______ _____ _____    ______ ____
ROOT
ATOM      1  C   UNL     1       1.673   8.853  17.507  0.00  0.00    +0.000 C 
ATOM      2  C   UNL     1       2.614   8.112  18.119  0.00  0.00    +0.000 C 
ATOM      3  C   UNL     1       3.965   7.902  17.465  0.00  0.00    +0.000 C 
ATOM      4  C   UNL     1       4.312   6.415  17.226  0.00  0.00    +0.000 C 
ATOM      5  C   UNL     1       4.063   5.526  18.463  0.00  0.00    +0.000 C 
ATOM      6  C   UNL     1       2.639   5.767  19.077  0.00  0.00    +0.000 C 
ATOM      7  C   UNL     1       1.506   5.388  18.073  0.00  0.00    +0.000 C 
ATOM      8  C   UNL     1       2.536   4.970  20.417  0.00  0.00    +0.000 C 
ATOM      9  C   UNL     1       3.221   3.616  20.556  0.00  0.00    +0.000 C 
ATOM     10  C   UNL     1       4.553   3.476  19.824  0.00  0.00    +0.000 C 
ATOM     11  C   UNL     1       4.465   3.975  18.352  0.00  0.00    +0.000 C 
ATOM     12  C   UNL     1       5.841   3.804  17.666  0.00  0.00    +0.000 C 
ATOM     13  C   UNL     1       2.416   7.325  19.416  0.00  0.00    +0.000 C 
ENDROOT
BRANCH  10  14
ATOM     14  O   UNL     1       4.995   2.120  19.917  0.00  0.00    +0.000 OA
ATOM     15  H   UNL     1       4.236   1.527  19.758  0.00  0.00    +0.000 HD
ENDBRANCH  10  14
BRANCH  11  16
ATOM     16  C   UNL     1       3.509   3.010  17.596  0.00  0.00    +0.000 C 
BRANCH  16  17
ATOM     17  O   UNL     1       4.066   1.716  17.421  0.00  0.00    +0.000 OA
ATOM     18  H   UNL     1       3.340   1.140  17.122  0.00  0.00    +0.000 HD
ENDBRANCH  16  17
ENDBRANCH  11  16
BRANCH  13  19
ATOM     19  C   UNL     1       1.049   7.490  20.174  0.00  0.00    +0.000 C 
BRANCH  19  20
ATOM     20  C   UNL     1       0.956   8.096  21.547  0.00  0.00    +0.000 C 
ATOM     21  C   UNL     1       0.188   9.165  21.839  0.00  0.00    +0.000 C 
ATOM     22  C   UNL     1       0.258   9.812  23.168  0.00  0.00    +0.000 C 
ATOM     23  O   UNL     1       0.884   9.412  24.131  0.00  0.00    +0.000 OA
ATOM     24  O   UNL     1      -0.513  10.934  23.148  0.00  0.00    +0.000 OA
ATOM     25  C   UNL     1      -0.971  11.194  21.821  0.00  0.00    +0.000 C 
ATOM     26  C   UNL     1      -0.823   9.913  21.026  0.00  0.00    +0.000 C 
BRANCH  26  27
ATOM     27  O   UNL     1      -0.383  10.181  19.698  0.00  0.00    +0.000 OA
BRANCH  27  28
ATOM     28  C   UNL     1       0.111  11.419  19.372  0.00  0.00    +0.000 A 
ATOM     29  C   UNL     1       1.384  11.881  19.722  0.00  0.00    +0.000 A 
ATOM     30  C   UNL     1       1.773  13.188  19.415  0.00  0.00    +0.000 A 
ATOM     31  C   UNL     1       0.883  14.016  18.756  0.00  0.00    +0.000 A 
ATOM     32  N   UNL     1      -0.345  13.617  18.378  0.00  0.00    +0.000 NA
ATOM     33  C   UNL     1      -0.709  12.327  18.674  0.00  0.00    +0.000 A 
BRANCH  33  34
ATOM     34  N   UNL     1      -2.031  11.838  18.251  0.00  0.00    +0.000 N 
ATOM     35  O   UNL     1      -2.113  11.289  17.140  0.00  0.00    +0.000 OA
ATOM     36  O   UNL     1      -2.979  12.043  19.025  0.00  0.00    +0.000 OA
ENDBRANCH  33  34
ENDBRANCH  27  28
ENDBRANCH  26  27
ENDBRANCH  19  20
ENDBRANCH  13  19
TORSDOF 8
ENDMDL
MODEL 2
REMARK VINA RESULT:      -7.8      1.291      1.938
REMARK  Name = 
REMARK  10 active torsions:
REMARK  status: ('A' for Active; 'I' for Inactive)
REMARK    1  A    between atoms: C_6  and  C_7
REMARK    2  A    between atoms: C_10  and  O_11
REMARK    3  A    between atoms: C_12  and  C_13
REMARK    4  A    between atoms: C_12  and  C_14
REMARK    5  A    between atoms: C_14  and  O_15
REMARK    6  A    between atoms: C_16  and  C_17
REMARK    7  A    between atoms: C_17  and  C_18
REMARK    8  A    between atoms: C_24  and  O_25
REMARK    9  A    between atoms: O_25  and  C_26
REMARK   10  A    between atoms: C_31  and  N_32
REMARK                            x       y       z     vdW  Elec       q    Type
REMARK                         _______ _______ _______ _____ _____    ______ ____
ROOT
ATOM      1  C   UNL     1       1.672   8.900  17.542  0.00  0.00    +0.000 C 
ATOM      2  C   UNL     1       2.608   8.155  18.156  0.00  0.00    +0.000 C 
ATOM      3  C   UNL     1       3.964   7.948  17.513  0.00  0.00    +0.000 C 
ATOM      4  C   UNL     1       4.312   6.462  17.267  0.00  0.00    +0.000 C 
ATOM      5  C   UNL     1       4.052   5.565  18.496  0.00  0.00    +0.000 C 
ATOM      6  C   UNL     1       2.622   5.803  19.099  0.00  0.00    +0.000 C 
ATOM      7  C   UNL     1       1.498   5.431  18.082  0.00  0.00    +0.000 C 
ATOM      8  C   UNL     1       2.507   4.997  20.433  0.00  0.00    +0.000 C 
ATOM      9  C   UNL     1       3.189   3.641  20.568  0.00  0.00    +0.000 C 
ATOM     10  C   UNL     1       4.528   3.506  19.847  0.00  0.00    +0.000 C 
ATOM     11  C   UNL     1       4.453   4.014  18.378  0.00  0.00    +0.000 C 
ATOM     12  C   UNL     1       5.835   3.847  17.703  0.00  0.00    +0.000 C 
ATOM     13  C   UNL     1       2.397   7.358  19.446  0.00  0.00    +0.000 C 
ENDROOT
BRANCH  10  14
ATOM     14  O   UNL     1       4.968   2.148  19.934  0.00  0.00    +0.000 OA
ATOM     15  H   UNL     1       5.378   2.003  20.808  0.00  0.00    +0.000 HD
ENDBRANCH  10  14
BRANCH  11  16
ATOM     16  C   UNL     1       3.503   3.055  17.606  0.00  0.00    +0.000 C 
BRANCH  16  17
ATOM     17  O   UNL     1       4.063   1.764  17.422  0.00  0.00    +0.000 OA
ATOM     18  H   UNL     1       4.463   1.510  18.273  0.00  0.00    +0.000 HD
ENDBRANCH  16  17
ENDBRANCH  11  16
BRANCH  13  19
ATOM     19  C   UNL     1       1.024   7.519  20.194  0.00  0.00    +0.000 C 
BRANCH  19  20
ATOM     20  C   UNL     1       0.923   8.088  21.582  0.00  0.00    +0.000 C 
ATOM     21  C   UNL     1       0.187   9.175  21.890  0.00  0.00    +0.000 C 
ATOM     22  C   UNL     1       0.251   9.780  23.240  0.00  0.00    +0.000 C 
ATOM     23  O   UNL     1       0.841   9.329  24.203  0.00  0.00    +0.000 OA
ATOM     24  O   UNL     1      -0.478  10.930  23.237  0.00  0.00    +0.000 OA
ATOM     25  C   UNL     1      -0.896  11.245  21.909  0.00  0.00    +0.000 C 
ATOM     26  C   UNL     1      -0.778   9.984  21.078  0.00  0.00    +0.000 C 
BRANCH  26  27
ATOM     27  O   UNL     1      -0.299  10.274  19.769  0.00  0.00    +0.000 OA
BRANCH  27  28
ATOM     28  C   UNL     1      -1.185  10.492  18.743  0.00  0.00    +0.000 A 
ATOM     29  C   UNL     1      -2.056   9.524  18.232  0.00  0.00    +0.000 A 
ATOM     30  C   UNL     1      -2.869   9.813  17.131  0.00  0.00    +0.000 A 
ATOM     31  C   UNL     1      -2.803  11.071  16.560  0.00  0.00    +0.000 A 
ATOM     32  N   UNL     1      -2.000  12.044  17.026  0.00  0.00    +0.000 NA
ATOM     33  C   UNL     1      -1.216  11.751  18.115  0.00  0.00    +0.000 A 
BRANCH  33  34
ATOM     34  N   UNL     1      -0.346  12.796  18.677  0.00  0.00    +0.000 N 
ATOM     35  O   UNL     1      -0.873  13.661  19.393  0.00  0.00    +0.000 OA
ATOM     36  O   UNL     1       0.854  12.755  18.362  0.00  0.00    +0.000 OA
ENDBRANCH  33  34
ENDBRANCH  27  28
ENDBRANCH  26  27
ENDBRANCH  19  20
ENDBRANCH  13  19
TORSDOF 8
ENDMDL
MODEL 3
REMARK VINA RESULT:      -7.5      1.624      2.807
REMARK  Name = 
REMARK  10 active torsions:
REMARK  status: ('A' for Active; 'I' for Inactive)
REMARK    1  A    between atoms: C_6  and  C_7
REMARK    2  A    between atoms: C_10  and  O_11
REMARK    3  A    between atoms: C_12  and  C_13
REMARK    4  A    between atoms: C_12  and  C_14
REMARK    5  A    between atoms: C_14  and  O_15
REMARK    6  A    between atoms: C_16  and  C_17
REMARK    7  A    between atoms: C_17  and  C_18
REMARK    8  A    between atoms: C_24  and  O_25
REMARK    9  A    between atoms: O_25  and  C_26
REMARK   10  A    between atoms: C_31  and  N_32
REMARK                            x       y       z     vdW  Elec       q    Type
REMARK                         _______ _______ _______ _____ _____    ______ ____
ROOT
ATOM      1  C   UNL     1       1.414   5.229  20.509  0.00  0.00    +0.000 C 
ATOM      2  C   UNL     1       1.825   5.083  19.236  0.00  0.00    +0.000 C 
ATOM      3  C   UNL     1       2.070   3.700  18.666  0.00  0.00    +0.000 C 
ATOM      4  C   UNL     1       3.510   3.492  18.147  0.00  0.00    +0.000 C 
ATOM      5  C   UNL     1       4.007   4.644  17.247  0.00  0.00    +0.000 C 
ATOM      6  C   UNL     1       3.752   6.047  17.904  0.00  0.00    +0.000 C 
ATOM      7  C   UNL     1       4.542   6.210  19.240  0.00  0.00    +0.000 C 
ATOM      8  C   UNL     1       4.114   7.154  16.862  0.00  0.00    +0.000 C 
ATOM      9  C   UNL     1       5.277   6.948  15.899  0.00  0.00    +0.000 C 
ATOM     10  C   UNL     1       5.480   5.514  15.414  0.00  0.00    +0.000 C 
ATOM     11  C   UNL     1       5.463   4.493  16.589  0.00  0.00    +0.000 C 
ATOM     12  C   UNL     1       5.678   3.065  16.033  0.00  0.00    +0.000 C 
ATOM     13  C   UNL     1       2.200   6.226  18.291  0.00  0.00    +0.000 C 
ENDROOT
BRANCH  10  14
ATOM     14  O   UNL     1       6.687   5.449  14.650  0.00  0.00    +0.000 OA
ATOM     15  H   UNL     1       7.230   6.236  14.846  0.00  0.00    +0.000 HD
ENDBRANCH  10  14
BRANCH  11  16
ATOM     16  C   UNL     1       6.713   4.781  17.468  0.00  0.00    +0.000 C 
BRANCH  16  17
ATOM     17  O   UNL     1       7.890   4.172  16.960  0.00  0.00    +0.000 OA
ATOM     18  H   UNL     1       7.855   4.266  15.992  0.00  0.00    +0.000 HD
ENDBRANCH  16  17
ENDBRANCH  11  16
BRANCH  13  19
ATOM     19  C   UNL     1       1.968   7.699  18.791  0.00  0.00    +0.000 C 
BRANCH  19  20
ATOM     20  C   UNL     1       1.957   8.064  20.249  0.00  0.00    +0.000 C 
ATOM     21  C   UNL     1       1.066   8.916  20.797  0.00  0.00    +0.000 C 
ATOM     22  C   UNL     1       1.202   9.356  22.204  0.00  0.00    +0.000 C 
ATOM     23  O   UNL     1       2.005   8.938  23.015  0.00  0.00    +0.000 OA
ATOM     24  O   UNL     1       0.259  10.307  22.455  0.00  0.00    +0.000 OA
ATOM     25  C   UNL     1      -0.404  10.675  21.245  0.00  0.00    +0.000 C 
ATOM     26  C   UNL     1      -0.152   9.579  20.231  0.00  0.00    +0.000 C 
BRANCH  26  27
ATOM     27  O   UNL     1       0.061  10.120  18.931  0.00  0.00    +0.000 OA
BRANCH  27  28
ATOM     28  C   UNL     1       0.414  11.439  18.783  0.00  0.00    +0.000 A 
ATOM     29  C   UNL     1       1.700  11.942  18.997  0.00  0.00    +0.000 A 
ATOM     30  C   UNL     1       1.950  13.315  18.900  0.00  0.00    +0.000 A 
ATOM     31  C   UNL     1       0.907  14.165  18.583  0.00  0.00    +0.000 A 
ATOM     32  N   UNL     1      -0.344  13.732  18.346  0.00  0.00    +0.000 NA
ATOM     33  C   UNL     1      -0.573  12.380  18.433  0.00  0.00    +0.000 A 
BRANCH  33  34
ATOM     34  N   UNL     1      -1.919  11.859  18.150  0.00  0.00    +0.000 N 
ATOM     35  O   UNL     1      -2.140  11.424  17.009  0.00  0.00    +0.000 OA
ATOM     36  O   UNL     1      -2.751  11.926  19.070  0.00  0.00    +0.000 OA
ENDBRANCH  33  34
ENDBRANCH  27  28
ENDBRANCH  26  27
ENDBRANCH  19  20
ENDBRANCH  13  19
TORSDOF 8
ENDMDL
MODEL 4
REMARK VINA RESULT:      -7.4      3.639      8.564
REMARK  Name = 
REMARK  10 active torsions:
REMARK  status: ('A' for Active; 'I' for Inactive)
REMARK    1  A    between atoms: C_6  and  C_7
REMARK    2  A    between atoms: C_10  and  O_11
REMARK    3  A    between atoms: C_12  and  C_13
REMARK    4  A    between atoms: C_12  and  C_14
REMARK    5  A    between atoms: C_14  and  O_15
REMARK    6  A    between atoms: C_16  and  C_17
REMARK    7  A    between atoms: C_17  and  C_18
REMARK    8  A    between atoms: C_24  and  O_25
REMARK    9  A    between atoms: O_25  and  C_26
REMARK   10  A    between atoms: C_31  and  N_32
REMARK                            x       y       z     vdW  Elec       q    Type
REMARK                         _______ _______ _______ _____ _____    ______ ____
ROOT
ATOM      1  C   UNL     1       0.156   7.270  21.237  0.00  0.00    +0.000 C 
ATOM      2  C   UNL     1       0.883   8.397  21.137  0.00  0.00    +0.000 C 
ATOM      3  C   UNL     1       0.668   9.536  22.113  0.00  0.00    +0.000 C 
ATOM      4  C   UNL     1       0.275  10.867  21.434  0.00  0.00    +0.000 C 
ATOM      5  C   UNL     1       1.174  11.227  20.232  0.00  0.00    +0.000 C 
ATOM      6  C   UNL     1       1.334  10.019  19.243  0.00  0.00    +0.000 C 
ATOM      7  C   UNL     1      -0.032   9.602  18.614  0.00  0.00    +0.000 C 
ATOM      8  C   UNL     1       2.394  10.403  18.160  0.00  0.00    +0.000 C 
ATOM      9  C   UNL     1       2.483  11.837  17.653  0.00  0.00    +0.000 C 
ATOM     10  C   UNL     1       2.203  12.919  18.694  0.00  0.00    +0.000 C 
ATOM     11  C   UNL     1       0.904  12.630  19.500  0.00  0.00    +0.000 C 
ATOM     12  C   UNL     1       0.675  13.760  20.531  0.00  0.00    +0.000 C 
ATOM     13  C   UNL     1       1.874   8.713  20.014  0.00  0.00    +0.000 C 
ENDROOT
BRANCH  10  14
ATOM     14  O   UNL     1       2.173  14.192  18.044  0.00  0.00    +0.000 OA
ATOM     15  H   UNL     1       3.076  14.424  17.756  0.00  0.00    +0.000 HD
ENDBRANCH  10  14
BRANCH  11  16
ATOM     16  C   UNL     1      -0.288  12.736  18.507  0.00  0.00    +0.000 C 
BRANCH  16  17
ATOM     17  O   UNL     1      -0.714  14.074  18.307  0.00  0.00    +0.000 OA
ATOM     18  H   UNL     1      -1.305  14.292  19.049  0.00  0.00    +0.000 HD
ENDBRANCH  16  17
ENDBRANCH  11  16
BRANCH  13  19
ATOM     19  C   UNL     1       2.172   7.586  18.958  0.00  0.00    +0.000 C 
BRANCH  19  20
ATOM     20  C   UNL     1       2.055   6.124  19.285  0.00  0.00    +0.000 C 
ATOM     21  C   UNL     1       3.111   5.286  19.343  0.00  0.00    +0.000 C 
ATOM     22  C   UNL     1       2.917   3.829  19.514  0.00  0.00    +0.000 C 
ATOM     23  O   UNL     1       1.862   3.263  19.730  0.00  0.00    +0.000 OA
ATOM     24  O   UNL     1       4.127   3.213  19.407  0.00  0.00    +0.000 OA
ATOM     25  C   UNL     1       5.121   4.149  18.993  0.00  0.00    +0.000 C 
ATOM     26  C   UNL     1       4.585   5.539  19.265  0.00  0.00    +0.000 C 
BRANCH  26  27
ATOM     27  O   UNL     1       4.941   6.441  18.221  0.00  0.00    +0.000 OA
BRANCH  27  28
ATOM     28  C   UNL     1       5.498   5.965  17.060  0.00  0.00    +0.000 A 
ATOM     29  C   UNL     1       4.827   5.166  16.129  0.00  0.00    +0.000 A 
ATOM     30  C   UNL     1       5.500   4.661  15.012  0.00  0.00    +0.000 A 
ATOM     31  C   UNL     1       6.837   4.968  14.839  0.00  0.00    +0.000 A 
ATOM     32  N   UNL     1       7.524   5.750  15.691  0.00  0.00    +0.000 NA
ATOM     33  C   UNL     1       6.848   6.249  16.777  0.00  0.00    +0.000 A 
BRANCH  33  34
ATOM     34  N   UNL     1       7.553   7.134  17.718  0.00  0.00    +0.000 N 
ATOM     35  O   UNL     1       7.667   8.330  17.407  0.00  0.00    +0.000 OA
ATOM     36  O   UNL     1       8.014   6.609  18.743  0.00  0.00    +0.000 OA
ENDBRANCH  33  34
ENDBRANCH  27  28
ENDBRANCH  26  27
ENDBRANCH  19  20
ENDBRANCH  13  19
TORSDOF 8
ENDMDL
MODEL 5
REMARK VINA RESULT:      -7.4      3.599      8.714
REMARK  Name = 
REMARK  10 active torsions:
REMARK  status: ('A' for Active; 'I' for Inactive)
REMARK    1  A    between atoms: C_6  and  C_7
REMARK    2  A    between atoms: C_10  and  O_11
REMARK    3  A    between atoms: C_12  and  C_13
REMARK    4  A    between atoms: C_12  and  C_14
REMARK    5  A    between atoms: C_14  and  O_15
REMARK    6  A    between atoms: C_16  and  C_17
REMARK    7  A    between atoms: C_17  and  C_18
REMARK    8  A    between atoms: C_24  and  O_25
REMARK    9  A    between atoms: O_25  and  C_26
REMARK   10  A    between atoms: C_31  and  N_32
REMARK                            x       y       z     vdW  Elec       q    Type
REMARK                         _______ _______ _______ _____ _____    ______ ____
ROOT
ATOM      1  C   UNL     1       0.609   6.848  20.767  0.00  0.00    +0.000 C 
ATOM      2  C   UNL     1       1.226   8.044  20.785  0.00  0.00    +0.000 C 
ATOM      3  C   UNL     1       1.016   8.996  21.945  0.00  0.00    +0.000 C 
ATOM      4  C   UNL     1       0.446  10.368  21.523  0.00  0.00    +0.000 C 
ATOM      5  C   UNL     1       1.186  10.992  20.320  0.00  0.00    +0.000 C 
ATOM      6  C   UNL     1       1.347   9.968  19.141  0.00  0.00    +0.000 C 
ATOM      7  C   UNL     1      -0.036   9.519  18.574  0.00  0.00    +0.000 C 
ATOM      8  C   UNL     1       2.256  10.614  18.046  0.00  0.00    +0.000 C 
ATOM      9  C   UNL     1       2.173  12.109  17.768  0.00  0.00    +0.000 C 
ATOM     10  C   UNL     1       1.910  12.989  18.987  0.00  0.00    +0.000 C 
ATOM     11  C   UNL     1       0.727  12.456  19.847  0.00  0.00    +0.000 C 
ATOM     12  C   UNL     1       0.508  13.390  21.060  0.00  0.00    +0.000 C 
ATOM     13  C   UNL     1       2.069   8.621  19.645  0.00  0.00    +0.000 C 
ENDROOT
BRANCH  10  14
ATOM     14  O   UNL     1       1.707  14.337  18.553  0.00  0.00    +0.000 OA
ATOM     15  H   UNL     1       2.572  14.732  18.331  0.00  0.00    +0.000 HD
ENDBRANCH  10  14
BRANCH  11  16
ATOM     16  C   UNL     1      -0.563  12.592  18.989  0.00  0.00    +0.000 C 
BRANCH  16  17
ATOM     17  O   UNL     1      -1.079  13.914  18.986  0.00  0.00    +0.000 OA
ATOM     18  H   UNL     1      -0.780  14.326  18.156  0.00  0.00    +0.000 HD
ENDBRANCH  16  17
ENDBRANCH  11  16
BRANCH  13  19
ATOM     19  C   UNL     1       2.353   7.701  18.402  0.00  0.00    +0.000 C 
BRANCH  19  20
ATOM     20  C   UNL     1       1.880   6.276  18.328  0.00  0.00    +0.000 C 
ATOM     21  C   UNL     1       2.668   5.214  18.593  0.00  0.00    +0.000 C 
ATOM     22  C   UNL     1       2.192   3.834  18.351  0.00  0.00    +0.000 C 
ATOM     23  O   UNL     1       1.067   3.508  18.024  0.00  0.00    +0.000 OA
ATOM     24  O   UNL     1       3.222   2.972  18.573  0.00  0.00    +0.000 OA
ATOM     25  C   UNL     1       4.435   3.697  18.782  0.00  0.00    +0.000 C 
ATOM     26  C   UNL     1       4.063   5.123  19.132  0.00  0.00    +0.000 C 
BRANCH  26  27
ATOM     27  O   UNL     1       4.957   6.051  18.526  0.00  0.00    +0.000 OA
BRANCH  27  28
ATOM     28  C   UNL     1       5.565   5.744  17.334  0.00  0.00    +0.000 A 
ATOM     29  C   UNL     1       4.884   5.530  16.131  0.00  0.00    +0.000 A 
ATOM     30  C   UNL     1       5.581   5.143  14.982  0.00  0.00    +0.000 A 
ATOM     31  C   UNL     1       6.952   4.982  15.051  0.00  0.00    +0.000 A 
ATOM     32  N   UNL     1       7.658   5.196  16.176  0.00  0.00    +0.000 NA
ATOM     33  C   UNL     1       6.963   5.587  17.294  0.00  0.00    +0.000 A 
BRANCH  33  34
ATOM     34  N   UNL     1       7.699   5.863  18.538  0.00  0.00    +0.000 N 
ATOM     35  O   UNL     1       7.761   4.957  19.383  0.00  0.00    +0.000 OA
ATOM     36  O   UNL     1       8.176   7.002  18.666  0.00  0.00    +0.000 OA
ENDBRANCH  33  34
ENDBRANCH  27  28
ENDBRANCH  26  27
ENDBRANCH  19  20
ENDBRANCH  13  19
TORSDOF 8
ENDMDL
MODEL 6
REMARK VINA RESULT:      -7.3      1.063      1.410
REMARK  Name = 
REMARK  10 active torsions:
REMARK  status: ('A' for Active; 'I' for Inactive)
REMARK    1  A    between atoms: C_6  and  C_7
REMARK    2  A    between atoms: C_10  and  O_11
REMARK    3  A    between atoms: C_12  and  C_13
REMARK    4  A    between atoms: C_12  and  C_14
REMARK    5  A    between atoms: C_14  and  O_15
REMARK    6  A    between atoms: C_16  and  C_17
REMARK    7  A    between atoms: C_17  and  C_18
REMARK    8  A    between atoms: C_24  and  O_25
REMARK    9  A    between atoms: O_25  and  C_26
REMARK   10  A    between atoms: C_31  and  N_32
REMARK                            x       y       z     vdW  Elec       q    Type
REMARK                         _______ _______ _______ _____ _____    ______ ____
ROOT
ATOM      1  C   UNL     1       3.425   7.775  17.097  0.00  0.00    +0.000 C 
ATOM      2  C   UNL     1       3.760   6.939  18.096  0.00  0.00    +0.000 C 
ATOM      3  C   UNL     1       4.893   5.948  17.917  0.00  0.00    +0.000 C 
ATOM      4  C   UNL     1       4.464   4.477  18.112  0.00  0.00    +0.000 C 
ATOM      5  C   UNL     1       3.623   4.251  19.386  0.00  0.00    +0.000 C 
ATOM      6  C   UNL     1       2.449   5.287  19.500  0.00  0.00    +0.000 C 
ATOM      7  C   UNL     1       1.438   5.146  18.320  0.00  0.00    +0.000 C 
ATOM      8  C   UNL     1       1.764   5.107  20.894  0.00  0.00    +0.000 C 
ATOM      9  C   UNL     1       1.636   3.719  21.509  0.00  0.00    +0.000 C 
ATOM     10  C   UNL     1       2.801   2.770  21.236  0.00  0.00    +0.000 C 
ATOM     11  C   UNL     1       3.190   2.743  19.729  0.00  0.00    +0.000 C 
ATOM     12  C   UNL     1       4.369   1.764  19.519  0.00  0.00    +0.000 C 
ATOM     13  C   UNL     1       3.005   6.795  19.419  0.00  0.00    +0.000 C 
ENDROOT
BRANCH  10  14
ATOM     14  O   UNL     1       2.472   1.473  21.740  0.00  0.00    +0.000 OA
ATOM     15  H   UNL     1       2.676   0.806  21.056  0.00  0.00    +0.000 HD
ENDBRANCH  10  14
BRANCH  11  16
ATOM     16  C   UNL     1       1.996   2.116  18.956  0.00  0.00    +0.000 C 
BRANCH  16  17
ATOM     17  O   UNL     1       2.333   1.764  17.623  0.00  0.00    +0.000 OA
ATOM     18  H   UNL     1       1.670   1.113  17.332  0.00  0.00    +0.000 HD
ENDBRANCH  16  17
ENDBRANCH  11  16
BRANCH  13  19
ATOM     19  C   UNL     1       1.820   7.789  19.702  0.00  0.00    +0.000 C 
BRANCH  19  20
ATOM     20  C   UNL     1       1.509   8.302  21.080  0.00  0.00    +0.000 C 
ATOM     21  C   UNL     1       0.507   9.165  21.346  0.00  0.00    +0.000 C 
ATOM     22  C   UNL     1       0.348   9.754  22.694  0.00  0.00    +0.000 C 
ATOM     23  O   UNL     1       0.983   9.459  23.688  0.00  0.00    +0.000 OA
ATOM     24  O   UNL     1      -0.647  10.682  22.650  0.00  0.00    +0.000 OA
ATOM     25  C   UNL     1      -1.064  10.893  21.300  0.00  0.00    +0.000 C 
ATOM     26  C   UNL     1      -0.589   9.710  20.483  0.00  0.00    +0.000 C 
BRANCH  26  27
ATOM     27  O   UNL     1      -0.134  10.123  19.198  0.00  0.00    +0.000 OA
BRANCH  27  28
ATOM     28  C   UNL     1       0.254  11.424  18.989  0.00  0.00    +0.000 A 
ATOM     29  C   UNL     1       1.498  11.947  19.354  0.00  0.00    +0.000 A 
ATOM     30  C   UNL     1       1.777  13.305  19.175  0.00  0.00    +0.000 A 
ATOM     31  C   UNL     1       0.806  14.122  18.626  0.00  0.00    +0.000 A 
ATOM     32  N   UNL     1      -0.399  13.667  18.238  0.00  0.00    +0.000 NA
ATOM     33  C   UNL     1      -0.655  12.329  18.409  0.00  0.00    +0.000 A 
BRANCH  33  34
ATOM     34  N   UNL     1      -1.948  11.782  17.969  0.00  0.00    +0.000 N 
ATOM     35  O   UNL     1      -1.988  11.214  16.866  0.00  0.00    +0.000 OA
ATOM     36  O   UNL     1      -2.918  11.962  18.722  0.00  0.00    +0.000 OA
ENDBRANCH  33  34
ENDBRANCH  27  28
ENDBRANCH  26  27
ENDBRANCH  19  20
ENDBRANCH  13  19
TORSDOF 8
ENDMDL
MODEL 7
REMARK VINA RESULT:      -7.2      2.094      3.402
REMARK  Name = 
REMARK  10 active torsions:
REMARK  status: ('A' for Active; 'I' for Inactive)
REMARK    1  A    between atoms: C_6  and  C_7
REMARK    2  A    between atoms: C_10  and  O_11
REMARK    3  A    between atoms: C_12  and  C_13
REMARK    4  A    between atoms: C_12  and  C_14
REMARK    5  A    between atoms: C_14  and  O_15
REMARK    6  A    between atoms: C_16  and  C_17
REMARK    7  A    between atoms: C_17  and  C_18
REMARK    8  A    between atoms: C_24  and  O_25
REMARK    9  A    between atoms: O_25  and  C_26
REMARK   10  A    between atoms: C_31  and  N_32
REMARK                            x       y       z     vdW  Elec       q    Type
REMARK                         _______ _______ _______ _____ _____    ______ ____
ROOT
ATOM      1  C   UNL     1       1.355   5.198  20.475  0.00  0.00    +0.000 C 
ATOM      2  C   UNL     1       1.776   5.078  19.203  0.00  0.00    +0.000 C 
ATOM      3  C   UNL     1       2.009   3.708  18.600  0.00  0.00    +0.000 C 
ATOM      4  C   UNL     1       3.452   3.493  18.090  0.00  0.00    +0.000 C 
ATOM      5  C   UNL     1       3.972   4.661  17.225  0.00  0.00    +0.000 C 
ATOM      6  C   UNL     1       3.729   6.050  17.914  0.00  0.00    +0.000 C 
ATOM      7  C   UNL     1       4.508   6.170  19.262  0.00  0.00    +0.000 C 
ATOM      8  C   UNL     1       4.115   7.179  16.904  0.00  0.00    +0.000 C 
ATOM      9  C   UNL     1       5.285   6.982  15.948  0.00  0.00    +0.000 C 
ATOM     10  C   UNL     1       5.475   5.559  15.428  0.00  0.00    +0.000 C 
ATOM     11  C   UNL     1       5.433   4.508  16.576  0.00  0.00    +0.000 C 
ATOM     12  C   UNL     1       5.635   3.092  15.987  0.00  0.00    +0.000 C 
ATOM     13  C   UNL     1       2.176   6.240  18.291  0.00  0.00    +0.000 C 
ENDROOT
BRANCH  10  14
ATOM     14  O   UNL     1       6.688   5.497  14.674  0.00  0.00    +0.000 OA
ATOM     15  H   UNL     1       6.505   5.774  13.756  0.00  0.00    +0.000 HD
ENDBRANCH  10  14
BRANCH  11  16
ATOM     16  C   UNL     1       6.677   4.758  17.474  0.00  0.00    +0.000 C 
BRANCH  16  17
ATOM     17  O   UNL     1       7.854   4.160  16.955  0.00  0.00    +0.000 OA
ATOM     18  H   UNL     1       7.564   3.470  16.333  0.00  0.00    +0.000 HD
ENDBRANCH  16  17
ENDBRANCH  11  16
BRANCH  13  19
ATOM     19  C   UNL     1       1.958   7.703  18.825  0.00  0.00    +0.000 C 
BRANCH  19  20
ATOM     20  C   UNL     1       1.955   8.034  20.292  0.00  0.00    +0.000 C 
ATOM     21  C   UNL     1       1.105   8.916  20.855  0.00  0.00    +0.000 C 
ATOM     22  C   UNL     1       1.254   9.317  22.273  0.00  0.00    +0.000 C 
ATOM     23  O   UNL     1       2.030   8.840  23.078  0.00  0.00    +0.000 OA
ATOM     24  O   UNL     1       0.359  10.307  22.541  0.00  0.00    +0.000 OA
ATOM     25  C   UNL     1      -0.278  10.737  21.337  0.00  0.00    +0.000 C 
ATOM     26  C   UNL     1      -0.075   9.653  20.299  0.00  0.00    +0.000 C 
BRANCH  26  27
ATOM     27  O   UNL     1       0.173  10.213  19.013  0.00  0.00    +0.000 OA
BRANCH  27  28
ATOM     28  C   UNL     1      -0.863  10.401  18.132  0.00  0.00    +0.000 A 
ATOM     29  C   UNL     1      -1.504   9.374  17.434  0.00  0.00    +0.000 A 
ATOM     30  C   UNL     1      -2.499   9.668  16.496  0.00  0.00    +0.000 A 
ATOM     31  C   UNL     1      -2.842  10.988  16.273  0.00  0.00    +0.000 A 
ATOM     32  N   UNL     1      -2.273  12.013  16.933  0.00  0.00    +0.000 NA
ATOM     33  C   UNL     1      -1.307  11.709  17.861  0.00  0.00    +0.000 A 
BRANCH  33  34
ATOM     34  N   UNL     1      -0.680  12.797  18.628  0.00  0.00    +0.000 N 
ATOM     35  O   UNL     1      -1.334  13.298  19.557  0.00  0.00    +0.000 OA
ATOM     36  O   UNL     1       0.450  13.160  18.266  0.00  0.00    +0.000 OA
ENDBRANCH  33  34
ENDBRANCH  27  28
ENDBRANCH  26  27
ENDBRANCH  19  20
ENDBRANCH  13  19
TORSDOF 8
ENDMDL
MODEL 8
REMARK VINA RESULT:      -7.1      1.598      2.240
REMARK  Name = 
REMARK  10 active torsions:
REMARK  status: ('A' for Active; 'I' for Inactive)
REMARK    1  A    between atoms: C_6  and  C_7
REMARK    2  A    between atoms: C_10  and  O_11
REMARK    3  A    between atoms: C_12  and  C_13
REMARK    4  A    between atoms: C_12  and  C_14
REMARK    5  A    between atoms: C_14  and  O_15
REMARK    6  A    between atoms: C_16  and  C_17
REMARK    7  A    between atoms: C_17  and  C_18
REMARK    8  A    between atoms: C_24  and  O_25
REMARK    9  A    between atoms: O_25  and  C_26
REMARK   10  A    between atoms: C_31  and  N_32
REMARK                            x       y       z     vdW  Elec       q    Type
REMARK                         _______ _______ _______ _____ _____    ______ ____
ROOT
ATOM      1  C   UNL     1       2.874   8.105  17.247  0.00  0.00    +0.000 C 
ATOM      2  C   UNL     1       3.364   7.255  18.167  0.00  0.00    +0.000 C 
ATOM      3  C   UNL     1       4.554   6.375  17.839  0.00  0.00    +0.000 C 
ATOM      4  C   UNL     1       4.266   4.865  17.990  0.00  0.00    +0.000 C 
ATOM      5  C   UNL     1       3.564   4.508  19.318  0.00  0.00    +0.000 C 
ATOM      6  C   UNL     1       2.324   5.433  19.588  0.00  0.00    +0.000 C 
ATOM      7  C   UNL     1       1.226   5.261  18.493  0.00  0.00    +0.000 C 
ATOM      8  C   UNL     1       1.784   5.130  21.023  0.00  0.00    +0.000 C 
ATOM      9  C   UNL     1       1.825   3.710  21.571  0.00  0.00    +0.000 C 
ATOM     10  C   UNL     1       3.034   2.878  21.149  0.00  0.00    +0.000 C 
ATOM     11  C   UNL     1       3.288   2.955  19.615  0.00  0.00    +0.000 C 
ATOM     12  C   UNL     1       4.519   2.091  19.252  0.00  0.00    +0.000 C 
ATOM     13  C   UNL     1       2.746   6.986  19.541  0.00  0.00    +0.000 C 
ENDROOT
BRANCH  10  14
ATOM     14  O   UNL     1       2.859   1.535  21.608  0.00  0.00    +0.000 OA
ATOM     15  H   UNL     1       3.410   1.397  22.402  0.00  0.00    +0.000 HD
ENDBRANCH  10  14
BRANCH  11  16
ATOM     16  C   UNL     1       2.084   2.264  18.914  0.00  0.00    +0.000 C 
BRANCH  16  17
ATOM     17  O   UNL     1       2.422   1.738  17.640  0.00  0.00    +0.000 OA
ATOM     18  H   UNL     1       3.277   2.134  17.395  0.00  0.00    +0.000 HD
ENDBRANCH  16  17
ENDBRANCH  11  16
BRANCH  13  19
ATOM     19  C   UNL     1       1.514   7.860  19.977  0.00  0.00    +0.000 C 
BRANCH  19  20
ATOM     20  C   UNL     1       1.303   8.306  21.397  0.00  0.00    +0.000 C 
ATOM     21  C   UNL     1       0.427   9.266  21.755  0.00  0.00    +0.000 C 
ATOM     22  C   UNL     1       0.377   9.770  23.146  0.00  0.00    +0.000 C 
ATOM     23  O   UNL     1       0.992   9.325  24.096  0.00  0.00    +0.000 OA
ATOM     24  O   UNL     1      -0.493  10.816  23.199  0.00  0.00    +0.000 OA
ATOM     25  C   UNL     1      -0.912  11.176  21.882  0.00  0.00    +0.000 C 
ATOM     26  C   UNL     1      -0.611  10.006  20.969  0.00  0.00    +0.000 C 
BRANCH  26  27
ATOM     27  O   UNL     1      -0.138  10.452  19.702  0.00  0.00    +0.000 OA
BRANCH  27  28
ATOM     28  C   UNL     1      -1.008  10.583  18.648  0.00  0.00    +0.000 A 
ATOM     29  C   UNL     1      -1.736   9.530  18.087  0.00  0.00    +0.000 A 
ATOM     30  C   UNL     1      -2.540   9.743  16.963  0.00  0.00    +0.000 A 
ATOM     31  C   UNL     1      -2.609  11.012  16.418  0.00  0.00    +0.000 A 
ATOM     32  N   UNL     1      -1.947  12.065  16.931  0.00  0.00    +0.000 NA
ATOM     33  C   UNL     1      -1.171  11.844  18.042  0.00  0.00    +0.000 A 
BRANCH  33  34
ATOM     34  N   UNL     1      -0.455  12.974  18.656  0.00  0.00    +0.000 N 
ATOM     35  O   UNL     1      -1.064  13.654  19.496  0.00  0.00    +0.000 OA
ATOM     36  O   UNL     1       0.702  13.186  18.258  0.00  0.00    +0.000 OA
ENDBRANCH  33  34
ENDBRANCH  27  28
ENDBRANCH  26  27
ENDBRANCH  19  20
ENDBRANCH  13  19
TORSDOF 8
ENDMDL
MODEL 9
REMARK VINA RESULT:      -7.0      3.410      8.472
REMARK  Name = 
REMARK  10 active torsions:
REMARK  status: ('A' for Active; 'I' for Inactive)
REMARK    1  A    between atoms: C_6  and  C_7
REMARK    2  A    between atoms: C_10  and  O_11
REMARK    3  A    between atoms: C_12  and  C_13
REMARK    4  A    between atoms: C_12  and  C_14
REMARK    5  A    between atoms: C_14  and  O_15
REMARK    6  A    between atoms: C_16  and  C_17
REMARK    7  A    between atoms: C_17  and  C_18
REMARK    8  A    between atoms: C_24  and  O_25
REMARK    9  A    between atoms: O_25  and  C_26
REMARK   10  A    between atoms: C_31  and  N_32
REMARK                            x       y       z     vdW  Elec       q    Type
REMARK                         _______ _______ _______ _____ _____    ______ ____
ROOT
ATOM      1  C   UNL     1       2.495   8.589  17.567  0.00  0.00    +0.000 C 
ATOM      2  C   UNL     1       1.349   8.770  18.247  0.00  0.00    +0.000 C 
ATOM      3  C   UNL     1       0.273   9.687  17.701  0.00  0.00    +0.000 C 
ATOM      4  C   UNL     1      -0.096  10.845  18.656  0.00  0.00    +0.000 C 
ATOM      5  C   UNL     1      -0.337  10.383  20.109  0.00  0.00    +0.000 C 
ATOM      6  C   UNL     1       0.824   9.462  20.627  0.00  0.00    +0.000 C 
ATOM      7  C   UNL     1       2.188  10.219  20.666  0.00  0.00    +0.000 C 
ATOM      8  C   UNL     1       0.419   8.896  22.027  0.00  0.00    +0.000 C 
ATOM      9  C   UNL     1      -0.380   9.756  22.997  0.00  0.00    +0.000 C 
ATOM     10  C   UNL     1      -1.407  10.686  22.357  0.00  0.00    +0.000 C 
ATOM     11  C   UNL     1      -0.804  11.493  21.171  0.00  0.00    +0.000 C 
ATOM     12  C   UNL     1      -1.890  12.416  20.569  0.00  0.00    +0.000 C 
ATOM     13  C   UNL     1       1.049   8.211  19.640  0.00  0.00    +0.000 C 
ENDROOT
BRANCH  10  14
ATOM     14  O   UNL     1      -1.964  11.531  23.367  0.00  0.00    +0.000 OA
ATOM     15  H   UNL     1      -2.843  11.838  23.075  0.00  0.00    +0.000 HD
ENDBRANCH  10  14
BRANCH  11  16
ATOM     16  C   UNL     1       0.266  12.453  21.764  0.00  0.00    +0.000 C 
BRANCH  16  17
ATOM     17  O   UNL     1      -0.309  13.596  22.379  0.00  0.00    +0.000 OA
ATOM     18  H   UNL     1       0.073  13.652  23.273  0.00  0.00    +0.000 HD
ENDBRANCH  16  17
ENDBRANCH  11  16
BRANCH  13  19
ATOM     19  C   UNL     1       2.102   7.237  20.284  0.00  0.00    +0.000 C 
BRANCH  19  20
ATOM     20  C   UNL     1       1.801   5.790  20.557  0.00  0.00    +0.000 C 
ATOM     21  C   UNL     1       2.689   4.794  20.361  0.00  0.00    +0.000 C 
ATOM     22  C   UNL     1       2.285   3.377  20.498  0.00  0.00    +0.000 C 
ATOM     23  O   UNL     1       1.211   2.970  20.896  0.00  0.00    +0.000 OA
ATOM     24  O   UNL     1       3.328   2.588  20.119  0.00  0.00    +0.000 OA
ATOM     25  C   UNL     1       4.371   3.386  19.556  0.00  0.00    +0.000 C 
ATOM     26  C   UNL     1       4.142   4.816  19.997  0.00  0.00    +0.000 C 
BRANCH  26  27
ATOM     27  O   UNL     1       4.440   5.732  18.947  0.00  0.00    +0.000 OA
BRANCH  27  28
ATOM     28  C   UNL     1       5.062   5.291  17.805  0.00  0.00    +0.000 A 
ATOM     29  C   UNL     1       4.399   4.742  16.703  0.00  0.00    +0.000 A 
ATOM     30  C   UNL     1       5.123   4.247  15.615  0.00  0.00    +0.000 A 
ATOM     31  C   UNL     1       6.503   4.312  15.641  0.00  0.00    +0.000 A 
ATOM     32  N   UNL     1       7.191   4.850  16.665  0.00  0.00    +0.000 NA
ATOM     33  C   UNL     1       6.467   5.344  17.722  0.00  0.00    +0.000 A 
BRANCH  33  34
ATOM     34  N   UNL     1       7.177   5.969  18.850  0.00  0.00    +0.000 N 
ATOM     35  O   UNL     1       7.678   7.089  18.664  0.00  0.00    +0.000 OA
ATOM     36  O   UNL     1       7.253   5.310  19.899  0.00  0.00    +0.000 OA
ENDBRANCH  33  34
ENDBRANCH  27  28
ENDBRANCH  26  27
ENDBRANCH  19  20
ENDBRANCH  13  19
TORSDOF 8
ENDMDL
