MODEL 1
REMARK VINA RESULT:      -8.1      0.000      0.000
REMARK  Name = 
REMARK  14 active torsions:
REMARK  status: ('A' for Active; 'I' for Inactive)
REMARK    1  A    between atoms: C_1  and  N_2
REMARK    2  A    between atoms: N_2  and  C_3
REMARK    3  A    between atoms: N_2  and  C_19
REMARK    4  A    between atoms: C_3  and  C_4
REMARK    5  A    between atoms: C_4  and  C_5
REMARK    6  A    between atoms: C_5  and  C_6
REMARK    7  A    between atoms: C_6  and  C_7
REMARK    8  A    between atoms: C_6  and  C_13
REMARK    9  A    between atoms: C_19  and  C_20
REMARK   10  A    between atoms: C_19  and  C_23
REMARK   11  A    between atoms: C_20  and  C_21
REMARK   12  A    between atoms: C_21  and  O_22
REMARK   13  A    between atoms: N_25  and  C_26
REMARK   14  A    between atoms: C_26  and  C_27
REMARK                            x       y       z     vdW  Elec       q    Type
REMARK                         _______ _______ _______ _____ _____    ______ ____
ROOT
ATOM      1  C   UNL     1      -1.026  10.137  18.037  0.00  0.00    +0.000 C 
ATOM      2  N   UNL     1       0.004   9.675  18.975  0.00  0.00    +0.000 NA
ENDROOT
BRANCH   2   3
ATOM      3  C   UNL     1       1.347   9.992  18.439  0.00  0.00    +0.000 C 
BRANCH   3   4
ATOM      4  C   UNL     1       2.066   8.820  17.755  0.00  0.00    +0.000 C 
BRANCH   4   5
ATOM      5  C   UNL     1       2.468   7.754  18.771  0.00  0.00    +0.000 C 
BRANCH   5   6
ATOM      6  C   UNL     1       2.904   6.430  18.099  0.00  0.00    +0.000 C 
BRANCH   6   7
ATOM      7  C   UNL     1       4.417   6.234  18.102  0.00  0.00    +0.000 A 
ATOM      8  C   UNL     1       5.056   5.475  19.090  0.00  0.00    +0.000 A 
ATOM      9  C   UNL     1       6.445   5.327  19.077  0.00  0.00    +0.000 A 
ATOM     10  C   UNL     1       7.216   5.984  18.120  0.00  0.00    +0.000 A 
ATOM     11  C   UNL     1       6.595   6.730  17.126  0.00  0.00    +0.000 A 
ATOM     12  C   UNL     1       5.204   6.842  17.110  0.00  0.00    +0.000 A 
ENDBRANCH   6   7
BRANCH   6  13
ATOM     13  C   UNL     1       2.154   5.220  18.650  0.00  0.00    +0.000 A 
ATOM     14  C   UNL     1       1.794   5.204  20.005  0.00  0.00    +0.000 A 
ATOM     15  C   UNL     1       1.159   4.092  20.560  0.00  0.00    +0.000 A 
ATOM     16  C   UNL     1       0.871   2.983  19.767  0.00  0.00    +0.000 A 
ATOM     17  C   UNL     1       1.201   2.994  18.415  0.00  0.00    +0.000 A 
ATOM     18  C   UNL     1       1.828   4.107  17.858  0.00  0.00    +0.000 A 
ENDBRANCH   6  13
ENDBRANCH   5   6
ENDBRANCH   4   5
ENDBRANCH   3   4
ENDBRANCH   2   3
BRANCH   2  19
ATOM     19  C   UNL     1      -0.214  10.230  20.340  0.00  0.00    +0.000 C 
BRANCH  19  20
ATOM     20  C   UNL     1       0.282  11.699  20.468  0.00  0.00    +0.000 C 
ATOM     21  O   UNL     1       1.458  12.038  20.424  0.00  0.00    +0.000 OA
ATOM     22  N   UNL     1      -0.668  12.664  20.702  0.00  0.00    +0.000 N 
ATOM     23  H   UNL     1      -0.295  13.601  20.785  0.00  0.00    +0.000 HD
BRANCH  22  24
ATOM     24  C   UNL     1      -2.096  12.461  20.757  0.00  0.00    +0.000 C 
BRANCH  24  25
ATOM     25  C   UNL     1      -2.710  13.045  21.985  0.00  0.00    +0.000 A 
ATOM     26  C   UNL     1      -1.855  13.606  22.937  0.00  0.00    +0.000 A 
ATOM     27  C   UNL     1      -2.336  14.217  24.086  0.00  0.00    +0.000 A 
ATOM     28  C   UNL     1      -3.707  14.226  24.335  0.00  0.00    +0.000 A 
ATOM     29  C   UNL     1      -4.574  13.638  23.409  0.00  0.00    +0.000 A 
ATOM     30  C   UNL     1      -4.089  13.054  22.239  0.00  0.00    +0.000 A 
ATOM     31 CL   UNL     1      -5.217  12.361  21.136  0.00  0.00    +0.000 Cl
ENDBRANCH  24  25
ENDBRANCH  22  24
ENDBRANCH  19  20
BRANCH  19  32
ATOM     32  C   UNL     1       0.391   9.427  21.508  0.00  0.00    +0.000 C 
BRANCH  32  33
ATOM     33  C   UNL     1      -0.406   9.462  22.800  0.00  0.00    +0.000 C 
BRANCH  33  34
ATOM     34  O   UNL     1       0.507   9.651  23.882  0.00  0.00    +0.000 OA
ATOM     35  H   UNL     1       0.203   9.085  24.615  0.00  0.00    +0.000 HD
ENDBRANCH  33  34
ENDBRANCH  32  33
ENDBRANCH  19  32
ENDBRANCH   2  19
TORSDOF 13
ENDMDL
MODEL 2
REMARK VINA RESULT:      -8.0      3.356      5.484
REMARK  Name = 
REMARK  14 active torsions:
REMARK  status: ('A' for Active; 'I' for Inactive)
REMARK    1  A    between atoms: C_1  and  N_2
REMARK    2  A    between atoms: N_2  and  C_3
REMARK    3  A    between atoms: N_2  and  C_19
REMARK    4  A    between atoms: C_3  and  C_4
REMARK    5  A    between atoms: C_4  and  C_5
REMARK    6  A    between atoms: C_5  and  C_6
REMARK    7  A    between atoms: C_6  and  C_7
REMARK    8  A    between atoms: C_6  and  C_13
REMARK    9  A    between atoms: C_19  and  C_20
REMARK   10  A    between atoms: C_19  and  C_23
REMARK   11  A    between atoms: C_20  and  C_21
REMARK   12  A    between atoms: C_21  and  O_22
REMARK   13  A    between atoms: N_25  and  C_26
REMARK   14  A    between atoms: C_26  and  C_27
REMARK                            x       y       z     vdW  Elec       q    Type
REMARK                         _______ _______ _______ _____ _____    ______ ____
ROOT
ATOM      1  C   UNL     1       0.657   9.049  20.337  0.00  0.00    +0.000 C 
ATOM      2  N   UNL     1       1.337  10.020  19.472  0.00  0.00    +0.000 NA
ENDROOT
BRANCH   2   3
ATOM      3  C   UNL     1       1.519   9.444  18.120  0.00  0.00    +0.000 C 
BRANCH   3   4
ATOM      4  C   UNL     1       1.831   7.940  18.092  0.00  0.00    +0.000 C 
BRANCH   4   5
ATOM      5  C   UNL     1       3.259   7.684  17.620  0.00  0.00    +0.000 C 
BRANCH   5   6
ATOM      6  C   UNL     1       3.898   6.451  18.305  0.00  0.00    +0.000 C 
BRANCH   6   7
ATOM      7  C   UNL     1       2.863   5.438  18.785  0.00  0.00    +0.000 A 
ATOM      8  C   UNL     1       2.265   4.529  17.904  0.00  0.00    +0.000 A 
ATOM      9  C   UNL     1       1.308   3.624  18.368  0.00  0.00    +0.000 A 
ATOM     10  C   UNL     1       0.891   3.656  19.698  0.00  0.00    +0.000 A 
ATOM     11  C   UNL     1       1.485   4.545  20.586  0.00  0.00    +0.000 A 
ATOM     12  C   UNL     1       2.475   5.419  20.134  0.00  0.00    +0.000 A 
ENDBRANCH   6   7
BRANCH   6  13
ATOM     13  C   UNL     1       4.996   5.814  17.457  0.00  0.00    +0.000 A 
ATOM     14  C   UNL     1       6.051   5.150  18.100  0.00  0.00    +0.000 A 
ATOM     15  C   UNL     1       7.103   4.606  17.363  0.00  0.00    +0.000 A 
ATOM     16  C   UNL     1       7.113   4.712  15.974  0.00  0.00    +0.000 A 
ATOM     17  C   UNL     1       6.061   5.347  15.321  0.00  0.00    +0.000 A 
ATOM     18  C   UNL     1       5.006   5.885  16.055  0.00  0.00    +0.000 A 
ENDBRANCH   6  13
ENDBRANCH   5   6
ENDBRANCH   4   5
ENDBRANCH   3   4
ENDBRANCH   2   3
BRANCH   2  19
ATOM     19  C   UNL     1       0.618  11.325  19.446  0.00  0.00    +0.000 C 
BRANCH  19  20
ATOM     20  C   UNL     1       1.002  12.236  20.648  0.00  0.00    +0.000 C 
ATOM     21  O   UNL     1       0.510  12.148  21.766  0.00  0.00    +0.000 OA
ATOM     22  N   UNL     1       1.911  13.238  20.410  0.00  0.00    +0.000 N 
ATOM     23  H   UNL     1       2.121  13.808  21.220  0.00  0.00    +0.000 HD
BRANCH  22  24
ATOM     24  C   UNL     1       2.613  13.479  19.172  0.00  0.00    +0.000 C 
BRANCH  24  25
ATOM     25  C   UNL     1       2.358  14.844  18.625  0.00  0.00    +0.000 A 
ATOM     26  C   UNL     1       1.084  15.389  18.803  0.00  0.00    +0.000 A 
ATOM     27  C   UNL     1       0.767  16.669  18.373  0.00  0.00    +0.000 A 
ATOM     28  C   UNL     1       1.723  17.421  17.694  0.00  0.00    +0.000 A 
ATOM     29  C   UNL     1       2.993  16.877  17.478  0.00  0.00    +0.000 A 
ATOM     30  C   UNL     1       3.318  15.601  17.940  0.00  0.00    +0.000 A 
ATOM     31 CL   UNL     1       4.907  15.001  17.650  0.00  0.00    +0.000 Cl
ENDBRANCH  24  25
ENDBRANCH  22  24
ENDBRANCH  19  20
BRANCH  19  32
ATOM     32  C   UNL     1      -0.919  11.257  19.381  0.00  0.00    +0.000 C 
BRANCH  32  33
ATOM     33  C   UNL     1      -1.524  11.548  18.018  0.00  0.00    +0.000 C 
BRANCH  33  34
ATOM     34  O   UNL     1      -1.071  12.836  17.596  0.00  0.00    +0.000 OA
ATOM     35  H   UNL     1      -0.329  13.083  18.178  0.00  0.00    +0.000 HD
ENDBRANCH  33  34
ENDBRANCH  32  33
ENDBRANCH  19  32
ENDBRANCH   2  19
TORSDOF 13
ENDMDL
MODEL 3
REMARK VINA RESULT:      -8.0      1.888      4.157
REMARK  Name = 
REMARK  14 active torsions:
REMARK  status: ('A' for Active; 'I' for Inactive)
REMARK    1  A    between atoms: C_1  and  N_2
REMARK    2  A    between atoms: N_2  and  C_3
REMARK    3  A    between atoms: N_2  and  C_19
REMARK    4  A    between atoms: C_3  and  C_4
REMARK    5  A    between atoms: C_4  and  C_5
REMARK    6  A    between atoms: C_5  and  C_6
REMARK    7  A    between atoms: C_6  and  C_7
REMARK    8  A    between atoms: C_6  and  C_13
REMARK    9  A    between atoms: C_19  and  C_20
REMARK   10  A    between atoms: C_19  and  C_23
REMARK   11  A    between atoms: C_20  and  C_21
REMARK   12  A    between atoms: C_21  and  O_22
REMARK   13  A    between atoms: N_25  and  C_26
REMARK   14  A    between atoms: C_26  and  C_27
REMARK                            x       y       z     vdW  Elec       q    Type
REMARK                         _______ _______ _______ _____ _____    ______ ____
ROOT
ATOM      1  C   UNL     1       1.027   8.514  20.944  0.00  0.00    +0.000 C 
ATOM      2  N   UNL     1       1.076   9.730  20.124  0.00  0.00    +0.000 NA
ENDROOT
BRANCH   2   3
ATOM      3  C   UNL     1       1.037   9.367  18.689  0.00  0.00    +0.000 C 
BRANCH   3   4
ATOM      4  C   UNL     1       2.373   8.884  18.105  0.00  0.00    +0.000 C 
BRANCH   4   5
ATOM      5  C   UNL     1       2.284   7.425  17.663  0.00  0.00    +0.000 C 
BRANCH   5   6
ATOM      6  C   UNL     1       3.068   6.474  18.599  0.00  0.00    +0.000 C 
BRANCH   6   7
ATOM      7  C   UNL     1       2.257   5.250  19.014  0.00  0.00    +0.000 A 
ATOM      8  C   UNL     1       1.906   5.022  20.349  0.00  0.00    +0.000 A 
ATOM      9  C   UNL     1       1.178   3.883  20.702  0.00  0.00    +0.000 A 
ATOM     10  C   UNL     1       0.847   2.930  19.741  0.00  0.00    +0.000 A 
ATOM     11  C   UNL     1       1.179   3.150  18.409  0.00  0.00    +0.000 A 
ATOM     12  C   UNL     1       1.867   4.309  18.047  0.00  0.00    +0.000 A 
ENDBRANCH   6   7
BRANCH   6  13
ATOM     13  C   UNL     1       4.442   6.109  18.045  0.00  0.00    +0.000 A 
ATOM     14  C   UNL     1       5.374   5.492  18.892  0.00  0.00    +0.000 A 
ATOM     15  C   UNL     1       6.661   5.197  18.440  0.00  0.00    +0.000 A 
ATOM     16  C   UNL     1       7.032   5.508  17.133  0.00  0.00    +0.000 A 
ATOM     17  C   UNL     1       6.110   6.098  16.274  0.00  0.00    +0.000 A 
ATOM     18  C   UNL     1       4.823   6.387  16.722  0.00  0.00    +0.000 A 
ENDBRANCH   6  13
ENDBRANCH   5   6
ENDBRANCH   4   5
ENDBRANCH   3   4
ENDBRANCH   2   3
BRANCH   2  19
ATOM     19  C   UNL     1      -0.002  10.687  20.502  0.00  0.00    +0.000 C 
BRANCH  19  20
ATOM     20  C   UNL     1      -0.104  11.883  19.513  0.00  0.00    +0.000 C 
ATOM     21  O   UNL     1       0.735  12.770  19.411  0.00  0.00    +0.000 OA
ATOM     22  N   UNL     1      -1.243  11.971  18.750  0.00  0.00    +0.000 N 
ATOM     23  H   UNL     1      -1.266  12.770  18.129  0.00  0.00    +0.000 HD
BRANCH  22  24
ATOM     24  C   UNL     1      -2.322  11.013  18.712  0.00  0.00    +0.000 C 
BRANCH  24  25
ATOM     25  C   UNL     1      -3.654  11.658  18.515  0.00  0.00    +0.000 A 
ATOM     26  C   UNL     1      -4.264  11.523  17.266  0.00  0.00    +0.000 A 
ATOM     27  C   UNL     1      -5.523  12.044  17.004  0.00  0.00    +0.000 A 
ATOM     28  C   UNL     1      -6.182  12.773  17.991  0.00  0.00    +0.000 A 
ATOM     29  C   UNL     1      -5.570  12.947  19.237  0.00  0.00    +0.000 A 
ATOM     30  C   UNL     1      -4.318  12.393  19.507  0.00  0.00    +0.000 A 
ATOM     31 CL   UNL     1      -3.631  12.635  21.069  0.00  0.00    +0.000 Cl
ENDBRANCH  24  25
ENDBRANCH  22  24
ENDBRANCH  19  20
BRANCH  19  32
ATOM     32  C   UNL     1       0.066  11.262  21.929  0.00  0.00    +0.000 C 
BRANCH  32  33
ATOM     33  C   UNL     1      -1.121  10.931  22.818  0.00  0.00    +0.000 C 
BRANCH  33  34
ATOM     34  O   UNL     1      -0.884   9.658  23.422  0.00  0.00    +0.000 OA
ATOM     35  H   UNL     1      -1.539   9.554  24.136  0.00  0.00    +0.000 HD
ENDBRANCH  33  34
ENDBRANCH  32  33
ENDBRANCH  19  32
ENDBRANCH   2  19
TORSDOF 13
ENDMDL
MODEL 4
REMARK VINA RESULT:      -8.0      2.304      4.668
REMARK  Name = 
REMARK  14 active torsions:
REMARK  status: ('A' for Active; 'I' for Inactive)
REMARK    1  A    between atoms: C_1  and  N_2
REMARK    2  A    between atoms: N_2  and  C_3
REMARK    3  A    between atoms: N_2  and  C_19
REMARK    4  A    between atoms: C_3  and  C_4
REMARK    5  A    between atoms: C_4  and  C_5
REMARK    6  A    between atoms: C_5  and  C_6
REMARK    7  A    between atoms: C_6  and  C_7
REMARK    8  A    between atoms: C_6  and  C_13
REMARK    9  A    between atoms: C_19  and  C_20
REMARK   10  A    between atoms: C_19  and  C_23
REMARK   11  A    between atoms: C_20  and  C_21
REMARK   12  A    between atoms: C_21  and  O_22
REMARK   13  A    between atoms: N_25  and  C_26
REMARK   14  A    between atoms: C_26  and  C_27
REMARK                            x       y       z     vdW  Elec       q    Type
REMARK                         _______ _______ _______ _____ _____    ______ ____
ROOT
ATOM      1  C   UNL     1       1.281   9.253  22.140  0.00  0.00    +0.000 C 
ATOM      2  N   UNL     1       1.329   9.542  20.702  0.00  0.00    +0.000 NA
ENDROOT
BRANCH   2   3
ATOM      3  C   UNL     1       1.590   8.294  19.949  0.00  0.00    +0.000 C 
BRANCH   3   4
ATOM      4  C   UNL     1       2.142   8.495  18.530  0.00  0.00    +0.000 C 
BRANCH   4   5
ATOM      5  C   UNL     1       2.347   7.156  17.826  0.00  0.00    +0.000 C 
BRANCH   5   6
ATOM      6  C   UNL     1       3.180   6.164  18.673  0.00  0.00    +0.000 C 
BRANCH   6   7
ATOM      7  C   UNL     1       2.383   4.935  19.100  0.00  0.00    +0.000 A 
ATOM      8  C   UNL     1       1.841   4.050  18.160  0.00  0.00    +0.000 A 
ATOM      9  C   UNL     1       1.101   2.942  18.579  0.00  0.00    +0.000 A 
ATOM     10  C   UNL     1       0.839   2.740  19.933  0.00  0.00    +0.000 A 
ATOM     11  C   UNL     1       1.380   3.604  20.878  0.00  0.00    +0.000 A 
ATOM     12  C   UNL     1       2.158   4.685  20.463  0.00  0.00    +0.000 A 
ENDBRANCH   6   7
BRANCH   6  13
ATOM     13  C   UNL     1       4.508   5.802  18.012  0.00  0.00    +0.000 A 
ATOM     14  C   UNL     1       5.467   5.100  18.757  0.00  0.00    +0.000 A 
ATOM     15  C   UNL     1       6.715   4.803  18.208  0.00  0.00    +0.000 A 
ATOM     16  C   UNL     1       7.020   5.197  16.907  0.00  0.00    +0.000 A 
ATOM     17  C   UNL     1       6.069   5.873  16.148  0.00  0.00    +0.000 A 
ATOM     18  C   UNL     1       4.820   6.165  16.692  0.00  0.00    +0.000 A 
ENDBRANCH   6  13
ENDBRANCH   5   6
ENDBRANCH   4   5
ENDBRANCH   3   4
ENDBRANCH   2   3
BRANCH   2  19
ATOM     19  C   UNL     1       0.094  10.240  20.244  0.00  0.00    +0.000 C 
BRANCH  19  20
ATOM     20  C   UNL     1       0.387  11.300  19.144  0.00  0.00    +0.000 C 
ATOM     21  O   UNL     1       1.223  12.189  19.246  0.00  0.00    +0.000 OA
ATOM     22  N   UNL     1      -0.392  11.262  18.013  0.00  0.00    +0.000 N 
ATOM     23  H   UNL     1      -0.169  11.977  17.332  0.00  0.00    +0.000 HD
BRANCH  22  24
ATOM     24  C   UNL     1      -1.402  10.279  17.703  0.00  0.00    +0.000 C 
BRANCH  24  25
ATOM     25  C   UNL     1      -2.766  10.874  17.594  0.00  0.00    +0.000 A 
ATOM     26  C   UNL     1      -3.354  11.373  18.758  0.00  0.00    +0.000 A 
ATOM     27  C   UNL     1      -4.597  11.990  18.747  0.00  0.00    +0.000 A 
ATOM     28  C   UNL     1      -5.312  12.068  17.554  0.00  0.00    +0.000 A 
ATOM     29  C   UNL     1      -4.753  11.542  16.385  0.00  0.00    +0.000 A 
ATOM     30  C   UNL     1      -3.488  10.952  16.395  0.00  0.00    +0.000 A 
ATOM     31 CL   UNL     1      -2.855  10.339  14.914  0.00  0.00    +0.000 Cl
ENDBRANCH  24  25
ENDBRANCH  22  24
ENDBRANCH  19  20
BRANCH  19  32
ATOM     32  C   UNL     1      -0.752  10.918  21.338  0.00  0.00    +0.000 C 
BRANCH  32  33
ATOM     33  C   UNL     1      -0.768  12.437  21.296  0.00  0.00    +0.000 C 
BRANCH  33  34
ATOM     34  O   UNL     1       0.348  12.914  22.050  0.00  0.00    +0.000 OA
ATOM     35  H   UNL     1       0.053  13.716  22.521  0.00  0.00    +0.000 HD
ENDBRANCH  33  34
ENDBRANCH  32  33
ENDBRANCH  19  32
ENDBRANCH   2  19
TORSDOF 13
ENDMDL
MODEL 5
REMARK VINA RESULT:      -7.9      2.276      3.098
REMARK  Name = 
REMARK  14 active torsions:
REMARK  status: ('A' for Active; 'I' for Inactive)
REMARK    1  A    between atoms: C_1  and  N_2
REMARK    2  A    between atoms: N_2  and  C_3
REMARK    3  A    between atoms: N_2  and  C_19
REMARK    4  A    between atoms: C_3  and  C_4
REMARK    5  A    between atoms: C_4  and  C_5
REMARK    6  A    between atoms: C_5  and  C_6
REMARK    7  A    between atoms: C_6  and  C_7
REMARK    8  A    between atoms: C_6  and  C_13
REMARK    9  A    between atoms: C_19  and  C_20
REMARK   10  A    between atoms: C_19  and  C_23
REMARK   11  A    between atoms: C_20  and  C_21
REMARK   12  A    between atoms: C_21  and  O_22
REMARK   13  A    between atoms: N_25  and  C_26
REMARK   14  A    between atoms: C_26  and  C_27
REMARK                            x       y       z     vdW  Elec       q    Type
REMARK                         _______ _______ _______ _____ _____    ______ ____
ROOT
ATOM      1  C   UNL     1       1.285   8.236  20.751  0.00  0.00    +0.000 C 
ATOM      2  N   UNL     1       1.315   9.291  19.731  0.00  0.00    +0.000 NA
ENDROOT
BRANCH   2   3
ATOM      3  C   UNL     1       1.197   8.688  18.385  0.00  0.00    +0.000 C 
BRANCH   3   4
ATOM      4  C   UNL     1       2.532   8.404  17.681  0.00  0.00    +0.000 C 
BRANCH   4   5
ATOM      5  C   UNL     1       3.301   7.292  18.391  0.00  0.00    +0.000 C 
BRANCH   5   6
ATOM      6  C   UNL     1       3.210   5.939  17.645  0.00  0.00    +0.000 C 
BRANCH   6   7
ATOM      7  C   UNL     1       4.556   5.474  17.097  0.00  0.00    +0.000 A 
ATOM      8  C   UNL     1       4.677   4.291  16.358  0.00  0.00    +0.000 A 
ATOM      9  C   UNL     1       5.924   3.880  15.883  0.00  0.00    +0.000 A 
ATOM     10  C   UNL     1       7.072   4.608  16.192  0.00  0.00    +0.000 A 
ATOM     11  C   UNL     1       6.965   5.790  16.915  0.00  0.00    +0.000 A 
ATOM     12  C   UNL     1       5.714   6.226  17.351  0.00  0.00    +0.000 A 
ENDBRANCH   6   7
BRANCH   6  13
ATOM     13  C   UNL     1       2.506   4.863  18.468  0.00  0.00    +0.000 A 
ATOM     14  C   UNL     1       2.878   4.683  19.808  0.00  0.00    +0.000 A 
ATOM     15  C   UNL     1       2.300   3.672  20.577  0.00  0.00    +0.000 A 
ATOM     16  C   UNL     1       1.339   2.831  20.018  0.00  0.00    +0.000 A 
ATOM     17  C   UNL     1       0.943   3.014  18.697  0.00  0.00    +0.000 A 
ATOM     18  C   UNL     1       1.514   4.028  17.930  0.00  0.00    +0.000 A 
ENDBRANCH   6  13
ENDBRANCH   5   6
ENDBRANCH   4   5
ENDBRANCH   3   4
ENDBRANCH   2   3
BRANCH   2  19
ATOM     19  C   UNL     1       0.275  10.327  19.988  0.00  0.00    +0.000 C 
BRANCH  19  20
ATOM     20  C   UNL     1       0.316  11.478  18.941  0.00  0.00    +0.000 C 
ATOM     21  O   UNL     1       1.174  12.352  18.909  0.00  0.00    +0.000 OA
ATOM     22  N   UNL     1      -0.715  11.540  18.036  0.00  0.00    +0.000 N 
ATOM     23  H   UNL     1      -0.648  12.311  17.383  0.00  0.00    +0.000 HD
BRANCH  22  24
ATOM     24  C   UNL     1      -1.794  10.591  17.903  0.00  0.00    +0.000 C 
BRANCH  24  25
ATOM     25  C   UNL     1      -3.137  11.235  17.985  0.00  0.00    +0.000 A 
ATOM     26  C   UNL     1      -3.507  11.819  19.199  0.00  0.00    +0.000 A 
ATOM     27  C   UNL     1      -4.714  12.484  19.357  0.00  0.00    +0.000 A 
ATOM     28  C   UNL     1      -5.615  12.528  18.296  0.00  0.00    +0.000 A 
ATOM     29  C   UNL     1      -5.276  11.919  17.084  0.00  0.00    +0.000 A 
ATOM     30  C   UNL     1      -4.047  11.279  16.919  0.00  0.00    +0.000 A 
ATOM     31 CL   UNL     1      -3.690  10.562  15.393  0.00  0.00    +0.000 Cl
ENDBRANCH  24  25
ENDBRANCH  22  24
ENDBRANCH  19  20
BRANCH  19  32
ATOM     32  C   UNL     1       0.278  10.966  21.389  0.00  0.00    +0.000 C 
BRANCH  32  33
ATOM     33  C   UNL     1      -1.032  10.866  22.151  0.00  0.00    +0.000 C 
BRANCH  33  34
ATOM     34  O   UNL     1      -0.904   9.825  23.121  0.00  0.00    +0.000 OA
ATOM     35  H   UNL     1      -1.684   9.880  23.704  0.00  0.00    +0.000 HD
ENDBRANCH  33  34
ENDBRANCH  32  33
ENDBRANCH  19  32
ENDBRANCH   2  19
TORSDOF 13
ENDMDL
MODEL 6
REMARK VINA RESULT:      -7.9      2.459      4.934
REMARK  Name = 
REMARK  14 active torsions:
REMARK  status: ('A' for Active; 'I' for Inactive)
REMARK    1  A    between atoms: C_1  and  N_2
REMARK    2  A    between atoms: N_2  and  C_3
REMARK    3  A    between atoms: N_2  and  C_19
REMARK    4  A    between atoms: C_3  and  C_4
REMARK    5  A    between atoms: C_4  and  C_5
REMARK    6  A    between atoms: C_5  and  C_6
REMARK    7  A    between atoms: C_6  and  C_7
REMARK    8  A    between atoms: C_6  and  C_13
REMARK    9  A    between atoms: C_19  and  C_20
REMARK   10  A    between atoms: C_19  and  C_23
REMARK   11  A    between atoms: C_20  and  C_21
REMARK   12  A    between atoms: C_21  and  O_22
REMARK   13  A    between atoms: N_25  and  C_26
REMARK   14  A    between atoms: C_26  and  C_27
REMARK                            x       y       z     vdW  Elec       q    Type
REMARK                         _______ _______ _______ _____ _____    ______ ____
ROOT
ATOM      1  C   UNL     1       2.362  11.478  18.293  0.00  0.00    +0.000 C 
ATOM      2  N   UNL     1       0.991  10.962  18.203  0.00  0.00    +0.000 NA
ENDROOT
BRANCH   2   3
ATOM      3  C   UNL     1       1.019   9.487  18.081  0.00  0.00    +0.000 C 
BRANCH   3   4
ATOM      4  C   UNL     1       2.420   8.859  18.114  0.00  0.00    +0.000 C 
BRANCH   4   5
ATOM      5  C   UNL     1       2.388   7.416  17.618  0.00  0.00    +0.000 C 
BRANCH   5   6
ATOM      6  C   UNL     1       3.187   6.457  18.532  0.00  0.00    +0.000 C 
BRANCH   6   7
ATOM      7  C   UNL     1       2.379   5.237  18.961  0.00  0.00    +0.000 A 
ATOM      8  C   UNL     1       1.961   4.272  18.037  0.00  0.00    +0.000 A 
ATOM      9  C   UNL     1       1.207   3.173  18.456  0.00  0.00    +0.000 A 
ATOM     10  C   UNL     1       0.808   3.057  19.786  0.00  0.00    +0.000 A 
ATOM     11  C   UNL     1       1.225   4.001  20.717  0.00  0.00    +0.000 A 
ATOM     12  C   UNL     1       2.017   5.075  20.309  0.00  0.00    +0.000 A 
ENDBRANCH   6   7
BRANCH   6  13
ATOM     13  C   UNL     1       4.546   6.085  17.944  0.00  0.00    +0.000 A 
ATOM     14  C   UNL     1       4.771   6.288  16.574  0.00  0.00    +0.000 A 
ATOM     15  C   UNL     1       5.978   5.907  15.987  0.00  0.00    +0.000 A 
ATOM     16  C   UNL     1       6.979   5.323  16.761  0.00  0.00    +0.000 A 
ATOM     17  C   UNL     1       6.778   5.137  18.126  0.00  0.00    +0.000 A 
ATOM     18  C   UNL     1       5.576   5.523  18.715  0.00  0.00    +0.000 A 
ENDBRANCH   6  13
ENDBRANCH   5   6
ENDBRANCH   4   5
ENDBRANCH   3   4
ENDBRANCH   2   3
BRANCH   2  19
ATOM     19  C   UNL     1       0.157  11.427  19.347  0.00  0.00    +0.000 C 
BRANCH  19  20
ATOM     20  C   UNL     1      -0.567  12.771  19.045  0.00  0.00    +0.000 C 
ATOM     21  O   UNL     1      -0.010  13.861  19.003  0.00  0.00    +0.000 OA
ATOM     22  N   UNL     1      -1.929  12.725  18.873  0.00  0.00    +0.000 N 
ATOM     23  H   UNL     1      -2.354  13.625  18.688  0.00  0.00    +0.000 HD
BRANCH  22  24
ATOM     24  C   UNL     1      -2.749  11.538  18.860  0.00  0.00    +0.000 C 
BRANCH  24  25
ATOM     25  C   UNL     1      -3.072  11.080  17.477  0.00  0.00    +0.000 A 
ATOM     26  C   UNL     1      -2.150  10.251  16.833  0.00  0.00    +0.000 A 
ATOM     27  C   UNL     1      -2.386   9.735  15.567  0.00  0.00    +0.000 A 
ATOM     28  C   UNL     1      -3.547  10.092  14.887  0.00  0.00    +0.000 A 
ATOM     29  C   UNL     1      -4.465  10.948  15.503  0.00  0.00    +0.000 A 
ATOM     30  C   UNL     1      -4.240  11.439  16.789  0.00  0.00    +0.000 A 
ATOM     31 CL   UNL     1      -5.422  12.478  17.493  0.00  0.00    +0.000 Cl
ENDBRANCH  24  25
ENDBRANCH  22  24
ENDBRANCH  19  20
BRANCH  19  32
ATOM     32  C   UNL     1       0.876  11.575  20.701  0.00  0.00    +0.000 C 
BRANCH  32  33
ATOM     33  C   UNL     1       0.607  10.465  21.703  0.00  0.00    +0.000 C 
BRANCH  33  34
ATOM     34  O   UNL     1      -0.422   9.627  21.174  0.00  0.00    +0.000 OA
ATOM     35  H   UNL     1      -1.035   9.430  21.906  0.00  0.00    +0.000 HD
ENDBRANCH  33  34
ENDBRANCH  32  33
ENDBRANCH  19  32
ENDBRANCH   2  19
TORSDOF 13
ENDMDL
MODEL 7
REMARK VINA RESULT:      -7.8      1.906      2.829
REMARK  Name = 
REMARK  14 active torsions:
REMARK  status: ('A' for Active; 'I' for Inactive)
REMARK    1  A    between atoms: C_1  and  N_2
REMARK    2  A    between atoms: N_2  and  C_3
REMARK    3  A    between atoms: N_2  and  C_19
REMARK    4  A    between atoms: C_3  and  C_4
REMARK    5  A    between atoms: C_4  and  C_5
REMARK    6  A    between atoms: C_5  and  C_6
REMARK    7  A    between atoms: C_6  and  C_7
REMARK    8  A    between atoms: C_6  and  C_13
REMARK    9  A    between atoms: C_19  and  C_20
REMARK   10  A    between atoms: C_19  and  C_23
REMARK   11  A    between atoms: C_20  and  C_21
REMARK   12  A    between atoms: C_21  and  O_22
REMARK   13  A    between atoms: N_25  and  C_26
REMARK   14  A    between atoms: C_26  and  C_27
REMARK                            x       y       z     vdW  Elec       q    Type
REMARK                         _______ _______ _______ _____ _____    ______ ____
ROOT
ATOM      1  C   UNL     1      -0.063   9.614  20.377  0.00  0.00    +0.000 C 
ATOM      2  N   UNL     1       0.983  10.167  19.509  0.00  0.00    +0.000 NA
ENDROOT
BRANCH   2   3
ATOM      3  C   UNL     1       0.914   9.529  18.175  0.00  0.00    +0.000 C 
BRANCH   3   4
ATOM      4  C   UNL     1       2.157   8.717  17.779  0.00  0.00    +0.000 C 
BRANCH   4   5
ATOM      5  C   UNL     1       2.425   7.599  18.783  0.00  0.00    +0.000 C 
BRANCH   5   6
ATOM      6  C   UNL     1       2.838   6.274  18.098  0.00  0.00    +0.000 C 
BRANCH   6   7
ATOM      7  C   UNL     1       4.351   6.118  17.973  0.00  0.00    +0.000 A 
ATOM      8  C   UNL     1       5.027   6.453  16.793  0.00  0.00    +0.000 A 
ATOM      9  C   UNL     1       6.410   6.284  16.701  0.00  0.00    +0.000 A 
ATOM     10  C   UNL     1       7.125   5.722  17.757  0.00  0.00    +0.000 A 
ATOM     11  C   UNL     1       6.468   5.397  18.939  0.00  0.00    +0.000 A 
ATOM     12  C   UNL     1       5.093   5.608  19.049  0.00  0.00    +0.000 A 
ENDBRANCH   6   7
BRANCH   6  13
ATOM     13  C   UNL     1       2.172   5.056  18.731  0.00  0.00    +0.000 A 
ATOM     14  C   UNL     1       1.922   3.928  17.935  0.00  0.00    +0.000 A 
ATOM     15  C   UNL     1       1.262   2.818  18.462  0.00  0.00    +0.000 A 
ATOM     16  C   UNL     1       0.848   2.815  19.792  0.00  0.00    +0.000 A 
ATOM     17  C   UNL     1       1.111   3.917  20.601  0.00  0.00    +0.000 A 
ATOM     18  C   UNL     1       1.776   5.024  20.078  0.00  0.00    +0.000 A 
ENDBRANCH   6  13
ENDBRANCH   5   6
ENDBRANCH   4   5
ENDBRANCH   3   4
ENDBRANCH   2   3
BRANCH   2  19
ATOM     19  C   UNL     1       0.902  11.653  19.438  0.00  0.00    +0.000 C 
BRANCH  19  20
ATOM     20  C   UNL     1      -0.559  12.159  19.257  0.00  0.00    +0.000 C 
ATOM     21  O   UNL     1      -1.193  12.079  18.212  0.00  0.00    +0.000 OA
ATOM     22  N   UNL     1      -1.143  12.785  20.331  0.00  0.00    +0.000 N 
ATOM     23  H   UNL     1      -2.089  13.104  20.161  0.00  0.00    +0.000 HD
BRANCH  22  24
ATOM     24  C   UNL     1      -0.566  12.947  21.644  0.00  0.00    +0.000 C 
BRANCH  24  25
ATOM     25  C   UNL     1      -1.592  13.228  22.690  0.00  0.00    +0.000 A 
ATOM     26  C   UNL     1      -2.592  12.274  22.894  0.00  0.00    +0.000 A 
ATOM     27  C   UNL     1      -3.559  12.423  23.877  0.00  0.00    +0.000 A 
ATOM     28  C   UNL     1      -3.576  13.580  24.652  0.00  0.00    +0.000 A 
ATOM     29  C   UNL     1      -2.603  14.561  24.438  0.00  0.00    +0.000 A 
ATOM     30  C   UNL     1      -1.612  14.393  23.470  0.00  0.00    +0.000 A 
ATOM     31 CL   UNL     1      -0.436  15.637  23.270  0.00  0.00    +0.000 Cl
ENDBRANCH  24  25
ENDBRANCH  22  24
ENDBRANCH  19  20
BRANCH  19  32
ATOM     32  C   UNL     1       1.770  12.333  18.363  0.00  0.00    +0.000 C 
BRANCH  32  33
ATOM     33  C   UNL     1       2.726  13.396  18.878  0.00  0.00    +0.000 C 
BRANCH  33  34
ATOM     34  O   UNL     1       3.674  13.680  17.848  0.00  0.00    +0.000 OA
ATOM     35  H   UNL     1       3.434  13.131  17.079  0.00  0.00    +0.000 HD
ENDBRANCH  33  34
ENDBRANCH  32  33
ENDBRANCH  19  32
ENDBRANCH   2  19
TORSDOF 13
ENDMDL
MODEL 8
REMARK VINA RESULT:      -7.8      3.128      4.640
REMARK  Name = 
REMARK  14 active torsions:
REMARK  status: ('A' for Active; 'I' for Inactive)
REMARK    1  A    between atoms: C_1  and  N_2
REMARK    2  A    between atoms: N_2  and  C_3
REMARK    3  A    between atoms: N_2  and  C_19
REMARK    4  A    between atoms: C_3  and  C_4
REMARK    5  A    between atoms: C_4  and  C_5
REMARK    6  A    between atoms: C_5  and  C_6
REMARK    7  A    between atoms: C_6  and  C_7
REMARK    8  A    between atoms: C_6  and  C_13
REMARK    9  A    between atoms: C_19  and  C_20
REMARK   10  A    between atoms: C_19  and  C_23
REMARK   11  A    between atoms: C_20  and  C_21
REMARK   12  A    between atoms: C_21  and  O_22
REMARK   13  A    between atoms: N_25  and  C_26
REMARK   14  A    between atoms: C_26  and  C_27
REMARK                            x       y       z     vdW  Elec       q    Type
REMARK                         _______ _______ _______ _____ _____    ______ ____
ROOT
ATOM      1  C   UNL     1       0.800   8.989  20.041  0.00  0.00    +0.000 C 
ATOM      2  N   UNL     1       1.439  10.121  19.360  0.00  0.00    +0.000 NA
ENDROOT
BRANCH   2   3
ATOM      3  C   UNL     1       1.927   9.694  18.029  0.00  0.00    +0.000 C 
BRANCH   3   4
ATOM      4  C   UNL     1       1.916   8.176  17.791  0.00  0.00    +0.000 C 
BRANCH   4   5
ATOM      5  C   UNL     1       3.324   7.595  17.888  0.00  0.00    +0.000 C 
BRANCH   5   6
ATOM      6  C   UNL     1       3.364   6.082  17.567  0.00  0.00    +0.000 C 
BRANCH   6   7
ATOM      7  C   UNL     1       4.783   5.553  17.379  0.00  0.00    +0.000 A 
ATOM      8  C   UNL     1       5.766   5.728  18.361  0.00  0.00    +0.000 A 
ATOM      9  C   UNL     1       7.061   5.248  18.155  0.00  0.00    +0.000 A 
ATOM     10  C   UNL     1       7.408   4.647  16.946  0.00  0.00    +0.000 A 
ATOM     11  C   UNL     1       6.440   4.457  15.967  0.00  0.00    +0.000 A 
ATOM     12  C   UNL     1       5.134   4.894  16.190  0.00  0.00    +0.000 A 
ENDBRANCH   6   7
BRANCH   6  13
ATOM     13  C   UNL     1       2.554   5.252  18.559  0.00  0.00    +0.000 A 
ATOM     14  C   UNL     1       1.817   4.156  18.084  0.00  0.00    +0.000 A 
ATOM     15  C   UNL     1       1.018   3.409  18.950  0.00  0.00    +0.000 A 
ATOM     16  C   UNL     1       0.948   3.741  20.301  0.00  0.00    +0.000 A 
ATOM     17  C   UNL     1       1.693   4.810  20.790  0.00  0.00    +0.000 A 
ATOM     18  C   UNL     1       2.497   5.553  19.929  0.00  0.00    +0.000 A 
ENDBRANCH   6  13
ENDBRANCH   5   6
ENDBRANCH   4   5
ENDBRANCH   3   4
ENDBRANCH   2   3
BRANCH   2  19
ATOM     19  C   UNL     1       0.527  11.297  19.285  0.00  0.00    +0.000 C 
BRANCH  19  20
ATOM     20  C   UNL     1       0.707  12.263  20.492  0.00  0.00    +0.000 C 
ATOM     21  O   UNL     1       0.585  11.934  21.665  0.00  0.00    +0.000 OA
ATOM     22  N   UNL     1       0.961  13.583  20.206  0.00  0.00    +0.000 N 
ATOM     23  H   UNL     1       1.061  14.172  21.024  0.00  0.00    +0.000 HD
BRANCH  22  24
ATOM     24  C   UNL     1       1.164  14.150  18.895  0.00  0.00    +0.000 C 
BRANCH  24  25
ATOM     25  C   UNL     1       2.490  14.821  18.760  0.00  0.00    +0.000 A 
ATOM     26  C   UNL     1       3.543  14.079  18.220  0.00  0.00    +0.000 A 
ATOM     27  C   UNL     1       4.798  14.632  18.009  0.00  0.00    +0.000 A 
ATOM     28  C   UNL     1       5.040  15.948  18.395  0.00  0.00    +0.000 A 
ATOM     29  C   UNL     1       4.006  16.695  18.969  0.00  0.00    +0.000 A 
ATOM     30  C   UNL     1       2.737  16.145  19.149  0.00  0.00    +0.000 A 
ATOM     31 CL   UNL     1       1.506  17.128  19.849  0.00  0.00    +0.000 Cl
ENDBRANCH  24  25
ENDBRANCH  22  24
ENDBRANCH  19  20
BRANCH  19  32
ATOM     32  C   UNL     1      -0.976  10.989  19.151  0.00  0.00    +0.000 C 
BRANCH  32  33
ATOM     33  C   UNL     1      -1.515  10.995  17.731  0.00  0.00    +0.000 C 
BRANCH  33  34
ATOM     34  O   UNL     1      -1.573  12.351  17.283  0.00  0.00    +0.000 OA
ATOM     35  H   UNL     1      -1.779  12.329  16.330  0.00  0.00    +0.000 HD
ENDBRANCH  33  34
ENDBRANCH  32  33
ENDBRANCH  19  32
ENDBRANCH   2  19
TORSDOF 13
ENDMDL
MODEL 9
REMARK VINA RESULT:      -7.7      0.679      1.358
REMARK  Name = 
REMARK  14 active torsions:
REMARK  status: ('A' for Active; 'I' for Inactive)
REMARK    1  A    between atoms: C_1  and  N_2
REMARK    2  A    between atoms: N_2  and  C_3
REMARK    3  A    between atoms: N_2  and  C_19
REMARK    4  A    between atoms: C_3  and  C_4
REMARK    5  A    between atoms: C_4  and  C_5
REMARK    6  A    between atoms: C_5  and  C_6
REMARK    7  A    between atoms: C_6  and  C_7
REMARK    8  A    between atoms: C_6  and  C_13
REMARK    9  A    between atoms: C_19  and  C_20
REMARK   10  A    between atoms: C_19  and  C_23
REMARK   11  A    between atoms: C_20  and  C_21
REMARK   12  A    between atoms: C_21  and  O_22
REMARK   13  A    between atoms: N_25  and  C_26
REMARK   14  A    between atoms: C_26  and  C_27
REMARK                            x       y       z     vdW  Elec       q    Type
REMARK                         _______ _______ _______ _____ _____    ______ ____
ROOT
ATOM      1  C   UNL     1      -0.361  10.526  17.903  0.00  0.00    +0.000 C 
ATOM      2  N   UNL     1       0.041   9.875  19.155  0.00  0.00    +0.000 NA
ENDROOT
BRANCH   2   3
ATOM      3  C   UNL     1       1.489   9.568  19.115  0.00  0.00    +0.000 C 
BRANCH   3   4
ATOM      4  C   UNL     1       1.878   8.389  18.210  0.00  0.00    +0.000 C 
BRANCH   4   5
ATOM      5  C   UNL     1       2.514   7.262  19.020  0.00  0.00    +0.000 C 
BRANCH   5   6
ATOM      6  C   UNL     1       3.079   6.134  18.124  0.00  0.00    +0.000 C 
BRANCH   6   7
ATOM      7  C   UNL     1       4.604   6.096  18.110  0.00  0.00    +0.000 A 
ATOM      8  C   UNL     1       5.341   6.641  17.052  0.00  0.00    +0.000 A 
ATOM      9  C   UNL     1       6.736   6.577  17.057  0.00  0.00    +0.000 A 
ATOM     10  C   UNL     1       7.409   5.916  18.084  0.00  0.00    +0.000 A 
ATOM     11  C   UNL     1       6.691   5.381  19.147  0.00  0.00    +0.000 A 
ATOM     12  C   UNL     1       5.299   5.484  19.166  0.00  0.00    +0.000 A 
ENDBRANCH   6   7
BRANCH   6  13
ATOM     13  C   UNL     1       2.460   4.774  18.435  0.00  0.00    +0.000 A 
ATOM     14  C   UNL     1       2.729   3.694  17.581  0.00  0.00    +0.000 A 
ATOM     15  C   UNL     1       2.135   2.450  17.798  0.00  0.00    +0.000 A 
ATOM     16  C   UNL     1       1.270   2.266  18.874  0.00  0.00    +0.000 A 
ATOM     17  C   UNL     1       1.013   3.322  19.744  0.00  0.00    +0.000 A 
ATOM     18  C   UNL     1       1.610   4.562  19.533  0.00  0.00    +0.000 A 
ENDBRANCH   6  13
ENDBRANCH   5   6
ENDBRANCH   4   5
ENDBRANCH   3   4
ENDBRANCH   2   3
BRANCH   2  19
ATOM     19  C   UNL     1      -0.338  10.692  20.342  0.00  0.00    +0.000 C 
BRANCH  19  20
ATOM     20  C   UNL     1      -0.231  12.220  20.067  0.00  0.00    +0.000 C 
ATOM     21  O   UNL     1       0.818  12.809  19.841  0.00  0.00    +0.000 OA
ATOM     22  N   UNL     1      -1.390  12.954  20.143  0.00  0.00    +0.000 N 
ATOM     23  H   UNL     1      -1.267  13.943  19.966  0.00  0.00    +0.000 HD
BRANCH  22  24
ATOM     24  C   UNL     1      -2.717  12.434  20.370  0.00  0.00    +0.000 C 
BRANCH  24  25
ATOM     25  C   UNL     1      -3.260  12.814  21.707  0.00  0.00    +0.000 A 
ATOM     26  C   UNL     1      -2.351  13.198  22.695  0.00  0.00    +0.000 A 
ATOM     27  C   UNL     1      -2.764  13.616  23.951  0.00  0.00    +0.000 A 
ATOM     28  C   UNL     1      -4.121  13.604  24.265  0.00  0.00    +0.000 A 
ATOM     29  C   UNL     1      -5.043  13.190  23.299  0.00  0.00    +0.000 A 
ATOM     30  C   UNL     1      -4.626  12.801  22.026  0.00  0.00    +0.000 A 
ATOM     31 CL   UNL     1      -5.819  12.318  20.880  0.00  0.00    +0.000 Cl
ENDBRANCH  24  25
ENDBRANCH  22  24
ENDBRANCH  19  20
BRANCH  19  32
ATOM     32  C   UNL     1       0.423  10.395  21.647  0.00  0.00    +0.000 C 
BRANCH  32  33
ATOM     33  C   UNL     1      -0.432   9.888  22.796  0.00  0.00    +0.000 C 
BRANCH  33  34
ATOM     34  O   UNL     1       0.423   9.642  23.913  0.00  0.00    +0.000 OA
ATOM     35  H   UNL     1       0.863   8.787  23.754  0.00  0.00    +0.000 HD
ENDBRANCH  33  34
ENDBRANCH  32  33
ENDBRANCH  19  32
ENDBRANCH   2  19
TORSDOF 13
ENDMDL
