MODEL 1
REMARK VINA RESULT:      -8.8      0.000      0.000
REMARK  Name = 
REMARK  5 active torsions:
REMARK  status: ('A' for Active; 'I' for Inactive)
REMARK    1  A    between atoms: C_2  and  C_12
REMARK    2  A    between atoms: N_3  and  C_4
REMARK    3  A    between atoms: C_17  and  O_18
REMARK    4  A    between atoms: O_18  and  C_19
REMARK    5  A    between atoms: C_19  and  C_20
REMARK                            x       y       z     vdW  Elec       q    Type
REMARK                         _______ _______ _______ _____ _____    ______ ____
ROOT
ATOM      1  C   UNL     1       5.312   5.266  17.062  0.00  0.00    +0.000 A 
ATOM      2  C   UNL     1       6.553   5.816  16.689  0.00  0.00    +0.000 A 
ATOM      3  C   UNL     1       7.250   5.335  15.580  0.00  0.00    +0.000 A 
ATOM      4  C   UNL     1       6.690   4.342  14.789  0.00  0.00    +0.000 A 
ATOM      5  C   UNL     1       5.442   3.816  15.115  0.00  0.00    +0.000 A 
ATOM      6  C   UNL     1       4.756   4.238  16.266  0.00  0.00    +0.000 A 
ENDROOT
BRANCH   1   8
ATOM      7  O   UNL     1       5.126   5.662  19.389  0.00  0.00    +0.000 OA
ATOM      8  C   UNL     1       4.607   5.789  18.286  0.00  0.00    +0.000 C 
ATOM      9  N   UNL     1       3.360   6.371  18.064  0.00  0.00    +0.000 N 
ATOM     10  H   UNL     1       2.977   6.371  17.127  0.00  0.00    +0.000 HD
BRANCH   9  11
ATOM     11  C   UNL     1       2.525   6.999  19.018  0.00  0.00    +0.000 A 
ATOM     12  C   UNL     1       2.115   6.397  20.207  0.00  0.00    +0.000 A 
ATOM     13  C   UNL     1       1.347   7.113  21.135  0.00  0.00    +0.000 A 
ATOM     14  C   UNL     1       0.974   8.433  20.872  0.00  0.00    +0.000 A 
ATOM     15  I   UNL     1      -0.122   9.487  22.286  0.00  0.00    +0.000 I 
ATOM     16  C   UNL     1       1.351   9.039  19.680  0.00  0.00    +0.000 A 
ATOM     17  C   UNL     1       2.122   8.321  18.769  0.00  0.00    +0.000 A 
ATOM     18  F   UNL     1       2.483   8.916  17.620  0.00  0.00    +0.000 F 
ENDBRANCH   9  11
ENDBRANCH   1   8
BRANCH   6  19
ATOM     19  O   UNL     1       3.563   3.675  16.647  0.00  0.00    +0.000 OA
BRANCH  19  20
ATOM     20  C   UNL     1       3.634   2.476  17.429  0.00  0.00    +0.000 C 
BRANCH  20  21
ATOM     21  C   UNL     1       2.847   2.586  18.713  0.00  0.00    +0.000 A 
ATOM     22  C   UNL     1       1.455   2.751  18.738  0.00  0.00    +0.000 A 
ATOM     23  C   UNL     1       0.785   2.859  19.959  0.00  0.00    +0.000 A 
ATOM     24  C   UNL     1       1.502   2.794  21.150  0.00  0.00    +0.000 A 
ATOM     25  F   UNL     1       0.852   2.904  22.315  0.00  0.00    +0.000 F 
ATOM     26  C   UNL     1       2.876   2.618  21.149  0.00  0.00    +0.000 A 
ATOM     27  C   UNL     1       3.535   2.514  19.931  0.00  0.00    +0.000 A 
ATOM     28  F   UNL     1       4.866   2.345  19.929  0.00  0.00    +0.000 F 
ENDBRANCH  20  21
ENDBRANCH  19  20
ENDBRANCH   6  19
TORSDOF 5
ENDMDL
MODEL 2
REMARK VINA RESULT:      -8.3      1.213      1.539
REMARK  Name = 
REMARK  5 active torsions:
REMARK  status: ('A' for Active; 'I' for Inactive)
REMARK    1  A    between atoms: C_2  and  C_12
REMARK    2  A    between atoms: N_3  and  C_4
REMARK    3  A    between atoms: C_17  and  O_18
REMARK    4  A    between atoms: O_18  and  C_19
REMARK    5  A    between atoms: C_19  and  C_20
REMARK                            x       y       z     vdW  Elec       q    Type
REMARK                         _______ _______ _______ _____ _____    ______ ____
ROOT
ATOM      1  C   UNL     1       5.157   5.567  16.382  0.00  0.00    +0.000 A 
ATOM      2  C   UNL     1       5.592   6.099  15.153  0.00  0.00    +0.000 A 
ATOM      3  C   UNL     1       6.129   5.276  14.162  0.00  0.00    +0.000 A 
ATOM      4  C   UNL     1       6.181   3.904  14.355  0.00  0.00    +0.000 A 
ATOM      5  C   UNL     1       5.713   3.352  15.547  0.00  0.00    +0.000 A 
ATOM      6  C   UNL     1       5.233   4.170  16.584  0.00  0.00    +0.000 A 
ENDROOT
BRANCH   1   8
ATOM      7  O   UNL     1       5.339   7.355  17.922  0.00  0.00    +0.000 OA
ATOM      8  C   UNL     1       4.615   6.492  17.440  0.00  0.00    +0.000 C 
ATOM      9  N   UNL     1       3.294   6.265  17.824  0.00  0.00    +0.000 N 
ATOM     10  H   UNL     1       2.793   5.483  17.421  0.00  0.00    +0.000 HD
BRANCH   9  11
ATOM     11  C   UNL     1       2.525   7.024  18.737  0.00  0.00    +0.000 A 
ATOM     12  C   UNL     1       2.215   6.602  20.030  0.00  0.00    +0.000 A 
ATOM     13  C   UNL     1       1.509   7.445  20.898  0.00  0.00    +0.000 A 
ATOM     14  C   UNL     1       1.097   8.710  20.474  0.00  0.00    +0.000 A 
ATOM     15  I   UNL     1       0.097   9.958  21.799  0.00  0.00    +0.000 I 
ATOM     16  C   UNL     1       1.375   9.135  19.181  0.00  0.00    +0.000 A 
ATOM     17  C   UNL     1       2.085   8.293  18.328  0.00  0.00    +0.000 A 
ATOM     18  F   UNL     1       2.349   8.714  17.080  0.00  0.00    +0.000 F 
ENDBRANCH   9  11
ENDBRANCH   1   8
BRANCH   6  19
ATOM     19  O   UNL     1       4.843   3.652  17.794  0.00  0.00    +0.000 OA
BRANCH  19  20
ATOM     20  C   UNL     1       3.740   2.737  17.781  0.00  0.00    +0.000 C 
BRANCH  20  21
ATOM     21  C   UNL     1       2.985   2.736  19.088  0.00  0.00    +0.000 A 
ATOM     22  C   UNL     1       3.590   2.427  20.314  0.00  0.00    +0.000 A 
ATOM     23  C   UNL     1       2.834   2.432  21.489  0.00  0.00    +0.000 A 
ATOM     24  C   UNL     1       1.481   2.754  21.439  0.00  0.00    +0.000 A 
ATOM     25  F   UNL     1       0.762   2.750  22.569  0.00  0.00    +0.000 F 
ATOM     26  C   UNL     1       0.865   3.076  20.241  0.00  0.00    +0.000 A 
ATOM     27  C   UNL     1       1.624   3.067  19.077  0.00  0.00    +0.000 A 
ATOM     28  F   UNL     1       1.028   3.377  17.916  0.00  0.00    +0.000 F 
ENDBRANCH  20  21
ENDBRANCH  19  20
ENDBRANCH   6  19
TORSDOF 5
ENDMDL
MODEL 3
REMARK VINA RESULT:      -8.3      1.448      2.013
REMARK  Name = 
REMARK  5 active torsions:
REMARK  status: ('A' for Active; 'I' for Inactive)
REMARK    1  A    between atoms: C_2  and  C_12
REMARK    2  A    between atoms: N_3  and  C_4
REMARK    3  A    between atoms: C_17  and  O_18
REMARK    4  A    between atoms: O_18  and  C_19
REMARK    5  A    between atoms: C_19  and  C_20
REMARK                            x       y       z     vdW  Elec       q    Type
REMARK                         _______ _______ _______ _____ _____    ______ ____
ROOT
ATOM      1  C   UNL     1       5.289   5.568  16.297  0.00  0.00    +0.000 A 
ATOM      2  C   UNL     1       5.841   6.032  15.088  0.00  0.00    +0.000 A 
ATOM      3  C   UNL     1       6.350   5.143  14.140  0.00  0.00    +0.000 A 
ATOM      4  C   UNL     1       6.257   3.776  14.355  0.00  0.00    +0.000 A 
ATOM      5  C   UNL     1       5.671   3.295  15.524  0.00  0.00    +0.000 A 
ATOM      6  C   UNL     1       5.216   4.174  16.521  0.00  0.00    +0.000 A 
ENDROOT
BRANCH   1   8
ATOM      7  O   UNL     1       5.578   7.221  17.966  0.00  0.00    +0.000 OA
ATOM      8  C   UNL     1       4.781   6.560  17.310  0.00  0.00    +0.000 C 
ATOM      9  N   UNL     1       3.396   6.630  17.448  0.00  0.00    +0.000 N 
ATOM     10  H   UNL     1       2.816   5.995  16.914  0.00  0.00    +0.000 HD
BRANCH   9  11
ATOM     11  C   UNL     1       2.660   7.517  18.269  0.00  0.00    +0.000 A 
ATOM     12  C   UNL     1       2.133   8.730  17.825  0.00  0.00    +0.000 A 
ATOM     13  C   UNL     1       1.353   9.518  18.682  0.00  0.00    +0.000 A 
ATOM     14  C   UNL     1       1.105   9.103  19.992  0.00  0.00    +0.000 A 
ATOM     15  I   UNL     1      -0.097  10.265  21.223  0.00  0.00    +0.000 I 
ATOM     16  C   UNL     1       1.644   7.911  20.458  0.00  0.00    +0.000 A 
ATOM     17  C   UNL     1       2.412   7.130  19.596  0.00  0.00    +0.000 A 
ATOM     18  F   UNL     1       2.928   5.978  20.056  0.00  0.00    +0.000 F 
ENDBRANCH   9  11
ENDBRANCH   1   8
BRANCH   6  19
ATOM     19  O   UNL     1       4.710   3.719  17.714  0.00  0.00    +0.000 OA
BRANCH  19  20
ATOM     20  C   UNL     1       3.481   2.983  17.657  0.00  0.00    +0.000 C 
BRANCH  20  21
ATOM     21  C   UNL     1       2.811   2.888  19.006  0.00  0.00    +0.000 A 
ATOM     22  C   UNL     1       3.518   2.621  20.187  0.00  0.00    +0.000 A 
ATOM     23  C   UNL     1       2.838   2.533  21.404  0.00  0.00    +0.000 A 
ATOM     24  C   UNL     1       1.460   2.721  21.442  0.00  0.00    +0.000 A 
ATOM     25  F   UNL     1       0.816   2.629  22.613  0.00  0.00    +0.000 F 
ATOM     26  C   UNL     1       0.743   2.999  20.290  0.00  0.00    +0.000 A 
ATOM     27  C   UNL     1       1.426   3.083  19.083  0.00  0.00    +0.000 A 
ATOM     28  F   UNL     1       0.734   3.351  17.966  0.00  0.00    +0.000 F 
ENDBRANCH  20  21
ENDBRANCH  19  20
ENDBRANCH   6  19
TORSDOF 5
ENDMDL
MODEL 4
REMARK VINA RESULT:      -8.0      1.142      1.479
REMARK  Name = 
REMARK  5 active torsions:
REMARK  status: ('A' for Active; 'I' for Inactive)
REMARK    1  A    between atoms: C_2  and  C_12
REMARK    2  A    between atoms: N_3  and  C_4
REMARK    3  A    between atoms: C_17  and  O_18
REMARK    4  A    between atoms: O_18  and  C_19
REMARK    5  A    between atoms: C_19  and  C_20
REMARK                            x       y       z     vdW  Elec       q    Type
REMARK                         _______ _______ _______ _____ _____    ______ ____
ROOT
ATOM      1  C   UNL     1       5.147   5.436  16.448  0.00  0.00    +0.000 A 
ATOM      2  C   UNL     1       5.575   6.016  15.238  0.00  0.00    +0.000 A 
ATOM      3  C   UNL     1       6.070   5.229  14.197  0.00  0.00    +0.000 A 
ATOM      4  C   UNL     1       6.085   3.848  14.322  0.00  0.00    +0.000 A 
ATOM      5  C   UNL     1       5.623   3.251  15.494  0.00  0.00    +0.000 A 
ATOM      6  C   UNL     1       5.185   4.029  16.579  0.00  0.00    +0.000 A 
ENDROOT
BRANCH   1   8
ATOM      7  O   UNL     1       5.440   6.753  18.393  0.00  0.00    +0.000 OA
ATOM      8  C   UNL     1       4.650   6.322  17.560  0.00  0.00    +0.000 C 
ATOM      9  N   UNL     1       3.278   6.565  17.574  0.00  0.00    +0.000 N 
ATOM     10  H   UNL     1       2.691   6.110  16.887  0.00  0.00    +0.000 HD
BRANCH   9  11
ATOM     11  C   UNL     1       2.567   7.411  18.459  0.00  0.00    +0.000 A 
ATOM     12  C   UNL     1       2.053   8.656  18.098  0.00  0.00    +0.000 A 
ATOM     13  C   UNL     1       1.297   9.401  19.012  0.00  0.00    +0.000 A 
ATOM     14  C   UNL     1       1.058   8.909  20.297  0.00  0.00    +0.000 A 
ATOM     15  I   UNL     1      -0.109  10.010  21.615  0.00  0.00    +0.000 I 
ATOM     16  C   UNL     1       1.585   7.682  20.681  0.00  0.00    +0.000 A 
ATOM     17  C   UNL     1       2.329   6.945  19.762  0.00  0.00    +0.000 A 
ATOM     18  F   UNL     1       2.833   5.759  20.143  0.00  0.00    +0.000 F 
ENDBRANCH   9  11
ENDBRANCH   1   8
BRANCH   6  19
ATOM     19  O   UNL     1       4.802   3.462  17.769  0.00  0.00    +0.000 OA
BRANCH  19  20
ATOM     20  C   UNL     1       3.669   2.584  17.733  0.00  0.00    +0.000 C 
BRANCH  20  21
ATOM     21  C   UNL     1       2.859   2.646  19.005  0.00  0.00    +0.000 A 
ATOM     22  C   UNL     1       1.495   2.970  19.021  0.00  0.00    +0.000 A 
ATOM     23  C   UNL     1       0.802   3.023  20.233  0.00  0.00    +0.000 A 
ATOM     24  C   UNL     1       1.468   2.746  21.423  0.00  0.00    +0.000 A 
ATOM     25  F   UNL     1       0.798   2.805  22.581  0.00  0.00    +0.000 F 
ATOM     26  C   UNL     1       2.813   2.410  21.430  0.00  0.00    +0.000 A 
ATOM     27  C   UNL     1       3.494   2.361  20.220  0.00  0.00    +0.000 A 
ATOM     28  F   UNL     1       4.796   2.038  20.226  0.00  0.00    +0.000 F 
ENDBRANCH  20  21
ENDBRANCH  19  20
ENDBRANCH   6  19
TORSDOF 5
ENDMDL
MODEL 5
REMARK VINA RESULT:      -7.9      2.339      4.988
REMARK  Name = 
REMARK  5 active torsions:
REMARK  status: ('A' for Active; 'I' for Inactive)
REMARK    1  A    between atoms: C_2  and  C_12
REMARK    2  A    between atoms: N_3  and  C_4
REMARK    3  A    between atoms: C_17  and  O_18
REMARK    4  A    between atoms: O_18  and  C_19
REMARK    5  A    between atoms: C_19  and  C_20
REMARK                            x       y       z     vdW  Elec       q    Type
REMARK                         _______ _______ _______ _____ _____    ______ ____
ROOT
ATOM      1  C   UNL     1       2.718   4.440  19.030  0.00  0.00    +0.000 A 
ATOM      2  C   UNL     1       2.097   3.719  20.068  0.00  0.00    +0.000 A 
ATOM      3  C   UNL     1       1.856   2.350  19.949  0.00  0.00    +0.000 A 
ATOM      4  C   UNL     1       2.287   1.667  18.821  0.00  0.00    +0.000 A 
ATOM      5  C   UNL     1       2.946   2.354  17.803  0.00  0.00    +0.000 A 
ATOM      6  C   UNL     1       3.137   3.744  17.873  0.00  0.00    +0.000 A 
ENDROOT
BRANCH   1   8
ATOM      7  O   UNL     1       4.020   6.348  19.549  0.00  0.00    +0.000 OA
ATOM      8  C   UNL     1       2.930   5.924  19.182  0.00  0.00    +0.000 C 
ATOM      9  N   UNL     1       1.822   6.725  18.912  0.00  0.00    +0.000 N 
ATOM     10  H   UNL     1       0.941   6.283  18.683  0.00  0.00    +0.000 HD
BRANCH   9  11
ATOM     11  C   UNL     1       1.767   8.139  18.910  0.00  0.00    +0.000 A 
ATOM     12  C   UNL     1       2.191   8.931  17.844  0.00  0.00    +0.000 A 
ATOM     13  C   UNL     1       2.035  10.323  17.890  0.00  0.00    +0.000 A 
ATOM     14  C   UNL     1       1.464  10.932  19.010  0.00  0.00    +0.000 A 
ATOM     15  I   UNL     1       1.197  12.991  19.031  0.00  0.00    +0.000 I 
ATOM     16  C   UNL     1       1.060  10.159  20.092  0.00  0.00    +0.000 A 
ATOM     17  C   UNL     1       1.212   8.776  20.032  0.00  0.00    +0.000 A 
ATOM     18  F   UNL     1       0.817   8.038  21.083  0.00  0.00    +0.000 F 
ENDBRANCH   9  11
ENDBRANCH   1   8
BRANCH   6  19
ATOM     19  O   UNL     1       3.711   4.450  16.845  0.00  0.00    +0.000 OA
BRANCH  19  20
ATOM     20  C   UNL     1       5.068   4.127  16.517  0.00  0.00    +0.000 C 
BRANCH  20  21
ATOM     21  C   UNL     1       6.049   5.090  17.141  0.00  0.00    +0.000 A 
ATOM     22  C   UNL     1       6.976   4.701  18.119  0.00  0.00    +0.000 A 
ATOM     23  C   UNL     1       7.850   5.642  18.668  0.00  0.00    +0.000 A 
ATOM     24  C   UNL     1       7.805   6.964  18.235  0.00  0.00    +0.000 A 
ATOM     25  F   UNL     1       8.642   7.861  18.771  0.00  0.00    +0.000 F 
ATOM     26  C   UNL     1       6.906   7.368  17.261  0.00  0.00    +0.000 A 
ATOM     27  C   UNL     1       6.039   6.426  16.721  0.00  0.00    +0.000 A 
ATOM     28  F   UNL     1       5.168   6.816  15.779  0.00  0.00    +0.000 F 
ENDBRANCH  20  21
ENDBRANCH  19  20
ENDBRANCH   6  19
TORSDOF 5
ENDMDL
MODEL 6
REMARK VINA RESULT:      -7.7      2.324      4.922
REMARK  Name = 
REMARK  5 active torsions:
REMARK  status: ('A' for Active; 'I' for Inactive)
REMARK    1  A    between atoms: C_2  and  C_12
REMARK    2  A    between atoms: N_3  and  C_4
REMARK    3  A    between atoms: C_17  and  O_18
REMARK    4  A    between atoms: O_18  and  C_19
REMARK    5  A    between atoms: C_19  and  C_20
REMARK                            x       y       z     vdW  Elec       q    Type
REMARK                         _______ _______ _______ _____ _____    ______ ____
ROOT
ATOM      1  C   UNL     1       2.946   4.095  18.739  0.00  0.00    +0.000 A 
ATOM      2  C   UNL     1       2.346   2.860  18.428  0.00  0.00    +0.000 A 
ATOM      3  C   UNL     1       3.009   1.656  18.666  0.00  0.00    +0.000 A 
ATOM      4  C   UNL     1       4.254   1.662  19.278  0.00  0.00    +0.000 A 
ATOM      5  C   UNL     1       4.846   2.873  19.637  0.00  0.00    +0.000 A 
ATOM      6  C   UNL     1       4.224   4.097  19.343  0.00  0.00    +0.000 A 
ENDROOT
BRANCH   1   8
ATOM      7  O   UNL     1       1.299   5.373  17.616  0.00  0.00    +0.000 OA
ATOM      8  C   UNL     1       2.211   5.374  18.435  0.00  0.00    +0.000 C 
ATOM      9  N   UNL     1       2.662   6.507  19.111  0.00  0.00    +0.000 N 
ATOM     10  H   UNL     1       3.469   6.429  19.718  0.00  0.00    +0.000 HD
BRANCH   9  11
ATOM     11  C   UNL     1       2.111   7.810  19.064  0.00  0.00    +0.000 A 
ATOM     12  C   UNL     1       2.176   8.641  17.946  0.00  0.00    +0.000 A 
ATOM     13  C   UNL     1       1.541   9.890  17.956  0.00  0.00    +0.000 A 
ATOM     14  C   UNL     1       0.847  10.320  19.088  0.00  0.00    +0.000 A 
ATOM     15  I   UNL     1      -0.128  12.153  19.057  0.00  0.00    +0.000 I 
ATOM     16  C   UNL     1       0.795   9.515  20.220  0.00  0.00    +0.000 A 
ATOM     17  C   UNL     1       1.423   8.272  20.197  0.00  0.00    +0.000 A 
ATOM     18  F   UNL     1       1.366   7.501  21.296  0.00  0.00    +0.000 F 
ENDBRANCH   9  11
ENDBRANCH   1   8
BRANCH   6  19
ATOM     19  O   UNL     1       4.827   5.300  19.615  0.00  0.00    +0.000 OA
BRANCH  19  20
ATOM     20  C   UNL     1       6.150   5.493  19.098  0.00  0.00    +0.000 C 
BRANCH  20  21
ATOM     21  C   UNL     1       6.199   5.357  17.596  0.00  0.00    +0.000 A 
ATOM     22  C   UNL     1       5.252   5.951  16.749  0.00  0.00    +0.000 A 
ATOM     23  C   UNL     1       5.345   5.778  15.365  0.00  0.00    +0.000 A 
ATOM     24  C   UNL     1       6.384   5.023  14.830  0.00  0.00    +0.000 A 
ATOM     25  F   UNL     1       6.462   4.858  13.504  0.00  0.00    +0.000 F 
ATOM     26  C   UNL     1       7.339   4.439  15.647  0.00  0.00    +0.000 A 
ATOM     27  C   UNL     1       7.238   4.614  17.022  0.00  0.00    +0.000 A 
ATOM     28  F   UNL     1       8.161   4.048  17.814  0.00  0.00    +0.000 F 
ENDBRANCH  20  21
ENDBRANCH  19  20
ENDBRANCH   6  19
TORSDOF 5
ENDMDL
MODEL 7
REMARK VINA RESULT:      -7.6      2.378      4.858
REMARK  Name = 
REMARK  5 active torsions:
REMARK  status: ('A' for Active; 'I' for Inactive)
REMARK    1  A    between atoms: C_2  and  C_12
REMARK    2  A    between atoms: N_3  and  C_4
REMARK    3  A    between atoms: C_17  and  O_18
REMARK    4  A    between atoms: O_18  and  C_19
REMARK    5  A    between atoms: C_19  and  C_20
REMARK                            x       y       z     vdW  Elec       q    Type
REMARK                         _______ _______ _______ _____ _____    ______ ____
ROOT
ATOM      1  C   UNL     1       2.871   4.255  18.858  0.00  0.00    +0.000 A 
ATOM      2  C   UNL     1       2.215   3.030  18.629  0.00  0.00    +0.000 A 
ATOM      3  C   UNL     1       2.854   1.814  18.876  0.00  0.00    +0.000 A 
ATOM      4  C   UNL     1       4.132   1.801  19.415  0.00  0.00    +0.000 A 
ATOM      5  C   UNL     1       4.781   3.003  19.692  0.00  0.00    +0.000 A 
ATOM      6  C   UNL     1       4.182   4.237  19.387  0.00  0.00    +0.000 A 
ENDROOT
BRANCH   1   8
ATOM      7  O   UNL     1       1.352   5.589  17.628  0.00  0.00    +0.000 OA
ATOM      8  C   UNL     1       2.161   5.546  18.547  0.00  0.00    +0.000 C 
ATOM      9  N   UNL     1       2.514   6.638  19.339  0.00  0.00    +0.000 N 
ATOM     10  H   UNL     1       3.245   6.527  20.031  0.00  0.00    +0.000 HD
BRANCH   9  11
ATOM     11  C   UNL     1       1.955   7.938  19.306  0.00  0.00    +0.000 A 
ATOM     12  C   UNL     1       1.211   8.490  20.348  0.00  0.00    +0.000 A 
ATOM     13  C   UNL     1       0.754   9.811  20.268  0.00  0.00    +0.000 A 
ATOM     14  C   UNL     1       1.027  10.585  19.138  0.00  0.00    +0.000 A 
ATOM     15  I   UNL     1       0.381  12.557  19.067  0.00  0.00    +0.000 I 
ATOM     16  C   UNL     1       1.744  10.042  18.079  0.00  0.00    +0.000 A 
ATOM     17  C   UNL     1       2.202   8.729  18.173  0.00  0.00    +0.000 A 
ATOM     18  F   UNL     1       2.895   8.214  17.144  0.00  0.00    +0.000 F 
ENDBRANCH   9  11
ENDBRANCH   1   8
BRANCH   6  19
ATOM     19  O   UNL     1       4.838   5.428  19.578  0.00  0.00    +0.000 OA
BRANCH  19  20
ATOM     20  C   UNL     1       6.174   5.521  19.066  0.00  0.00    +0.000 C 
BRANCH  20  21
ATOM     21  C   UNL     1       6.220   5.372  17.565  0.00  0.00    +0.000 A 
ATOM     22  C   UNL     1       5.272   5.960  16.714  0.00  0.00    +0.000 A 
ATOM     23  C   UNL     1       5.362   5.775  15.332  0.00  0.00    +0.000 A 
ATOM     24  C   UNL     1       6.400   5.014  14.802  0.00  0.00    +0.000 A 
ATOM     25  F   UNL     1       6.475   4.837  13.477  0.00  0.00    +0.000 F 
ATOM     26  C   UNL     1       7.355   4.435  15.622  0.00  0.00    +0.000 A 
ATOM     27  C   UNL     1       7.257   4.623  16.996  0.00  0.00    +0.000 A 
ATOM     28  F   UNL     1       8.180   4.062  17.791  0.00  0.00    +0.000 F 
ENDBRANCH  20  21
ENDBRANCH  19  20
ENDBRANCH   6  19
TORSDOF 5
ENDMDL
MODEL 8
REMARK VINA RESULT:      -7.6      2.512      5.176
REMARK  Name = 
REMARK  5 active torsions:
REMARK  status: ('A' for Active; 'I' for Inactive)
REMARK    1  A    between atoms: C_2  and  C_12
REMARK    2  A    between atoms: N_3  and  C_4
REMARK    3  A    between atoms: C_17  and  O_18
REMARK    4  A    between atoms: O_18  and  C_19
REMARK    5  A    between atoms: C_19  and  C_20
REMARK                            x       y       z     vdW  Elec       q    Type
REMARK                         _______ _______ _______ _____ _____    ______ ____
ROOT
ATOM      1  C   UNL     1       2.583   5.171  19.721  0.00  0.00    +0.000 A 
ATOM      2  C   UNL     1       2.252   4.729  21.016  0.00  0.00    +0.000 A 
ATOM      3  C   UNL     1       2.401   3.390  21.380  0.00  0.00    +0.000 A 
ATOM      4  C   UNL     1       2.943   2.485  20.479  0.00  0.00    +0.000 A 
ATOM      5  C   UNL     1       3.320   2.913  19.207  0.00  0.00    +0.000 A 
ATOM      6  C   UNL     1       3.114   4.241  18.799  0.00  0.00    +0.000 A 
ENDROOT
BRANCH   1   8
ATOM      7  O   UNL     1       2.774   7.036  18.275  0.00  0.00    +0.000 OA
ATOM      8  C   UNL     1       2.375   6.618  19.356  0.00  0.00    +0.000 C 
ATOM      9  N   UNL     1       1.751   7.403  20.323  0.00  0.00    +0.000 N 
ATOM     10  H   UNL     1       1.518   6.989  21.217  0.00  0.00    +0.000 HD
BRANCH   9  11
ATOM     11  C   UNL     1       1.375   8.763  20.212  0.00  0.00    +0.000 A 
ATOM     12  C   UNL     1       1.310   9.455  19.003  0.00  0.00    +0.000 A 
ATOM     13  C   UNL     1       0.858  10.781  18.970  0.00  0.00    +0.000 A 
ATOM     14  C   UNL     1       0.480  11.427  20.149  0.00  0.00    +0.000 A 
ATOM     15  I   UNL     1      -0.234  13.375  20.065  0.00  0.00    +0.000 I 
ATOM     16  C   UNL     1       0.565  10.761  21.365  0.00  0.00    +0.000 A 
ATOM     17  C   UNL     1       1.007   9.440  21.386  0.00  0.00    +0.000 A 
ATOM     18  F   UNL     1       1.084   8.805  22.568  0.00  0.00    +0.000 F 
ENDBRANCH   9  11
ENDBRANCH   1   8
BRANCH   6  19
ATOM     19  O   UNL     1       3.404   4.661  17.524  0.00  0.00    +0.000 OA
BRANCH  19  20
ATOM     20  C   UNL     1       4.683   4.287  16.996  0.00  0.00    +0.000 C 
BRANCH  20  21
ATOM     21  C   UNL     1       5.787   5.196  17.478  0.00  0.00    +0.000 A 
ATOM     22  C   UNL     1       6.691   4.826  18.483  0.00  0.00    +0.000 A 
ATOM     23  C   UNL     1       7.684   5.717  18.895  0.00  0.00    +0.000 A 
ATOM     24  C   UNL     1       7.779   6.971  18.298  0.00  0.00    +0.000 A 
ATOM     25  F   UNL     1       8.731   7.822  18.703  0.00  0.00    +0.000 F 
ATOM     26  C   UNL     1       6.905   7.354  17.293  0.00  0.00    +0.000 A 
ATOM     27  C   UNL     1       5.919   6.461  16.891  0.00  0.00    +0.000 A 
ATOM     28  F   UNL     1       5.072   6.831  15.919  0.00  0.00    +0.000 F 
ENDBRANCH  20  21
ENDBRANCH  19  20
ENDBRANCH   6  19
TORSDOF 5
ENDMDL
MODEL 9
REMARK VINA RESULT:      -7.5      2.506      4.956
REMARK  Name = 
REMARK  5 active torsions:
REMARK  status: ('A' for Active; 'I' for Inactive)
REMARK    1  A    between atoms: C_2  and  C_12
REMARK    2  A    between atoms: N_3  and  C_4
REMARK    3  A    between atoms: C_17  and  O_18
REMARK    4  A    between atoms: O_18  and  C_19
REMARK    5  A    between atoms: C_19  and  C_20
REMARK                            x       y       z     vdW  Elec       q    Type
REMARK                         _______ _______ _______ _____ _____    ______ ____
ROOT
ATOM      1  C   UNL     1       2.807   4.047  20.052  0.00  0.00    +0.000 A 
ATOM      2  C   UNL     1       2.851   3.208  21.182  0.00  0.00    +0.000 A 
ATOM      3  C   UNL     1       3.622   2.045  21.187  0.00  0.00    +0.000 A 
ATOM      4  C   UNL     1       4.411   1.735  20.089  0.00  0.00    +0.000 A 
ATOM      5  C   UNL     1       4.418   2.576  18.978  0.00  0.00    +0.000 A 
ATOM      6  C   UNL     1       3.596   3.714  18.927  0.00  0.00    +0.000 A 
ENDROOT
BRANCH   1   8
ATOM      7  O   UNL     1       0.776   5.192  20.461  0.00  0.00    +0.000 OA
ATOM      8  C   UNL     1       1.936   5.275  20.073  0.00  0.00    +0.000 C 
ATOM      9  N   UNL     1       2.528   6.446  19.604  0.00  0.00    +0.000 N 
ATOM     10  H   UNL     1       3.471   6.407  19.237  0.00  0.00    +0.000 HD
BRANCH   9  11
ATOM     11  C   UNL     1       1.963   7.743  19.581  0.00  0.00    +0.000 A 
ATOM     12  C   UNL     1       1.352   8.344  20.681  0.00  0.00    +0.000 A 
ATOM     13  C   UNL     1       0.881   9.661  20.596  0.00  0.00    +0.000 A 
ATOM     14  C   UNL     1       1.009  10.381  19.406  0.00  0.00    +0.000 A 
ATOM     15  I   UNL     1       0.348  12.348  19.324  0.00  0.00    +0.000 I 
ATOM     16  C   UNL     1       1.591   9.788  18.293  0.00  0.00    +0.000 A 
ATOM     17  C   UNL     1       2.063   8.481  18.390  0.00  0.00    +0.000 A 
ATOM     18  F   UNL     1       2.626   7.917  17.308  0.00  0.00    +0.000 F 
ENDBRANCH   9  11
ENDBRANCH   1   8
BRANCH   6  19
ATOM     19  O   UNL     1       3.529   4.511  17.810  0.00  0.00    +0.000 OA
BRANCH  19  20
ATOM     20  C   UNL     1       4.661   4.489  16.931  0.00  0.00    +0.000 C 
BRANCH  20  21
ATOM     21  C   UNL     1       5.776   5.383  17.417  0.00  0.00    +0.000 A 
ATOM     22  C   UNL     1       6.698   4.982  18.395  0.00  0.00    +0.000 A 
ATOM     23  C   UNL     1       7.702   5.860  18.812  0.00  0.00    +0.000 A 
ATOM     24  C   UNL     1       7.789   7.130  18.249  0.00  0.00    +0.000 A 
ATOM     25  F   UNL     1       8.750   7.967  18.659  0.00  0.00    +0.000 F 
ATOM     26  C   UNL     1       6.897   7.542  17.272  0.00  0.00    +0.000 A 
ATOM     27  C   UNL     1       5.901   6.663  16.864  0.00  0.00    +0.000 A 
ATOM     28  F   UNL     1       5.036   7.062  15.919  0.00  0.00    +0.000 F 
ENDBRANCH  20  21
ENDBRANCH  19  20
ENDBRANCH   6  19
TORSDOF 5
ENDMDL
