MODEL 1
REMARK VINA RESULT:      -7.9      0.000      0.000
REMARK  Name = 
REMARK  3 active torsions:
REMARK  status: ('A' for Active; 'I' for Inactive)
REMARK    1  A    between atoms: C_1  and  N_2
REMARK    2  A    between atoms: N_2  and  C_3
REMARK    3  A    between atoms: N_6  and  C_7
REMARK                            x       y       z     vdW  Elec       q    Type
REMARK                         _______ _______ _______ _____ _____    ______ ____
ROOT
ATOM      1  C   UNL     1       5.315   4.729  18.982  0.00  0.00    +0.000 A 
ATOM      2  N   UNL     1       6.346   5.297  19.663  0.00  0.00    +0.000 NA
ATOM      3  C   UNL     1       7.483   5.603  19.004  0.00  0.00    +0.000 A 
ATOM      4  N   UNL     1       7.751   5.460  17.694  0.00  0.00    +0.000 NA
ATOM      5  C   UNL     1       6.709   4.949  17.004  0.00  0.00    +0.000 A 
ATOM      6  C   UNL     1       5.516   4.580  17.605  0.00  0.00    +0.000 A 
ATOM      7  O   UNL     1       4.635   4.115  16.670  0.00  0.00    +0.000 OA
ATOM      8  C   UNL     1       5.261   4.193  15.466  0.00  0.00    +0.000 A 
ATOM      9  C   UNL     1       4.696   3.838  14.243  0.00  0.00    +0.000 A 
ATOM     10  C   UNL     1       5.505   3.994  13.112  0.00  0.00    +0.000 A 
ATOM     11  C   UNL     1       6.812   4.479  13.227  0.00  0.00    +0.000 A 
ATOM     12 CL   UNL     1       7.775   4.648  11.808  0.00  0.00    +0.000 Cl
ATOM     13  C   UNL     1       7.355   4.833  14.467  0.00  0.00    +0.000 A 
ATOM     14  C   UNL     1       6.555   4.689  15.615  0.00  0.00    +0.000 A 
ENDROOT
BRANCH   1  18
ATOM     15  C   UNL     1       1.496   3.260  19.416  0.00  0.00    +0.000 C 
ATOM     16  C   UNL     1       2.754   2.383  19.272  0.00  0.00    +0.000 C 
ATOM     17  C   UNL     1       3.948   2.969  20.016  0.00  0.00    +0.000 C 
ATOM     18  N   UNL     1       4.165   4.357  19.639  0.00  0.00    +0.000 N 
ATOM     19  C   UNL     1       3.036   5.278  19.686  0.00  0.00    +0.000 C 
ATOM     20  C   UNL     1       1.837   4.685  18.942  0.00  0.00    +0.000 C 
BRANCH  15  22
ATOM     21  C   UNL     1       1.550   2.461  21.746  0.00  0.00    +0.000 C 
ATOM     22  N   UNL     1       0.917   3.333  20.769  0.00  0.00    +0.000 NA
ATOM     23  H   UNL     1       0.936   4.290  21.119  0.00  0.00    +0.000 HD
ENDBRANCH  15  22
ENDBRANCH   1  18
TORSDOF 2
ENDMDL
MODEL 2
REMARK VINA RESULT:      -7.8      5.751      8.107
REMARK  Name = 
REMARK  3 active torsions:
REMARK  status: ('A' for Active; 'I' for Inactive)
REMARK    1  A    between atoms: C_1  and  N_2
REMARK    2  A    between atoms: N_2  and  C_3
REMARK    3  A    between atoms: N_6  and  C_7
REMARK                            x       y       z     vdW  Elec       q    Type
REMARK                         _______ _______ _______ _____ _____    ______ ____
ROOT
ATOM      1  C   UNL     1       2.213   7.380  19.410  0.00  0.00    +0.000 A 
ATOM      2  N   UNL     1       2.579   7.840  18.184  0.00  0.00    +0.000 NA
ATOM      3  C   UNL     1       2.117   9.036  17.764  0.00  0.00    +0.000 A 
ATOM      4  N   UNL     1       1.339   9.909  18.428  0.00  0.00    +0.000 NA
ATOM      5  C   UNL     1       1.022   9.482  19.669  0.00  0.00    +0.000 A 
ATOM      6  C   UNL     1       1.427   8.254  20.169  0.00  0.00    +0.000 A 
ATOM      7  O   UNL     1       0.981   8.091  21.450  0.00  0.00    +0.000 OA
ATOM      8  C   UNL     1       0.294   9.218  21.775  0.00  0.00    +0.000 A 
ATOM      9  C   UNL     1      -0.304   9.467  23.008  0.00  0.00    +0.000 A 
ATOM     10  C   UNL     1      -0.965  10.692  23.146  0.00  0.00    +0.000 A 
ATOM     11  C   UNL     1      -1.014  11.604  22.087  0.00  0.00    +0.000 A 
ATOM     12 CL   UNL     1      -1.845  13.098  22.301  0.00  0.00    +0.000 Cl
ATOM     13  C   UNL     1      -0.401  11.333  20.859  0.00  0.00    +0.000 A 
ATOM     14  C   UNL     1       0.274  10.108  20.702  0.00  0.00    +0.000 A 
ENDROOT
BRANCH   1  18
ATOM     15  C   UNL     1       2.668   3.291  19.334  0.00  0.00    +0.000 C 
ATOM     16  C   UNL     1       3.533   4.278  18.528  0.00  0.00    +0.000 C 
ATOM     17  C   UNL     1       3.843   5.544  19.317  0.00  0.00    +0.000 C 
ATOM     18  N   UNL     1       2.624   6.140  19.842  0.00  0.00    +0.000 N 
ATOM     19  C   UNL     1       1.697   5.294  20.583  0.00  0.00    +0.000 C 
ATOM     20  C   UNL     1       1.391   4.021  19.790  0.00  0.00    +0.000 C 
BRANCH  15  22
ATOM     21  C   UNL     1       4.570   2.005  20.227  0.00  0.00    +0.000 C 
ATOM     22  N   UNL     1       3.316   2.683  20.510  0.00  0.00    +0.000 NA
ATOM     23  H   UNL     1       3.474   3.380  21.237  0.00  0.00    +0.000 HD
ENDBRANCH  15  22
ENDBRANCH   1  18
TORSDOF 2
ENDMDL
MODEL 3
REMARK VINA RESULT:      -7.7      4.005      6.923
REMARK  Name = 
REMARK  3 active torsions:
REMARK  status: ('A' for Active; 'I' for Inactive)
REMARK    1  A    between atoms: C_1  and  N_2
REMARK    2  A    between atoms: N_2  and  C_3
REMARK    3  A    between atoms: N_6  and  C_7
REMARK                            x       y       z     vdW  Elec       q    Type
REMARK                         _______ _______ _______ _____ _____    ______ ____
ROOT
ATOM      1  C   UNL     1       3.817   5.111  18.946  0.00  0.00    +0.000 A 
ATOM      2  N   UNL     1       3.438   4.189  19.870  0.00  0.00    +0.000 NA
ATOM      3  C   UNL     1       2.510   4.521  20.791  0.00  0.00    +0.000 A 
ATOM      4  N   UNL     1       1.836   5.679  20.914  0.00  0.00    +0.000 NA
ATOM      5  C   UNL     1       2.169   6.577  19.962  0.00  0.00    +0.000 A 
ATOM      6  C   UNL     1       3.133   6.329  18.997  0.00  0.00    +0.000 A 
ATOM      7  O   UNL     1       3.249   7.399  18.156  0.00  0.00    +0.000 OA
ATOM      8  C   UNL     1       2.355   8.332  18.577  0.00  0.00    +0.000 A 
ATOM      9  C   UNL     1       2.138   9.567  17.970  0.00  0.00    +0.000 A 
ATOM     10  C   UNL     1       1.168  10.388  18.556  0.00  0.00    +0.000 A 
ATOM     11  C   UNL     1       0.467   9.972  19.692  0.00  0.00    +0.000 A 
ATOM     12 CL   UNL     1      -0.714  11.020  20.383  0.00  0.00    +0.000 Cl
ATOM     13  C   UNL     1       0.701   8.724  20.280  0.00  0.00    +0.000 A 
ATOM     14  C   UNL     1       1.668   7.882  19.703  0.00  0.00    +0.000 A 
ENDROOT
BRANCH   1  18
ATOM     15  C   UNL     1       6.781   5.847  16.187  0.00  0.00    +0.000 C 
ATOM     16  C   UNL     1       6.982   5.896  17.714  0.00  0.00    +0.000 C 
ATOM     17  C   UNL     1       6.200   4.801  18.428  0.00  0.00    +0.000 C 
ATOM     18  N   UNL     1       4.801   4.816  18.029  0.00  0.00    +0.000 N 
ATOM     19  C   UNL     1       4.481   4.822  16.607  0.00  0.00    +0.000 C 
ATOM     20  C   UNL     1       5.271   5.919  15.891  0.00  0.00    +0.000 C 
BRANCH  15  22
ATOM     21  C   UNL     1       7.005   4.567  14.094  0.00  0.00    +0.000 C 
ATOM     22  N   UNL     1       7.345   4.669  15.504  0.00  0.00    +0.000 NA
ATOM     23  H   UNL     1       8.359   4.645  15.602  0.00  0.00    +0.000 HD
ENDBRANCH  15  22
ENDBRANCH   1  18
TORSDOF 2
ENDMDL
MODEL 4
REMARK VINA RESULT:      -7.6      4.167      7.126
REMARK  Name = 
REMARK  3 active torsions:
REMARK  status: ('A' for Active; 'I' for Inactive)
REMARK    1  A    between atoms: C_1  and  N_2
REMARK    2  A    between atoms: N_2  and  C_3
REMARK    3  A    between atoms: N_6  and  C_7
REMARK                            x       y       z     vdW  Elec       q    Type
REMARK                         _______ _______ _______ _____ _____    ______ ____
ROOT
ATOM      1  C   UNL     1       3.895   5.522  18.021  0.00  0.00    +0.000 A 
ATOM      2  N   UNL     1       3.863   4.455  18.864  0.00  0.00    +0.000 NA
ATOM      3  C   UNL     1       3.195   4.558  20.032  0.00  0.00    +0.000 A 
ATOM      4  N   UNL     1       2.482   5.600  20.495  0.00  0.00    +0.000 NA
ATOM      5  C   UNL     1       2.464   6.639  19.634  0.00  0.00    +0.000 A 
ATOM      6  C   UNL     1       3.147   6.630  18.428  0.00  0.00    +0.000 A 
ATOM      7  O   UNL     1       2.936   7.800  17.754  0.00  0.00    +0.000 OA
ATOM      8  C   UNL     1       2.112   8.557  18.524  0.00  0.00    +0.000 A 
ATOM      9  C   UNL     1       1.631   9.820  18.185  0.00  0.00    +0.000 A 
ATOM     10  C   UNL     1       0.789  10.438  19.116  0.00  0.00    +0.000 A 
ATOM     11  C   UNL     1       0.463   9.806  20.319  0.00  0.00    +0.000 A 
ATOM     12 CL   UNL     1      -0.572  10.608  21.439  0.00  0.00    +0.000 Cl
ATOM     13  C   UNL     1       0.956   8.534  20.635  0.00  0.00    +0.000 A 
ATOM     14  C   UNL     1       1.799   7.894  19.709  0.00  0.00    +0.000 A 
ENDROOT
BRANCH   1  18
ATOM     15  C   UNL     1       7.039   4.582  15.537  0.00  0.00    +0.000 C 
ATOM     16  C   UNL     1       5.924   3.598  15.940  0.00  0.00    +0.000 C 
ATOM     17  C   UNL     1       4.561   4.276  16.011  0.00  0.00    +0.000 C 
ATOM     18  N   UNL     1       4.614   5.463  16.849  0.00  0.00    +0.000 N 
ATOM     19  C   UNL     1       5.658   6.449  16.598  0.00  0.00    +0.000 C 
ATOM     20  C   UNL     1       7.025   5.765  16.523  0.00  0.00    +0.000 C 
BRANCH  15  22
ATOM     21  C   UNL     1       6.697   4.103  13.145  0.00  0.00    +0.000 C 
ATOM     22  N   UNL     1       6.964   5.107  14.162  0.00  0.00    +0.000 NA
ATOM     23  H   UNL     1       6.263   5.843  14.093  0.00  0.00    +0.000 HD
ENDBRANCH  15  22
ENDBRANCH   1  18
TORSDOF 2
ENDMDL
MODEL 5
REMARK VINA RESULT:      -7.5      5.511      7.938
REMARK  Name = 
REMARK  3 active torsions:
REMARK  status: ('A' for Active; 'I' for Inactive)
REMARK    1  A    between atoms: C_1  and  N_2
REMARK    2  A    between atoms: N_2  and  C_3
REMARK    3  A    between atoms: N_6  and  C_7
REMARK                            x       y       z     vdW  Elec       q    Type
REMARK                         _______ _______ _______ _____ _____    ______ ____
ROOT
ATOM      1  C   UNL     1       2.466   7.327  18.870  0.00  0.00    +0.000 A 
ATOM      2  N   UNL     1       2.772   7.979  17.717  0.00  0.00    +0.000 NA
ATOM      3  C   UNL     1       2.279   9.218  17.508  0.00  0.00    +0.000 A 
ATOM      4  N   UNL     1       1.520   9.962  18.333  0.00  0.00    +0.000 NA
ATOM      5  C   UNL     1       1.262   9.340  19.502  0.00  0.00    +0.000 A 
ATOM      6  C   UNL     1       1.704   8.058  19.787  0.00  0.00    +0.000 A 
ATOM      7  O   UNL     1       1.316   7.689  21.044  0.00  0.00    +0.000 OA
ATOM      8  C   UNL     1       0.631   8.739  21.570  0.00  0.00    +0.000 A 
ATOM      9  C   UNL     1       0.084   8.781  22.850  0.00  0.00    +0.000 A 
ATOM     10  C   UNL     1      -0.585   9.957  23.205  0.00  0.00    +0.000 A 
ATOM     11  C   UNL     1      -0.691  11.022  22.306  0.00  0.00    +0.000 A 
ATOM     12 CL   UNL     1      -1.530  12.449  22.784  0.00  0.00    +0.000 Cl
ATOM     13  C   UNL     1      -0.129  10.957  21.025  0.00  0.00    +0.000 A 
ATOM     14  C   UNL     1       0.553   9.784  20.652  0.00  0.00    +0.000 A 
ENDROOT
BRANCH   1  18
ATOM     15  C   UNL     1       4.204   3.708  17.964  0.00  0.00    +0.000 C 
ATOM     16  C   UNL     1       4.988   4.986  18.318  0.00  0.00    +0.000 C 
ATOM     17  C   UNL     1       4.304   5.791  19.416  0.00  0.00    +0.000 C 
ATOM     18  N   UNL     1       2.910   6.043  19.085  0.00  0.00    +0.000 N 
ATOM     19  C   UNL     1       2.074   4.918  18.685  0.00  0.00    +0.000 C 
ATOM     20  C   UNL     1       2.765   4.108  17.585  0.00  0.00    +0.000 C 
BRANCH  15  22
ATOM     21  C   UNL     1       3.526   1.429  18.607  0.00  0.00    +0.000 C 
ATOM     22  N   UNL     1       4.151   2.677  19.015  0.00  0.00    +0.000 NA
ATOM     23  H   UNL     1       5.084   2.478  19.374  0.00  0.00    +0.000 HD
ENDBRANCH  15  22
ENDBRANCH   1  18
TORSDOF 2
ENDMDL
MODEL 6
REMARK VINA RESULT:      -7.5      3.615      6.904
REMARK  Name = 
REMARK  3 active torsions:
REMARK  status: ('A' for Active; 'I' for Inactive)
REMARK    1  A    between atoms: C_1  and  N_2
REMARK    2  A    between atoms: N_2  and  C_3
REMARK    3  A    between atoms: N_6  and  C_7
REMARK                            x       y       z     vdW  Elec       q    Type
REMARK                         _______ _______ _______ _____ _____    ______ ____
ROOT
ATOM      1  C   UNL     1       4.363   4.089  18.827  0.00  0.00    +0.000 A 
ATOM      2  N   UNL     1       4.158   2.932  19.511  0.00  0.00    +0.000 NA
ATOM      3  C   UNL     1       3.283   2.920  20.539  0.00  0.00    +0.000 A 
ATOM      4  N   UNL     1       2.509   3.925  20.986  0.00  0.00    +0.000 NA
ATOM      5  C   UNL     1       2.668   5.059  20.271  0.00  0.00    +0.000 A 
ATOM      6  C   UNL     1       3.566   5.169  19.221  0.00  0.00    +0.000 A 
ATOM      7  O   UNL     1       3.503   6.416  18.669  0.00  0.00    +0.000 OA
ATOM      8  C   UNL     1       2.558   7.107  19.361  0.00  0.00    +0.000 A 
ATOM      9  C   UNL     1       2.167   8.418  19.096  0.00  0.00    +0.000 A 
ATOM     10  C   UNL     1       1.173   8.952  19.924  0.00  0.00    +0.000 A 
ATOM     11  C   UNL     1       0.617   8.193  20.958  0.00  0.00    +0.000 A 
ATOM     12 CL   UNL     1      -0.600   8.895  21.957  0.00  0.00    +0.000 Cl
ATOM     13  C   UNL     1       1.024   6.876  21.201  0.00  0.00    +0.000 A 
ATOM     14  C   UNL     1       2.018   6.320  20.376  0.00  0.00    +0.000 A 
ENDROOT
BRANCH   1  18
ATOM     15  C   UNL     1       6.629   5.789  15.842  0.00  0.00    +0.000 C 
ATOM     16  C   UNL     1       6.958   5.881  17.344  0.00  0.00    +0.000 C 
ATOM     17  C   UNL     1       6.650   4.582  18.077  0.00  0.00    +0.000 C 
ATOM     18  N   UNL     1       5.289   4.144  17.811  0.00  0.00    +0.000 N 
ATOM     19  C   UNL     1       4.840   4.063  16.426  0.00  0.00    +0.000 C 
ATOM     20  C   UNL     1       5.155   5.368  15.690  0.00  0.00    +0.000 C 
BRANCH  15  22
ATOM     21  C   UNL     1       7.109   4.768  13.651  0.00  0.00    +0.000 C 
ATOM     22  N   UNL     1       7.471   4.869  15.056  0.00  0.00    +0.000 NA
ATOM     23  H   UNL     1       8.453   5.128  15.127  0.00  0.00    +0.000 HD
ENDBRANCH  15  22
ENDBRANCH   1  18
TORSDOF 2
ENDMDL
MODEL 7
REMARK VINA RESULT:      -7.4      3.434      6.840
REMARK  Name = 
REMARK  3 active torsions:
REMARK  status: ('A' for Active; 'I' for Inactive)
REMARK    1  A    between atoms: C_1  and  N_2
REMARK    2  A    between atoms: N_2  and  C_3
REMARK    3  A    between atoms: N_6  and  C_7
REMARK                            x       y       z     vdW  Elec       q    Type
REMARK                         _______ _______ _______ _____ _____    ______ ____
ROOT
ATOM      1  C   UNL     1       4.279   6.700  17.356  0.00  0.00    +0.000 A 
ATOM      2  N   UNL     1       3.640   7.895  17.472  0.00  0.00    +0.000 NA
ATOM      3  C   UNL     1       2.610   8.010  18.337  0.00  0.00    +0.000 A 
ATOM      4  N   UNL     1       2.120   7.082  19.177  0.00  0.00    +0.000 NA
ATOM      5  C   UNL     1       2.790   5.912  19.106  0.00  0.00    +0.000 A 
ATOM      6  C   UNL     1       3.839   5.697  18.225  0.00  0.00    +0.000 A 
ATOM      7  O   UNL     1       4.341   4.437  18.382  0.00  0.00    +0.000 OA
ATOM      8  C   UNL     1       3.619   3.843  19.369  0.00  0.00    +0.000 A 
ATOM      9  C   UNL     1       3.829   2.555  19.855  0.00  0.00    +0.000 A 
ATOM     10  C   UNL     1       2.977   2.127  20.879  0.00  0.00    +0.000 A 
ATOM     11  C   UNL     1       1.971   2.963  21.372  0.00  0.00    +0.000 A 
ATOM     12 CL   UNL     1       0.940   2.391  22.628  0.00  0.00    +0.000 Cl
ATOM     13  C   UNL     1       1.782   4.256  20.869  0.00  0.00    +0.000 A 
ATOM     14  C   UNL     1       2.633   4.707  19.843  0.00  0.00    +0.000 A 
ENDROOT
BRANCH   1  18
ATOM     15  C   UNL     1       7.071   4.691  15.096  0.00  0.00    +0.000 C 
ATOM     16  C   UNL     1       5.574   4.791  14.744  0.00  0.00    +0.000 C 
ATOM     17  C   UNL     1       5.001   6.164  15.069  0.00  0.00    +0.000 C 
ATOM     18  N   UNL     1       5.296   6.539  16.443  0.00  0.00    +0.000 N 
ATOM     19  C   UNL     1       6.673   6.440  16.913  0.00  0.00    +0.000 C 
ATOM     20  C   UNL     1       7.248   5.061  16.581  0.00  0.00    +0.000 C 
BRANCH  15  22
ATOM     21  C   UNL     1       7.890   5.295  12.853  0.00  0.00    +0.000 C 
ATOM     22  N   UNL     1       7.977   5.524  14.286  0.00  0.00    +0.000 NA
ATOM     23  H   UNL     1       7.824   6.513  14.473  0.00  0.00    +0.000 HD
ENDBRANCH  15  22
ENDBRANCH   1  18
TORSDOF 2
ENDMDL
MODEL 8
REMARK VINA RESULT:      -7.3      4.146      5.561
REMARK  Name = 
REMARK  3 active torsions:
REMARK  status: ('A' for Active; 'I' for Inactive)
REMARK    1  A    between atoms: C_1  and  N_2
REMARK    2  A    between atoms: N_2  and  C_3
REMARK    3  A    between atoms: N_6  and  C_7
REMARK                            x       y       z     vdW  Elec       q    Type
REMARK                         _______ _______ _______ _____ _____    ______ ____
ROOT
ATOM      1  C   UNL     1       1.835   7.068  20.235  0.00  0.00    +0.000 A 
ATOM      2  N   UNL     1       1.275   6.051  20.942  0.00  0.00    +0.000 NA
ATOM      3  C   UNL     1       1.472   4.779  20.536  0.00  0.00    +0.000 A 
ATOM      4  N   UNL     1       2.215   4.339  19.504  0.00  0.00    +0.000 NA
ATOM      5  C   UNL     1       2.820   5.344  18.836  0.00  0.00    +0.000 A 
ATOM      6  C   UNL     1       2.648   6.679  19.165  0.00  0.00    +0.000 A 
ATOM      7  O   UNL     1       3.390   7.473  18.338  0.00  0.00    +0.000 OA
ATOM      8  C   UNL     1       4.045   6.646  17.480  0.00  0.00    +0.000 A 
ATOM      9  C   UNL     1       4.931   7.058  16.487  0.00  0.00    +0.000 A 
ATOM     10  C   UNL     1       5.506   6.049  15.707  0.00  0.00    +0.000 A 
ATOM     11  C   UNL     1       5.192   4.705  15.926  0.00  0.00    +0.000 A 
ATOM     12 CL   UNL     1       5.919   3.497  14.936  0.00  0.00    +0.000 Cl
ATOM     13  C   UNL     1       4.301   4.317  16.934  0.00  0.00    +0.000 A 
ATOM     14  C   UNL     1       3.717   5.316  17.733  0.00  0.00    +0.000 A 
ENDROOT
BRANCH   1  18
ATOM     15  C   UNL     1      -0.338  10.355  21.424  0.00  0.00    +0.000 C 
ATOM     16  C   UNL     1       0.162   9.251  22.375  0.00  0.00    +0.000 C 
ATOM     17  C   UNL     1       1.553   8.757  21.997  0.00  0.00    +0.000 C 
ATOM     18  N   UNL     1       1.605   8.377  20.594  0.00  0.00    +0.000 N 
ATOM     19  C   UNL     1       1.113   9.318  19.596  0.00  0.00    +0.000 C 
ATOM     20  C   UNL     1      -0.282   9.817  19.981  0.00  0.00    +0.000 C 
BRANCH  15  22
ATOM     21  C   UNL     1      -0.178  12.694  20.669  0.00  0.00    +0.000 C 
ATOM     22  N   UNL     1       0.392  11.633  21.484  0.00  0.00    +0.000 NA
ATOM     23  H   UNL     1       0.469  11.961  22.446  0.00  0.00    +0.000 HD
ENDBRANCH  15  22
ENDBRANCH   1  18
TORSDOF 2
ENDMDL
MODEL 9
REMARK VINA RESULT:      -7.1      3.837      7.152
REMARK  Name = 
REMARK  3 active torsions:
REMARK  status: ('A' for Active; 'I' for Inactive)
REMARK    1  A    between atoms: C_1  and  N_2
REMARK    2  A    between atoms: N_2  and  C_3
REMARK    3  A    between atoms: N_6  and  C_7
REMARK                            x       y       z     vdW  Elec       q    Type
REMARK                         _______ _______ _______ _____ _____    ______ ____
ROOT
ATOM      1  C   UNL     1       4.589   5.285  17.975  0.00  0.00    +0.000 A 
ATOM      2  N   UNL     1       4.616   4.081  18.605  0.00  0.00    +0.000 NA
ATOM      3  C   UNL     1       3.863   3.896  19.709  0.00  0.00    +0.000 A 
ATOM      4  N   UNL     1       3.010   4.760  20.289  0.00  0.00    +0.000 NA
ATOM      5  C   UNL     1       2.936   5.937  19.632  0.00  0.00    +0.000 A 
ATOM      6  C   UNL     1       3.697   6.221  18.508  0.00  0.00    +0.000 A 
ATOM      7  O   UNL     1       3.407   7.471  18.041  0.00  0.00    +0.000 OA
ATOM      8  C   UNL     1       2.453   7.988  18.861  0.00  0.00    +0.000 A 
ATOM      9  C   UNL     1       1.862   9.240  18.715  0.00  0.00    +0.000 A 
ATOM     10  C   UNL     1       0.895   9.589  19.665  0.00  0.00    +0.000 A 
ATOM     11  C   UNL     1       0.559   8.713  20.701  0.00  0.00    +0.000 A 
ATOM     12 CL   UNL     1      -0.632   9.187  21.852  0.00  0.00    +0.000 Cl
ATOM     13  C   UNL     1       1.165   7.457  20.823  0.00  0.00    +0.000 A 
ATOM     14  C   UNL     1       2.135   7.086  19.874  0.00  0.00    +0.000 A 
ENDROOT
BRANCH   1  18
ATOM     15  C   UNL     1       6.997   4.366  14.766  0.00  0.00    +0.000 C 
ATOM     16  C   UNL     1       5.457   4.313  14.742  0.00  0.00    +0.000 C 
ATOM     17  C   UNL     1       4.833   5.454  15.535  0.00  0.00    +0.000 C 
ATOM     18  N   UNL     1       5.388   5.518  16.879  0.00  0.00    +0.000 N 
ATOM     19  C   UNL     1       6.837   5.524  17.036  0.00  0.00    +0.000 C 
ATOM     20  C   UNL     1       7.461   4.379  16.235  0.00  0.00    +0.000 C 
BRANCH  15  22
ATOM     21  C   UNL     1       7.838   5.288  12.642  0.00  0.00    +0.000 C 
ATOM     22  N   UNL     1       7.610   5.506  14.062  0.00  0.00    +0.000 NA
ATOM     23  H   UNL     1       7.050   6.349  14.182  0.00  0.00    +0.000 HD
ENDBRANCH  15  22
ENDBRANCH   1  18
TORSDOF 2
ENDMDL
