MODEL 1
REMARK VINA RESULT:      -7.3      0.000      0.000
REMARK  Name = 
REMARK  0 active torsions:
REMARK  status: ('A' for Active; 'I' for Inactive)
REMARK                            x       y       z     vdW  Elec       q    Type
REMARK                         _______ _______ _______ _____ _____    ______ ____
ROOT
ATOM      1  O   UNL     1       2.935   6.976  19.238  0.00  0.00    +0.000 OA
ATOM      2  C   UNL     1       3.141   5.839  18.845  0.00  0.00    +0.000 C 
ATOM      3  C   UNL     1       2.507   4.653  19.517  0.00  0.00    +0.000 A 
ATOM      4  C   UNL     1       1.663   4.826  20.611  0.00  0.00    +0.000 A 
ATOM      5  C   UNL     1       1.108   3.692  21.187  0.00  0.00    +0.000 A 
ATOM      6  N   UNL     1       1.335   2.432  20.752  0.00  0.00    +0.000 NA
ATOM      7  C   UNL     1       2.155   2.286  19.691  0.00  0.00    +0.000 A 
ATOM      8  C   UNL     1       2.755   3.354  19.050  0.00  0.00    +0.000 A 
ATOM      9  C   UNL     1       3.630   3.072  17.902  0.00  0.00    +0.000 C 
ATOM     10  O   UNL     1       3.819   1.922  17.529  0.00  0.00    +0.000 OA
ATOM     11  C   UNL     1       4.224   4.225  17.277  0.00  0.00    +0.000 A 
ATOM     12  C   UNL     1       3.991   5.508  17.724  0.00  0.00    +0.000 A 
ATOM     13  N   UNL     1       4.704   6.362  16.915  0.00  0.00    +0.000 N 
ATOM     14  C   UNL     1       5.390   5.635  15.957  0.00  0.00    +0.000 A 
ATOM     15  C   UNL     1       6.241   6.045  14.920  0.00  0.00    +0.000 A 
ATOM     16  C   UNL     1       6.788   5.045  14.102  0.00  0.00    +0.000 A 
ATOM     17 CL   UNL     1       7.835   5.493  12.808  0.00  0.00    +0.000 Cl
ATOM     18  C   UNL     1       6.509   3.696  14.300  0.00  0.00    +0.000 A 
ATOM     19  C   UNL     1       5.663   3.306  15.336  0.00  0.00    +0.000 A 
ATOM     20  C   UNL     1       5.098   4.288  16.171  0.00  0.00    +0.000 A 
ATOM     21  H   UNL     1       4.721   7.371  17.009  0.00  0.00    +0.000 HD
ENDROOT
TORSDOF 0
ENDMDL
MODEL 2
REMARK VINA RESULT:      -7.2      6.135      7.955
REMARK  Name = 
REMARK  0 active torsions:
REMARK  status: ('A' for Active; 'I' for Inactive)
REMARK                            x       y       z     vdW  Elec       q    Type
REMARK                         _______ _______ _______ _____ _____    ______ ____
ROOT
ATOM      1  O   UNL     1      -0.049   9.560  23.682  0.00  0.00    +0.000 OA
ATOM      2  C   UNL     1      -0.046   9.993  22.540  0.00  0.00    +0.000 C 
ATOM      3  C   UNL     1      -0.763  11.266  22.186  0.00  0.00    +0.000 A 
ATOM      4  C   UNL     1      -1.452  11.986  23.159  0.00  0.00    +0.000 A 
ATOM      5  C   UNL     1      -2.094  13.153  22.769  0.00  0.00    +0.000 A 
ATOM      6  N   UNL     1      -2.090  13.635  21.506  0.00  0.00    +0.000 NA
ATOM      7  C   UNL     1      -1.418  12.923  20.578  0.00  0.00    +0.000 A 
ATOM      8  C   UNL     1      -0.748  11.749  20.870  0.00  0.00    +0.000 A 
ATOM      9  C   UNL     1      -0.047  11.060  19.775  0.00  0.00    +0.000 C 
ATOM     10  O   UNL     1      -0.061  11.517  18.640  0.00  0.00    +0.000 OA
ATOM     11  C   UNL     1       0.631   9.844  20.141  0.00  0.00    +0.000 A 
ATOM     12  C   UNL     1       0.625   9.356  21.431  0.00  0.00    +0.000 A 
ATOM     13  N   UNL     1       1.357   8.192  21.434  0.00  0.00    +0.000 N 
ATOM     14  C   UNL     1       1.831   7.933  20.159  0.00  0.00    +0.000 A 
ATOM     15  C   UNL     1       2.614   6.882  19.659  0.00  0.00    +0.000 A 
ATOM     16  C   UNL     1       2.933   6.908  18.293  0.00  0.00    +0.000 A 
ATOM     17 CL   UNL     1       3.899   5.646  17.628  0.00  0.00    +0.000 Cl
ATOM     18  C   UNL     1       2.494   7.929  17.454  0.00  0.00    +0.000 A 
ATOM     19  C   UNL     1       1.714   8.963  17.966  0.00  0.00    +0.000 A 
ATOM     20  C   UNL     1       1.382   8.964  19.333  0.00  0.00    +0.000 A 
ATOM     21  H   UNL     1       1.525   7.614  22.250  0.00  0.00    +0.000 HD
ENDROOT
TORSDOF 0
ENDMDL
MODEL 3
REMARK VINA RESULT:      -7.2      4.695      6.593
REMARK  Name = 
REMARK  0 active torsions:
REMARK  status: ('A' for Active; 'I' for Inactive)
REMARK                            x       y       z     vdW  Elec       q    Type
REMARK                         _______ _______ _______ _____ _____    ______ ____
ROOT
ATOM      1  O   UNL     1       0.431   9.006  22.569  0.00  0.00    +0.000 OA
ATOM      2  C   UNL     1       0.796   9.133  21.411  0.00  0.00    +0.000 C 
ATOM      3  C   UNL     1       0.586  10.418  20.661  0.00  0.00    +0.000 A 
ATOM      4  C   UNL     1      -0.035  11.503  21.274  0.00  0.00    +0.000 A 
ATOM      5  C   UNL     1      -0.200  12.663  20.530  0.00  0.00    +0.000 A 
ATOM      6  N   UNL     1       0.205  12.804  19.247  0.00  0.00    +0.000 NA
ATOM      7  C   UNL     1       0.804  11.742  18.671  0.00  0.00    +0.000 A 
ATOM      8  C   UNL     1       1.013  10.545  19.332  0.00  0.00    +0.000 A 
ATOM      9  C   UNL     1       1.679   9.457  18.600  0.00  0.00    +0.000 C 
ATOM     10  O   UNL     1       2.035   9.611  17.440  0.00  0.00    +0.000 OA
ATOM     11  C   UNL     1       1.868   8.237  19.341  0.00  0.00    +0.000 A 
ATOM     12  C   UNL     1       1.454   8.096  20.649  0.00  0.00    +0.000 A 
ATOM     13  N   UNL     1       1.782   6.823  21.051  0.00  0.00    +0.000 N 
ATOM     14  C   UNL     1       2.404   6.150  20.012  0.00  0.00    +0.000 A 
ATOM     15  C   UNL     1       2.916   4.846  19.930  0.00  0.00    +0.000 A 
ATOM     16  C   UNL     1       3.498   4.457  18.715  0.00  0.00    +0.000 A 
ATOM     17 CL   UNL     1       4.151   2.870  18.562  0.00  0.00    +0.000 Cl
ATOM     18  C   UNL     1       3.569   5.318  17.623  0.00  0.00    +0.000 A 
ATOM     19  C   UNL     1       3.053   6.609  17.720  0.00  0.00    +0.000 A 
ATOM     20  C   UNL     1       2.465   7.027  18.929  0.00  0.00    +0.000 A 
ATOM     21  H   UNL     1       1.598   6.439  21.970  0.00  0.00    +0.000 HD
ENDROOT
TORSDOF 0
ENDMDL
MODEL 4
REMARK VINA RESULT:      -7.2      4.545      7.288
REMARK  Name = 
REMARK  0 active torsions:
REMARK  status: ('A' for Active; 'I' for Inactive)
REMARK                            x       y       z     vdW  Elec       q    Type
REMARK                         _______ _______ _______ _____ _____    ______ ____
ROOT
ATOM      1  O   UNL     1       3.045   4.547  20.434  0.00  0.00    +0.000 OA
ATOM      2  C   UNL     1       2.992   5.549  19.738  0.00  0.00    +0.000 C 
ATOM      3  C   UNL     1       3.731   5.633  18.432  0.00  0.00    +0.000 A 
ATOM      4  C   UNL     1       4.499   4.562  17.982  0.00  0.00    +0.000 A 
ATOM      5  C   UNL     1       5.157   4.700  16.768  0.00  0.00    +0.000 A 
ATOM      6  N   UNL     1       5.098   5.809  15.996  0.00  0.00    +0.000 NA
ATOM      7  C   UNL     1       4.350   6.835  16.450  0.00  0.00    +0.000 A 
ATOM      8  C   UNL     1       3.658   6.791  17.646  0.00  0.00    +0.000 A 
ATOM      9  C   UNL     1       2.873   7.973  18.037  0.00  0.00    +0.000 C 
ATOM     10  O   UNL     1       2.837   8.963  17.320  0.00  0.00    +0.000 OA
ATOM     11  C   UNL     1       2.175   7.866  19.292  0.00  0.00    +0.000 A 
ATOM     12  C   UNL     1       2.237   6.733  20.076  0.00  0.00    +0.000 A 
ATOM     13  N   UNL     1       1.467   6.963  21.192  0.00  0.00    +0.000 N 
ATOM     14  C   UNL     1       0.913   8.230  21.126  0.00  0.00    +0.000 A 
ATOM     15  C   UNL     1       0.067   8.916  22.010  0.00  0.00    +0.000 A 
ATOM     16  C   UNL     1      -0.328  10.213  21.649  0.00  0.00    +0.000 A 
ATOM     17 CL   UNL     1      -1.374  11.098  22.694  0.00  0.00    +0.000 Cl
ATOM     18  C   UNL     1       0.097  10.810  20.465  0.00  0.00    +0.000 A 
ATOM     19  C   UNL     1       0.940  10.115  19.600  0.00  0.00    +0.000 A 
ATOM     20  C   UNL     1       1.349   8.811  19.935  0.00  0.00    +0.000 A 
ATOM     21  H   UNL     1       1.326   6.300  21.946  0.00  0.00    +0.000 HD
ENDROOT
TORSDOF 0
ENDMDL
MODEL 5
REMARK VINA RESULT:      -7.1      3.847      5.719
REMARK  Name = 
REMARK  0 active torsions:
REMARK  status: ('A' for Active; 'I' for Inactive)
REMARK                            x       y       z     vdW  Elec       q    Type
REMARK                         _______ _______ _______ _____ _____    ______ ____
ROOT
ATOM      1  O   UNL     1       4.469   5.638  16.690  0.00  0.00    +0.000 OA
ATOM      2  C   UNL     1       3.784   5.732  17.697  0.00  0.00    +0.000 C 
ATOM      3  C   UNL     1       3.607   4.569  18.632  0.00  0.00    +0.000 A 
ATOM      4  C   UNL     1       4.224   3.348  18.371  0.00  0.00    +0.000 A 
ATOM      5  C   UNL     1       4.022   2.312  19.272  0.00  0.00    +0.000 A 
ATOM      6  N   UNL     1       3.265   2.416  20.388  0.00  0.00    +0.000 NA
ATOM      7  C   UNL     1       2.676   3.606  20.624  0.00  0.00    +0.000 A 
ATOM      8  C   UNL     1       2.818   4.696  19.784  0.00  0.00    +0.000 A 
ATOM      9  C   UNL     1       2.128   5.944  20.146  0.00  0.00    +0.000 C 
ATOM     10  O   UNL     1       1.448   6.010  21.161  0.00  0.00    +0.000 OA
ATOM     11  C   UNL     1       2.314   7.042  19.233  0.00  0.00    +0.000 A 
ATOM     12  C   UNL     1       3.087   6.933  18.096  0.00  0.00    +0.000 A 
ATOM     13  N   UNL     1       3.053   8.149  17.456  0.00  0.00    +0.000 N 
ATOM     14  C   UNL     1       2.266   9.034  18.174  0.00  0.00    +0.000 A 
ATOM     15  C   UNL     1       1.927  10.374  17.936  0.00  0.00    +0.000 A 
ATOM     16  C   UNL     1       1.096  11.006  18.873  0.00  0.00    +0.000 A 
ATOM     17 CL   UNL     1       0.656  12.655  18.633  0.00  0.00    +0.000 Cl
ATOM     18  C   UNL     1       0.616  10.342  19.998  0.00  0.00    +0.000 A 
ATOM     19  C   UNL     1       0.959   9.010  20.218  0.00  0.00    +0.000 A 
ATOM     20  C   UNL     1       1.794   8.351  19.296  0.00  0.00    +0.000 A 
ATOM     21  H   UNL     1       3.534   8.364  16.590  0.00  0.00    +0.000 HD
ENDROOT
TORSDOF 0
ENDMDL
MODEL 6
REMARK VINA RESULT:      -7.0      2.841      4.232
REMARK  Name = 
REMARK  0 active torsions:
REMARK  status: ('A' for Active; 'I' for Inactive)
REMARK                            x       y       z     vdW  Elec       q    Type
REMARK                         _______ _______ _______ _____ _____    ______ ____
ROOT
ATOM      1  O   UNL     1       1.903   5.292  21.190  0.00  0.00    +0.000 OA
ATOM      2  C   UNL     1       2.086   6.143  20.334  0.00  0.00    +0.000 C 
ATOM      3  C   UNL     1       1.440   7.497  20.428  0.00  0.00    +0.000 A 
ATOM      4  C   UNL     1       0.611   7.814  21.502  0.00  0.00    +0.000 A 
ATOM      5  C   UNL     1       0.044   9.081  21.532  0.00  0.00    +0.000 A 
ATOM      6  N   UNL     1       0.247  10.024  20.585  0.00  0.00    +0.000 NA
ATOM      7  C   UNL     1       1.052   9.698  19.553  0.00  0.00    +0.000 A 
ATOM      8  C   UNL     1       1.662   8.463  19.436  0.00  0.00    +0.000 A 
ATOM      9  C   UNL     1       2.521   8.222  18.266  0.00  0.00    +0.000 C 
ATOM     10  O   UNL     1       2.687   9.093  17.424  0.00  0.00    +0.000 OA
ATOM     11  C   UNL     1       3.127   6.917  18.201  0.00  0.00    +0.000 A 
ATOM     12  C   UNL     1       2.918   5.957  19.168  0.00  0.00    +0.000 A 
ATOM     13  N   UNL     1       3.635   4.842  18.803  0.00  0.00    +0.000 N 
ATOM     14  C   UNL     1       4.300   5.082  17.612  0.00  0.00    +0.000 A 
ATOM     15  C   UNL     1       5.146   4.267  16.845  0.00  0.00    +0.000 A 
ATOM     16  C   UNL     1       5.673   4.814  15.666  0.00  0.00    +0.000 A 
ATOM     17 CL   UNL     1       6.725   3.859  14.690  0.00  0.00    +0.000 Cl
ATOM     18  C   UNL     1       5.376   6.112  15.259  0.00  0.00    +0.000 A 
ATOM     19  C   UNL     1       4.532   6.907  16.030  0.00  0.00    +0.000 A 
ATOM     20  C   UNL     1       3.990   6.385  17.220  0.00  0.00    +0.000 A 
ATOM     21  H   UNL     1       3.671   3.977  19.330  0.00  0.00    +0.000 HD
ENDROOT
TORSDOF 0
ENDMDL
MODEL 7
REMARK VINA RESULT:      -7.0      1.779      1.817
REMARK  Name = 
REMARK  0 active torsions:
REMARK  status: ('A' for Active; 'I' for Inactive)
REMARK                            x       y       z     vdW  Elec       q    Type
REMARK                         _______ _______ _______ _____ _____    ______ ____
ROOT
ATOM      1  O   UNL     1       5.536   3.863  20.523  0.00  0.00    +0.000 OA
ATOM      2  C   UNL     1       4.794   3.752  19.559  0.00  0.00    +0.000 C 
ATOM      3  C   UNL     1       3.354   3.353  19.724  0.00  0.00    +0.000 A 
ATOM      4  C   UNL     1       2.829   3.099  20.988  0.00  0.00    +0.000 A 
ATOM      5  C   UNL     1       1.492   2.735  21.074  0.00  0.00    +0.000 A 
ATOM      6  N   UNL     1       0.670   2.613  20.008  0.00  0.00    +0.000 NA
ATOM      7  C   UNL     1       1.197   2.864  18.792  0.00  0.00    +0.000 A 
ATOM      8  C   UNL     1       2.517   3.232  18.605  0.00  0.00    +0.000 A 
ATOM      9  C   UNL     1       2.980   3.481  17.231  0.00  0.00    +0.000 C 
ATOM     10  O   UNL     1       2.215   3.363  16.284  0.00  0.00    +0.000 OA
ATOM     11  C   UNL     1       4.362   3.862  17.102  0.00  0.00    +0.000 A 
ATOM     12  C   UNL     1       5.198   3.985  18.192  0.00  0.00    +0.000 A 
ATOM     13  N   UNL     1       6.436   4.356  17.722  0.00  0.00    +0.000 N 
ATOM     14  C   UNL     1       6.397   4.472  16.342  0.00  0.00    +0.000 A 
ATOM     15  C   UNL     1       7.391   4.821  15.415  0.00  0.00    +0.000 A 
ATOM     16  C   UNL     1       7.028   4.851  14.061  0.00  0.00    +0.000 A 
ATOM     17 CL   UNL     1       8.207   5.280  12.880  0.00  0.00    +0.000 Cl
ATOM     18  C   UNL     1       5.737   4.546  13.637  0.00  0.00    +0.000 A 
ATOM     19  C   UNL     1       4.762   4.199  14.571  0.00  0.00    +0.000 A 
ATOM     20  C   UNL     1       5.098   4.164  15.937  0.00  0.00    +0.000 A 
ATOM     21  H   UNL     1       7.251   4.522  18.301  0.00  0.00    +0.000 HD
ENDROOT
TORSDOF 0
ENDMDL
MODEL 8
REMARK VINA RESULT:      -7.0      3.666      6.653
REMARK  Name = 
REMARK  0 active torsions:
REMARK  status: ('A' for Active; 'I' for Inactive)
REMARK                            x       y       z     vdW  Elec       q    Type
REMARK                         _______ _______ _______ _____ _____    ______ ____
ROOT
ATOM      1  O   UNL     1       4.518   3.327  19.082  0.00  0.00    +0.000 OA
ATOM      2  C   UNL     1       4.331   4.400  18.529  0.00  0.00    +0.000 C 
ATOM      3  C   UNL     1       4.994   4.732  17.222  0.00  0.00    +0.000 A 
ATOM      4  C   UNL     1       5.845   3.818  16.606  0.00  0.00    +0.000 A 
ATOM      5  C   UNL     1       6.427   4.184  15.401  0.00  0.00    +0.000 A 
ATOM      6  N   UNL     1       6.219   5.370  14.788  0.00  0.00    +0.000 NA
ATOM      7  C   UNL     1       5.392   6.242  15.400  0.00  0.00    +0.000 A 
ATOM      8  C   UNL     1       4.765   5.969  16.602  0.00  0.00    +0.000 A 
ATOM      9  C   UNL     1       3.883   6.998  17.174  0.00  0.00    +0.000 C 
ATOM     10  O   UNL     1       3.713   8.064  16.599  0.00  0.00    +0.000 OA
ATOM     11  C   UNL     1       3.261   6.654  18.426  0.00  0.00    +0.000 A 
ATOM     12  C   UNL     1       3.476   5.442  19.049  0.00  0.00    +0.000 A 
ATOM     13  N   UNL     1       2.740   5.440  20.210  0.00  0.00    +0.000 N 
ATOM     14  C   UNL     1       2.057   6.638  20.335  0.00  0.00    +0.000 A 
ATOM     15  C   UNL     1       1.188   7.109  21.331  0.00  0.00    +0.000 A 
ATOM     16  C   UNL     1       0.646   8.391  21.161  0.00  0.00    +0.000 A 
ATOM     17 CL   UNL     1      -0.433   9.015  22.350  0.00  0.00    +0.000 Cl
ATOM     18  C   UNL     1       0.951   9.179  20.054  0.00  0.00    +0.000 A 
ATOM     19  C   UNL     1       1.818   8.698  19.076  0.00  0.00    +0.000 A 
ATOM     20  C   UNL     1       2.374   7.413  19.219  0.00  0.00    +0.000 A 
ATOM     21  H   UNL     1       2.703   4.673  20.873  0.00  0.00    +0.000 HD
ENDROOT
TORSDOF 0
ENDMDL
MODEL 9
REMARK VINA RESULT:      -6.9      3.900      5.689
REMARK  Name = 
REMARK  0 active torsions:
REMARK  status: ('A' for Active; 'I' for Inactive)
REMARK                            x       y       z     vdW  Elec       q    Type
REMARK                         _______ _______ _______ _____ _____    ______ ____
ROOT
ATOM      1  O   UNL     1       1.920   4.113  21.653  0.00  0.00    +0.000 OA
ATOM      2  C   UNL     1       2.285   4.578  20.585  0.00  0.00    +0.000 C 
ATOM      3  C   UNL     1       2.983   3.728  19.560  0.00  0.00    +0.000 A 
ATOM      4  C   UNL     1       3.233   2.381  19.808  0.00  0.00    +0.000 A 
ATOM      5  C   UNL     1       3.882   1.650  18.823  0.00  0.00    +0.000 A 
ATOM      6  N   UNL     1       4.285   2.164  17.639  0.00  0.00    +0.000 NA
ATOM      7  C   UNL     1       4.034   3.470  17.418  0.00  0.00    +0.000 A 
ATOM      8  C   UNL     1       3.394   4.280  18.338  0.00  0.00    +0.000 A 
ATOM      9  C   UNL     1       3.174   5.691  17.986  0.00  0.00    +0.000 C 
ATOM     10  O   UNL     1       3.550   6.131  16.908  0.00  0.00    +0.000 OA
ATOM     11  C   UNL     1       2.503   6.482  18.984  0.00  0.00    +0.000 A 
ATOM     12  C   UNL     1       2.093   5.955  20.191  0.00  0.00    +0.000 A 
ATOM     13  N   UNL     1       1.495   6.968  20.901  0.00  0.00    +0.000 N 
ATOM     14  C   UNL     1       1.518   8.138  20.160  0.00  0.00    +0.000 A 
ATOM     15  C   UNL     1       1.040   9.425  20.447  0.00  0.00    +0.000 A 
ATOM     16  C   UNL     1       1.218  10.413  19.467  0.00  0.00    +0.000 A 
ATOM     17 CL   UNL     1       0.642  12.009  19.765  0.00  0.00    +0.000 Cl
ATOM     18  C   UNL     1       1.845  10.142  18.254  0.00  0.00    +0.000 A 
ATOM     19  C   UNL     1       2.317   8.859  17.986  0.00  0.00    +0.000 A 
ATOM     20  C   UNL     1       2.149   7.848  18.950  0.00  0.00    +0.000 A 
ATOM     21  H   UNL     1       1.096   6.870  21.828  0.00  0.00    +0.000 HD
ENDROOT
TORSDOF 0
ENDMDL
