MODEL 1
REMARK VINA RESULT:      -8.0      0.000      0.000
REMARK  Name = 
REMARK  12 active torsions:
REMARK  status: ('A' for Active; 'I' for Inactive)
REMARK    1  A    between atoms: C_1  and  C_2
REMARK    2  A    between atoms: C_2  and  C_3
REMARK    3  A    between atoms: C_3  and  C_4
REMARK    4  A    between atoms: C_4  and  C_5
REMARK    5  A    between atoms: C_5  and  C_6
REMARK    6  A    between atoms: C_6  and  C_7
REMARK    7  A    between atoms: C_7  and  C_8
REMARK    8  A    between atoms: C_8  and  C_9
REMARK    9  A    between atoms: N_11  and  C_12
REMARK   10  A    between atoms: C_12  and  C_13
REMARK   11  A    between atoms: N_20  and  C_21
REMARK   12  A    between atoms: C_21  and  C_22
REMARK                            x       y       z     vdW  Elec       q    Type
REMARK                         _______ _______ _______ _____ _____    ______ ____
ROOT
ATOM      1  C   UNL     1       5.977   6.029  17.378  0.00  0.00    +0.000 A 
ATOM      2  C   UNL     1       4.849   6.576  17.941  0.00  0.00    +0.000 A 
ATOM      3  N   UNL     1       3.815   5.723  17.601  0.00  0.00    +0.000 N 
ATOM      4  N   UNL     1       4.187   4.674  16.885  0.00  0.00    +0.000 NA
ATOM      5  N   UNL     1       5.492   4.874  16.730  0.00  0.00    +0.000 N 
ENDROOT
BRANCH   1   6
ATOM      6  C   UNL     1       7.382   6.488  17.433  0.00  0.00    +0.000 C 
BRANCH   6   7
ATOM      7  C   UNL     1       7.465   8.006  17.396  0.00  0.00    +0.000 C 
BRANCH   7   8
ATOM      8  C   UNL     1       8.397   8.557  18.469  0.00  0.00    +0.000 C 
BRANCH   8   9
ATOM      9  C   UNL     1       8.654  10.042  18.220  0.00  0.00    +0.000 C 
BRANCH   9  10
ATOM     10  C   UNL     1       9.718  10.589  19.164  0.00  0.00    +0.000 C 
BRANCH  10  11
ATOM     11  C   UNL     1       9.976  12.069  18.896  0.00  0.00    +0.000 C 
BRANCH  11  13
ATOM     12  C   UNL     1      12.303  12.337  19.811  0.00  0.00    +0.000 C 
ATOM     13  C   UNL     1      10.836  12.681  19.998  0.00  0.00    +0.000 C 
ENDBRANCH  11  13
ENDBRANCH  10  11
ENDBRANCH   9  10
ENDBRANCH   8   9
ENDBRANCH   7   8
ENDBRANCH   6   7
ENDBRANCH   1   6
BRANCH   3  14
ATOM     14  C   UNL     1       2.408   5.861  17.994  0.00  0.00    +0.000 C 
BRANCH  14  15
ATOM     15  C   UNL     1       2.045   4.806  19.008  0.00  0.00    +0.000 A 
ATOM     16  C   UNL     1       2.453   4.927  20.347  0.00  0.00    +0.000 A 
ATOM     17  C   UNL     1       2.070   3.981  21.296  0.00  0.00    +0.000 A 
ATOM     18  C   UNL     1       1.267   2.906  20.926  0.00  0.00    +0.000 A 
ATOM     19  C   UNL     1       0.856   2.770  19.602  0.00  0.00    +0.000 A 
ATOM     20  C   UNL     1       1.242   3.712  18.646  0.00  0.00    +0.000 A 
ENDBRANCH  14  15
ENDBRANCH   3  14
BRANCH   5  21
ATOM     21  C   UNL     1       6.265   3.820  16.042  0.00  0.00    +0.000 C 
BRANCH  21  22
ATOM     22  C   UNL     1       6.518   4.127  14.585  0.00  0.00    +0.000 A 
ATOM     23  C   UNL     1       7.520   5.049  14.224  0.00  0.00    +0.000 A 
ATOM     24  C   UNL     1       7.839   5.285  12.885  0.00  0.00    +0.000 A 
ATOM     25  C   UNL     1       7.172   4.592  11.879  0.00  0.00    +0.000 A 
ATOM     26  C   UNL     1       6.185   3.670  12.213  0.00  0.00    +0.000 A 
ATOM     27  C   UNL     1       5.857   3.438  13.555  0.00  0.00    +0.000 A 
ENDBRANCH  21  22
ENDBRANCH   5  21
TORSDOF 11
ENDMDL
MODEL 2
REMARK VINA RESULT:      -7.8      0.897      1.096
REMARK  Name = 
REMARK  12 active torsions:
REMARK  status: ('A' for Active; 'I' for Inactive)
REMARK    1  A    between atoms: C_1  and  C_2
REMARK    2  A    between atoms: C_2  and  C_3
REMARK    3  A    between atoms: C_3  and  C_4
REMARK    4  A    between atoms: C_4  and  C_5
REMARK    5  A    between atoms: C_5  and  C_6
REMARK    6  A    between atoms: C_6  and  C_7
REMARK    7  A    between atoms: C_7  and  C_8
REMARK    8  A    between atoms: C_8  and  C_9
REMARK    9  A    between atoms: N_11  and  C_12
REMARK   10  A    between atoms: C_12  and  C_13
REMARK   11  A    between atoms: N_20  and  C_21
REMARK   12  A    between atoms: C_21  and  C_22
REMARK                            x       y       z     vdW  Elec       q    Type
REMARK                         _______ _______ _______ _____ _____    ______ ____
ROOT
ATOM      1  C   UNL     1       6.208   6.340  17.633  0.00  0.00    +0.000 A 
ATOM      2  C   UNL     1       4.992   6.817  18.060  0.00  0.00    +0.000 A 
ATOM      3  N   UNL     1       4.049   5.963  17.519  0.00  0.00    +0.000 N 
ATOM      4  N   UNL     1       4.556   4.976  16.799  0.00  0.00    +0.000 NA
ATOM      5  N   UNL     1       5.863   5.220  16.848  0.00  0.00    +0.000 N 
ENDROOT
BRANCH   1   6
ATOM      6  C   UNL     1       7.573   6.830  17.921  0.00  0.00    +0.000 C 
BRANCH   6   7
ATOM      7  C   UNL     1       7.704   8.310  17.598  0.00  0.00    +0.000 C 
BRANCH   7   8
ATOM      8  C   UNL     1       8.599   9.039  18.593  0.00  0.00    +0.000 C 
BRANCH   8   9
ATOM      9  C   UNL     1       9.006  10.398  18.026  0.00  0.00    +0.000 C 
BRANCH   9  10
ATOM     10  C   UNL     1       9.896  11.163  18.999  0.00  0.00    +0.000 C 
BRANCH  10  11
ATOM     11  C   UNL     1       9.417  10.977  20.436  0.00  0.00    +0.000 C 
BRANCH  11  13
ATOM     12  C   UNL     1       8.868  12.167  22.583  0.00  0.00    +0.000 C 
ATOM     13  C   UNL     1       9.140  12.325  21.097  0.00  0.00    +0.000 C 
ENDBRANCH  11  13
ENDBRANCH  10  11
ENDBRANCH   9  10
ENDBRANCH   8   9
ENDBRANCH   7   8
ENDBRANCH   6   7
ENDBRANCH   1   6
BRANCH   3  14
ATOM     14  C   UNL     1       2.596   6.037  17.711  0.00  0.00    +0.000 C 
BRANCH  14  15
ATOM     15  C   UNL     1       2.143   4.966  18.672  0.00  0.00    +0.000 A 
ATOM     16  C   UNL     1       2.339   5.114  20.056  0.00  0.00    +0.000 A 
ATOM     17  C   UNL     1       1.870   4.151  20.947  0.00  0.00    +0.000 A 
ATOM     18  C   UNL     1       1.190   3.033  20.474  0.00  0.00    +0.000 A 
ATOM     19  C   UNL     1       0.989   2.870  19.104  0.00  0.00    +0.000 A 
ATOM     20  C   UNL     1       1.463   3.829  18.207  0.00  0.00    +0.000 A 
ENDBRANCH  14  15
ENDBRANCH   3  14
BRANCH   5  21
ATOM     21  C   UNL     1       6.763   4.236  16.213  0.00  0.00    +0.000 C 
BRANCH  21  22
ATOM     22  C   UNL     1       6.817   4.368  14.710  0.00  0.00    +0.000 A 
ATOM     23  C   UNL     1       7.708   5.284  14.116  0.00  0.00    +0.000 A 
ATOM     24  C   UNL     1       7.845   5.364  12.728  0.00  0.00    +0.000 A 
ATOM     25  C   UNL     1       7.107   4.518  11.906  0.00  0.00    +0.000 A 
ATOM     26  C   UNL     1       6.229   3.598  12.472  0.00  0.00    +0.000 A 
ATOM     27  C   UNL     1       6.082   3.523  13.863  0.00  0.00    +0.000 A 
ENDBRANCH  21  22
ENDBRANCH   5  21
TORSDOF 11
ENDMDL
MODEL 3
REMARK VINA RESULT:      -7.8      0.962      1.354
REMARK  Name = 
REMARK  12 active torsions:
REMARK  status: ('A' for Active; 'I' for Inactive)
REMARK    1  A    between atoms: C_1  and  C_2
REMARK    2  A    between atoms: C_2  and  C_3
REMARK    3  A    between atoms: C_3  and  C_4
REMARK    4  A    between atoms: C_4  and  C_5
REMARK    5  A    between atoms: C_5  and  C_6
REMARK    6  A    between atoms: C_6  and  C_7
REMARK    7  A    between atoms: C_7  and  C_8
REMARK    8  A    between atoms: C_8  and  C_9
REMARK    9  A    between atoms: N_11  and  C_12
REMARK   10  A    between atoms: C_12  and  C_13
REMARK   11  A    between atoms: N_20  and  C_21
REMARK   12  A    between atoms: C_21  and  C_22
REMARK                            x       y       z     vdW  Elec       q    Type
REMARK                         _______ _______ _______ _____ _____    ______ ____
ROOT
ATOM      1  C   UNL     1       5.560   6.534  17.179  0.00  0.00    +0.000 A 
ATOM      2  C   UNL     1       4.321   6.925  17.624  0.00  0.00    +0.000 A 
ATOM      3  N   UNL     1       3.520   5.803  17.521  0.00  0.00    +0.000 N 
ATOM      4  N   UNL     1       4.142   4.729  17.064  0.00  0.00    +0.000 NA
ATOM      5  N   UNL     1       5.372   5.179  16.833  0.00  0.00    +0.000 N 
ENDROOT
BRANCH   1   6
ATOM      6  C   UNL     1       6.821   7.302  17.088  0.00  0.00    +0.000 C 
BRANCH   6   7
ATOM      7  C   UNL     1       7.847   6.792  18.089  0.00  0.00    +0.000 C 
BRANCH   7   8
ATOM      8  C   UNL     1       8.482   7.925  18.887  0.00  0.00    +0.000 C 
BRANCH   8   9
ATOM      9  C   UNL     1       8.390   9.230  18.099  0.00  0.00    +0.000 C 
BRANCH   9  10
ATOM     10  C   UNL     1       9.070  10.376  18.838  0.00  0.00    +0.000 C 
BRANCH  10  11
ATOM     11  C   UNL     1      10.028  11.127  17.917  0.00  0.00    +0.000 C 
BRANCH  11  13
ATOM     12  C   UNL     1      10.737  13.449  17.258  0.00  0.00    +0.000 C 
ATOM     13  C   UNL     1       9.589  12.579  17.741  0.00  0.00    +0.000 C 
ENDBRANCH  11  13
ENDBRANCH  10  11
ENDBRANCH   9  10
ENDBRANCH   8   9
ENDBRANCH   7   8
ENDBRANCH   6   7
ENDBRANCH   1   6
BRANCH   3  14
ATOM     14  C   UNL     1       2.107   5.704  17.905  0.00  0.00    +0.000 C 
BRANCH  14  15
ATOM     15  C   UNL     1       1.932   4.663  18.982  0.00  0.00    +0.000 A 
ATOM     16  C   UNL     1       2.384   4.901  20.291  0.00  0.00    +0.000 A 
ATOM     17  C   UNL     1       2.171   3.962  21.299  0.00  0.00    +0.000 A 
ATOM     18  C   UNL     1       1.498   2.777  21.019  0.00  0.00    +0.000 A 
ATOM     19  C   UNL     1       1.045   2.524  19.725  0.00  0.00    +0.000 A 
ATOM     20  C   UNL     1       1.261   3.460  18.711  0.00  0.00    +0.000 A 
ENDBRANCH  14  15
ENDBRANCH   3  14
BRANCH   5  21
ATOM     21  C   UNL     1       6.385   4.198  16.394  0.00  0.00    +0.000 C 
BRANCH  21  22
ATOM     22  C   UNL     1       6.623   4.221  14.903  0.00  0.00    +0.000 A 
ATOM     23  C   UNL     1       5.818   3.442  14.049  0.00  0.00    +0.000 A 
ATOM     24  C   UNL     1       5.955   3.512  12.661  0.00  0.00    +0.000 A 
ATOM     25  C   UNL     1       6.890   4.375  12.098  0.00  0.00    +0.000 A 
ATOM     26  C   UNL     1       7.689   5.162  12.922  0.00  0.00    +0.000 A 
ATOM     27  C   UNL     1       7.560   5.086  14.314  0.00  0.00    +0.000 A 
ENDBRANCH  21  22
ENDBRANCH   5  21
TORSDOF 11
ENDMDL
MODEL 4
REMARK VINA RESULT:      -7.5      3.606      7.209
REMARK  Name = 
REMARK  12 active torsions:
REMARK  status: ('A' for Active; 'I' for Inactive)
REMARK    1  A    between atoms: C_1  and  C_2
REMARK    2  A    between atoms: C_2  and  C_3
REMARK    3  A    between atoms: C_3  and  C_4
REMARK    4  A    between atoms: C_4  and  C_5
REMARK    5  A    between atoms: C_5  and  C_6
REMARK    6  A    between atoms: C_6  and  C_7
REMARK    7  A    between atoms: C_7  and  C_8
REMARK    8  A    between atoms: C_8  and  C_9
REMARK    9  A    between atoms: N_11  and  C_12
REMARK   10  A    between atoms: C_12  and  C_13
REMARK   11  A    between atoms: N_20  and  C_21
REMARK   12  A    between atoms: C_21  and  C_22
REMARK                            x       y       z     vdW  Elec       q    Type
REMARK                         _______ _______ _______ _____ _____    ______ ____
ROOT
ATOM      1  C   UNL     1       5.008   5.437  17.559  0.00  0.00    +0.000 A 
ATOM      2  C   UNL     1       4.850   6.802  17.587  0.00  0.00    +0.000 A 
ATOM      3  N   UNL     1       3.485   7.015  17.622  0.00  0.00    +0.000 N 
ATOM      4  N   UNL     1       2.760   5.908  17.635  0.00  0.00    +0.000 NA
ATOM      5  N   UNL     1       3.684   4.953  17.571  0.00  0.00    +0.000 N 
ENDROOT
BRANCH   1   6
ATOM      6  C   UNL     1       6.245   4.627  17.546  0.00  0.00    +0.000 C 
BRANCH   6   7
ATOM      7  C   UNL     1       6.506   4.047  16.164  0.00  0.00    +0.000 C 
BRANCH   7   8
ATOM      8  C   UNL     1       7.271   5.015  15.270  0.00  0.00    +0.000 C 
BRANCH   8   9
ATOM      9  C   UNL     1       6.812   4.855  13.821  0.00  0.00    +0.000 C 
BRANCH   9  10
ATOM     10  C   UNL     1       5.821   3.707  13.675  0.00  0.00    +0.000 C 
BRANCH  10  11
ATOM     11  C   UNL     1       5.631   3.335  12.207  0.00  0.00    +0.000 C 
BRANCH  11  13
ATOM     12  C   UNL     1       6.443   1.250  11.057  0.00  0.00    +0.000 C 
ATOM     13  C   UNL     1       6.846   2.578  11.675  0.00  0.00    +0.000 C 
ENDBRANCH  11  13
ENDBRANCH  10  11
ENDBRANCH   9  10
ENDBRANCH   8   9
ENDBRANCH   7   8
ENDBRANCH   6   7
ENDBRANCH   1   6
BRANCH   3  14
ATOM     14  C   UNL     1       2.808   8.315  17.690  0.00  0.00    +0.000 C 
BRANCH  14  15
ATOM     15  C   UNL     1       1.964   8.399  18.938  0.00  0.00    +0.000 A 
ATOM     16  C   UNL     1       2.090   7.436  19.954  0.00  0.00    +0.000 A 
ATOM     17  C   UNL     1       1.352   7.546  21.132  0.00  0.00    +0.000 A 
ATOM     18  C   UNL     1       0.485   8.619  21.316  0.00  0.00    +0.000 A 
ATOM     19  C   UNL     1       0.347   9.580  20.316  0.00  0.00    +0.000 A 
ATOM     20  C   UNL     1       1.081   9.472  19.133  0.00  0.00    +0.000 A 
ENDBRANCH  14  15
ENDBRANCH   3  14
BRANCH   5  21
ATOM     21  C   UNL     1       3.222   3.553  17.663  0.00  0.00    +0.000 C 
BRANCH  21  22
ATOM     22  C   UNL     1       2.611   3.218  19.002  0.00  0.00    +0.000 A 
ATOM     23  C   UNL     1       3.442   2.886  20.091  0.00  0.00    +0.000 A 
ATOM     24  C   UNL     1       2.911   2.660  21.364  0.00  0.00    +0.000 A 
ATOM     25  C   UNL     1       1.541   2.778  21.577  0.00  0.00    +0.000 A 
ATOM     26  C   UNL     1       0.703   3.116  20.518  0.00  0.00    +0.000 A 
ATOM     27  C   UNL     1       1.232   3.333  19.239  0.00  0.00    +0.000 A 
ENDBRANCH  21  22
ENDBRANCH   5  21
TORSDOF 11
ENDMDL
MODEL 5
REMARK VINA RESULT:      -7.5      3.613      7.384
REMARK  Name = 
REMARK  12 active torsions:
REMARK  status: ('A' for Active; 'I' for Inactive)
REMARK    1  A    between atoms: C_1  and  C_2
REMARK    2  A    between atoms: C_2  and  C_3
REMARK    3  A    between atoms: C_3  and  C_4
REMARK    4  A    between atoms: C_4  and  C_5
REMARK    5  A    between atoms: C_5  and  C_6
REMARK    6  A    between atoms: C_6  and  C_7
REMARK    7  A    between atoms: C_7  and  C_8
REMARK    8  A    between atoms: C_8  and  C_9
REMARK    9  A    between atoms: N_11  and  C_12
REMARK   10  A    between atoms: C_12  and  C_13
REMARK   11  A    between atoms: N_20  and  C_21
REMARK   12  A    between atoms: C_21  and  C_22
REMARK                            x       y       z     vdW  Elec       q    Type
REMARK                         _______ _______ _______ _____ _____    ______ ____
ROOT
ATOM      1  C   UNL     1       4.616   5.993  17.498  0.00  0.00    +0.000 A 
ATOM      2  C   UNL     1       4.387   7.347  17.553  0.00  0.00    +0.000 A 
ATOM      3  N   UNL     1       3.016   7.485  17.663  0.00  0.00    +0.000 N 
ATOM      4  N   UNL     1       2.353   6.341  17.699  0.00  0.00    +0.000 NA
ATOM      5  N   UNL     1       3.322   5.438  17.574  0.00  0.00    +0.000 N 
ENDROOT
BRANCH   1   6
ATOM      6  C   UNL     1       5.892   5.250  17.407  0.00  0.00    +0.000 C 
BRANCH   6   7
ATOM      7  C   UNL     1       6.637   5.593  16.127  0.00  0.00    +0.000 C 
BRANCH   7   8
ATOM      8  C   UNL     1       6.961   4.354  15.301  0.00  0.00    +0.000 C 
BRANCH   8   9
ATOM      9  C   UNL     1       5.830   4.082  14.311  0.00  0.00    +0.000 C 
BRANCH   9  10
ATOM     10  C   UNL     1       6.372   3.748  12.925  0.00  0.00    +0.000 C 
BRANCH  10  11
ATOM     11  C   UNL     1       5.251   3.281  12.000  0.00  0.00    +0.000 C 
BRANCH  11  13
ATOM     12  C   UNL     1       7.075   1.761  11.172  0.00  0.00    +0.000 C 
ATOM     13  C   UNL     1       5.580   1.923  11.387  0.00  0.00    +0.000 C 
ENDBRANCH  11  13
ENDBRANCH  10  11
ENDBRANCH   9  10
ENDBRANCH   8   9
ENDBRANCH   7   8
ENDBRANCH   6   7
ENDBRANCH   1   6
BRANCH   3  14
ATOM     14  C   UNL     1       2.276   8.746  17.785  0.00  0.00    +0.000 C 
BRANCH  14  15
ATOM     15  C   UNL     1       1.555   8.802  19.108  0.00  0.00    +0.000 A 
ATOM     16  C   UNL     1       0.529   9.737  19.328  0.00  0.00    +0.000 A 
ATOM     17  C   UNL     1      -0.175   9.750  20.531  0.00  0.00    +0.000 A 
ATOM     18  C   UNL     1       0.126   8.826  21.527  0.00  0.00    +0.000 A 
ATOM     19  C   UNL     1       1.142   7.894  21.326  0.00  0.00    +0.000 A 
ATOM     20  C   UNL     1       1.854   7.880  20.125  0.00  0.00    +0.000 A 
ENDBRANCH  14  15
ENDBRANCH   3  14
BRANCH   5  21
ATOM     21  C   UNL     1       2.941   4.014  17.671  0.00  0.00    +0.000 C 
BRANCH  21  22
ATOM     22  C   UNL     1       2.573   3.595  19.074  0.00  0.00    +0.000 A 
ATOM     23  C   UNL     1       1.226   3.622  19.487  0.00  0.00    +0.000 A 
ATOM     24  C   UNL     1       0.846   3.154  20.747  0.00  0.00    +0.000 A 
ATOM     25  C   UNL     1       1.802   2.634  21.613  0.00  0.00    +0.000 A 
ATOM     26  C   UNL     1       3.137   2.588  21.222  0.00  0.00    +0.000 A 
ATOM     27  C   UNL     1       3.522   3.066  19.964  0.00  0.00    +0.000 A 
ENDBRANCH  21  22
ENDBRANCH   5  21
TORSDOF 11
ENDMDL
MODEL 6
REMARK VINA RESULT:      -7.4      2.181      4.406
REMARK  Name = 
REMARK  12 active torsions:
REMARK  status: ('A' for Active; 'I' for Inactive)
REMARK    1  A    between atoms: C_1  and  C_2
REMARK    2  A    between atoms: C_2  and  C_3
REMARK    3  A    between atoms: C_3  and  C_4
REMARK    4  A    between atoms: C_4  and  C_5
REMARK    5  A    between atoms: C_5  and  C_6
REMARK    6  A    between atoms: C_6  and  C_7
REMARK    7  A    between atoms: C_7  and  C_8
REMARK    8  A    between atoms: C_8  and  C_9
REMARK    9  A    between atoms: N_11  and  C_12
REMARK   10  A    between atoms: C_12  and  C_13
REMARK   11  A    between atoms: N_20  and  C_21
REMARK   12  A    between atoms: C_21  and  C_22
REMARK                            x       y       z     vdW  Elec       q    Type
REMARK                         _______ _______ _______ _____ _____    ______ ____
ROOT
ATOM      1  C   UNL     1       5.833   5.405  17.002  0.00  0.00    +0.000 A 
ATOM      2  C   UNL     1       5.715   4.057  17.241  0.00  0.00    +0.000 A 
ATOM      3  N   UNL     1       4.372   3.839  17.478  0.00  0.00    +0.000 N 
ATOM      4  N   UNL     1       3.620   4.924  17.396  0.00  0.00    +0.000 NA
ATOM      5  N   UNL     1       4.510   5.877  17.132  0.00  0.00    +0.000 N 
ENDROOT
BRANCH   1   6
ATOM      6  C   UNL     1       7.027   6.207  16.661  0.00  0.00    +0.000 C 
BRANCH   6   7
ATOM      7  C   UNL     1       7.575   6.924  17.885  0.00  0.00    +0.000 C 
BRANCH   7   8
ATOM      8  C   UNL     1       7.293   8.422  17.848  0.00  0.00    +0.000 C 
BRANCH   8   9
ATOM      9  C   UNL     1       8.607   9.194  17.756  0.00  0.00    +0.000 C 
BRANCH   9  10
ATOM     10  C   UNL     1       8.973   9.831  19.092  0.00  0.00    +0.000 C 
BRANCH  10  11
ATOM     11  C   UNL     1       9.445  11.270  18.898  0.00  0.00    +0.000 C 
BRANCH  11  13
ATOM     12  C   UNL     1      11.916  11.710  19.067  0.00  0.00    +0.000 C 
ATOM     13  C   UNL     1      10.774  11.311  18.148  0.00  0.00    +0.000 C 
ENDBRANCH  11  13
ENDBRANCH  10  11
ENDBRANCH   9  10
ENDBRANCH   8   9
ENDBRANCH   7   8
ENDBRANCH   6   7
ENDBRANCH   1   6
BRANCH   3  14
ATOM     14  C   UNL     1       3.735   2.546  17.757  0.00  0.00    +0.000 C 
BRANCH  14  15
ATOM     15  C   UNL     1       2.874   2.644  18.991  0.00  0.00    +0.000 A 
ATOM     16  C   UNL     1       3.450   2.617  20.272  0.00  0.00    +0.000 A 
ATOM     17  C   UNL     1       2.660   2.765  21.410  0.00  0.00    +0.000 A 
ATOM     18  C   UNL     1       1.286   2.951  21.288  0.00  0.00    +0.000 A 
ATOM     19  C   UNL     1       0.699   2.979  20.024  0.00  0.00    +0.000 A 
ATOM     20  C   UNL     1       1.486   2.825  18.881  0.00  0.00    +0.000 A 
ENDBRANCH  14  15
ENDBRANCH   3  14
BRANCH   5  21
ATOM     21  C   UNL     1       3.995   7.237  16.877  0.00  0.00    +0.000 C 
BRANCH  21  22
ATOM     22  C   UNL     1       2.988   7.691  17.908  0.00  0.00    +0.000 A 
ATOM     23  C   UNL     1       2.863   6.993  19.125  0.00  0.00    +0.000 A 
ATOM     24  C   UNL     1       2.006   7.443  20.133  0.00  0.00    +0.000 A 
ATOM     25  C   UNL     1       1.269   8.609  19.950  0.00  0.00    +0.000 A 
ATOM     26  C   UNL     1       1.385   9.320  18.759  0.00  0.00    +0.000 A 
ATOM     27  C   UNL     1       2.235   8.866  17.743  0.00  0.00    +0.000 A 
ENDBRANCH  21  22
ENDBRANCH   5  21
TORSDOF 11
ENDMDL
MODEL 7
REMARK VINA RESULT:      -7.3      2.319      4.564
REMARK  Name = 
REMARK  12 active torsions:
REMARK  status: ('A' for Active; 'I' for Inactive)
REMARK    1  A    between atoms: C_1  and  C_2
REMARK    2  A    between atoms: C_2  and  C_3
REMARK    3  A    between atoms: C_3  and  C_4
REMARK    4  A    between atoms: C_4  and  C_5
REMARK    5  A    between atoms: C_5  and  C_6
REMARK    6  A    between atoms: C_6  and  C_7
REMARK    7  A    between atoms: C_7  and  C_8
REMARK    8  A    between atoms: C_8  and  C_9
REMARK    9  A    between atoms: N_11  and  C_12
REMARK   10  A    between atoms: C_12  and  C_13
REMARK   11  A    between atoms: N_20  and  C_21
REMARK   12  A    between atoms: C_21  and  C_22
REMARK                            x       y       z     vdW  Elec       q    Type
REMARK                         _______ _______ _______ _____ _____    ______ ____
ROOT
ATOM      1  C   UNL     1       5.702   5.606  17.108  0.00  0.00    +0.000 A 
ATOM      2  C   UNL     1       5.635   4.261  17.383  0.00  0.00    +0.000 A 
ATOM      3  N   UNL     1       4.295   3.992  17.591  0.00  0.00    +0.000 N 
ATOM      4  N   UNL     1       3.502   5.042  17.458  0.00  0.00    +0.000 NA
ATOM      5  N   UNL     1       4.358   6.024  17.191  0.00  0.00    +0.000 N 
ENDROOT
BRANCH   1   6
ATOM      6  C   UNL     1       6.871   6.449  16.776  0.00  0.00    +0.000 C 
BRANCH   6   7
ATOM      7  C   UNL     1       6.893   7.714  17.620  0.00  0.00    +0.000 C 
BRANCH   7   8
ATOM      8  C   UNL     1       8.284   8.016  18.165  0.00  0.00    +0.000 C 
BRANCH   8   9
ATOM      9  C   UNL     1       8.534   9.522  18.141  0.00  0.00    +0.000 C 
BRANCH   9  10
ATOM     10  C   UNL     1       9.125  10.010  19.459  0.00  0.00    +0.000 C 
BRANCH  10  11
ATOM     11  C   UNL     1      10.132  11.133  19.222  0.00  0.00    +0.000 C 
BRANCH  11  13
ATOM     12  C   UNL     1      10.404  13.003  17.562  0.00  0.00    +0.000 C 
ATOM     13  C   UNL     1      10.189  11.510  17.744  0.00  0.00    +0.000 C 
ENDBRANCH  11  13
ENDBRANCH  10  11
ENDBRANCH   9  10
ENDBRANCH   8   9
ENDBRANCH   7   8
ENDBRANCH   6   7
ENDBRANCH   1   6
BRANCH   3  14
ATOM     14  C   UNL     1       3.706   2.682  17.889  0.00  0.00    +0.000 C 
BRANCH  14  15
ATOM     15  C   UNL     1       2.854   2.765  19.131  0.00  0.00    +0.000 A 
ATOM     16  C   UNL     1       1.455   2.872  19.035  0.00  0.00    +0.000 A 
ATOM     17  C   UNL     1       0.664   2.891  20.182  0.00  0.00    +0.000 A 
ATOM     18  C   UNL     1       1.253   2.795  21.439  0.00  0.00    +0.000 A 
ATOM     19  C   UNL     1       2.638   2.690  21.551  0.00  0.00    +0.000 A 
ATOM     20  C   UNL     1       3.436   2.676  20.405  0.00  0.00    +0.000 A 
ENDBRANCH  14  15
ENDBRANCH   3  14
BRANCH   5  21
ATOM     21  C   UNL     1       3.793   7.354  16.883  0.00  0.00    +0.000 C 
BRANCH  21  22
ATOM     22  C   UNL     1       2.910   7.891  17.985  0.00  0.00    +0.000 A 
ATOM     23  C   UNL     1       2.109   9.026  17.754  0.00  0.00    +0.000 A 
ATOM     24  C   UNL     1       1.216   9.491  18.723  0.00  0.00    +0.000 A 
ATOM     25  C   UNL     1       1.094   8.819  19.935  0.00  0.00    +0.000 A 
ATOM     26  C   UNL     1       1.868   7.688  20.180  0.00  0.00    +0.000 A 
ATOM     27  C   UNL     1       2.771   7.227  19.215  0.00  0.00    +0.000 A 
ENDBRANCH  21  22
ENDBRANCH   5  21
TORSDOF 11
ENDMDL
MODEL 8
REMARK VINA RESULT:      -7.3      3.590      7.816
REMARK  Name = 
REMARK  12 active torsions:
REMARK  status: ('A' for Active; 'I' for Inactive)
REMARK    1  A    between atoms: C_1  and  C_2
REMARK    2  A    between atoms: C_2  and  C_3
REMARK    3  A    between atoms: C_3  and  C_4
REMARK    4  A    between atoms: C_4  and  C_5
REMARK    5  A    between atoms: C_5  and  C_6
REMARK    6  A    between atoms: C_6  and  C_7
REMARK    7  A    between atoms: C_7  and  C_8
REMARK    8  A    between atoms: C_8  and  C_9
REMARK    9  A    between atoms: N_11  and  C_12
REMARK   10  A    between atoms: C_12  and  C_13
REMARK   11  A    between atoms: N_20  and  C_21
REMARK   12  A    between atoms: C_21  and  C_22
REMARK                            x       y       z     vdW  Elec       q    Type
REMARK                         _______ _______ _______ _____ _____    ______ ____
ROOT
ATOM      1  C   UNL     1       3.930   6.043  17.527  0.00  0.00    +0.000 A 
ATOM      2  C   UNL     1       5.179   6.415  17.089  0.00  0.00    +0.000 A 
ATOM      3  N   UNL     1       5.777   5.251  16.644  0.00  0.00    +0.000 N 
ATOM      4  N   UNL     1       5.015   4.174  16.744  0.00  0.00    +0.000 NA
ATOM      5  N   UNL     1       3.906   4.651  17.302  0.00  0.00    +0.000 N 
ENDROOT
BRANCH   1   6
ATOM      6  C   UNL     1       2.835   6.869  18.081  0.00  0.00    +0.000 C 
BRANCH   6   7
ATOM      7  C   UNL     1       2.811   6.799  19.600  0.00  0.00    +0.000 C 
BRANCH   7   8
ATOM      8  C   UNL     1       1.738   7.700  20.199  0.00  0.00    +0.000 C 
BRANCH   8   9
ATOM      9  C   UNL     1       1.437   8.854  19.245  0.00  0.00    +0.000 C 
BRANCH   9  10
ATOM     10  C   UNL     1       0.339   9.758  19.792  0.00  0.00    +0.000 C 
BRANCH  10  11
ATOM     11  C   UNL     1       0.863  10.618  20.939  0.00  0.00    +0.000 C 
BRANCH  11  13
ATOM     12  C   UNL     1      -0.491   9.277  22.581  0.00  0.00    +0.000 C 
ATOM     13  C   UNL     1      -0.143  10.671  22.086  0.00  0.00    +0.000 C 
ENDBRANCH  11  13
ENDBRANCH  10  11
ENDBRANCH   9  10
ENDBRANCH   8   9
ENDBRANCH   7   8
ENDBRANCH   6   7
ENDBRANCH   1   6
BRANCH   3  14
ATOM     14  C   UNL     1       7.114   5.131  16.052  0.00  0.00    +0.000 C 
BRANCH  14  15
ATOM     15  C   UNL     1       7.007   4.743  14.598  0.00  0.00    +0.000 A 
ATOM     16  C   UNL     1       6.077   3.775  14.180  0.00  0.00    +0.000 A 
ATOM     17  C   UNL     1       5.939   3.459  12.830  0.00  0.00    +0.000 A 
ATOM     18  C   UNL     1       6.719   4.107  11.877  0.00  0.00    +0.000 A 
ATOM     19  C   UNL     1       7.647   5.067  12.275  0.00  0.00    +0.000 A 
ATOM     20  C   UNL     1       7.793   5.384  13.627  0.00  0.00    +0.000 A 
ENDBRANCH  14  15
ENDBRANCH   3  14
BRANCH   5  21
ATOM     21  C   UNL     1       2.776   3.716  17.477  0.00  0.00    +0.000 C 
BRANCH  21  22
ATOM     22  C   UNL     1       2.468   3.426  18.927  0.00  0.00    +0.000 A 
ATOM     23  C   UNL     1       1.139   3.491  19.391  0.00  0.00    +0.000 A 
ATOM     24  C   UNL     1       0.812   3.139  20.703  0.00  0.00    +0.000 A 
ATOM     25  C   UNL     1       1.805   2.701  21.573  0.00  0.00    +0.000 A 
ATOM     26  C   UNL     1       3.124   2.619  21.133  0.00  0.00    +0.000 A 
ATOM     27  C   UNL     1       3.455   2.980  19.821  0.00  0.00    +0.000 A 
ENDBRANCH  21  22
ENDBRANCH   5  21
TORSDOF 11
ENDMDL
MODEL 9
REMARK VINA RESULT:      -7.2      3.909      7.763
REMARK  Name = 
REMARK  12 active torsions:
REMARK  status: ('A' for Active; 'I' for Inactive)
REMARK    1  A    between atoms: C_1  and  C_2
REMARK    2  A    between atoms: C_2  and  C_3
REMARK    3  A    between atoms: C_3  and  C_4
REMARK    4  A    between atoms: C_4  and  C_5
REMARK    5  A    between atoms: C_5  and  C_6
REMARK    6  A    between atoms: C_6  and  C_7
REMARK    7  A    between atoms: C_7  and  C_8
REMARK    8  A    between atoms: C_8  and  C_9
REMARK    9  A    between atoms: N_11  and  C_12
REMARK   10  A    between atoms: C_12  and  C_13
REMARK   11  A    between atoms: N_20  and  C_21
REMARK   12  A    between atoms: C_21  and  C_22
REMARK                            x       y       z     vdW  Elec       q    Type
REMARK                         _______ _______ _______ _____ _____    ______ ____
ROOT
ATOM      1  C   UNL     1       1.979   7.376  19.910  0.00  0.00    +0.000 A 
ATOM      2  C   UNL     1       1.414   8.616  20.087  0.00  0.00    +0.000 A 
ATOM      3  N   UNL     1       1.669   9.309  18.919  0.00  0.00    +0.000 N 
ATOM      4  N   UNL     1       2.333   8.617  18.008  0.00  0.00    +0.000 NA
ATOM      5  N   UNL     1       2.542   7.455  18.619  0.00  0.00    +0.000 N 
ENDROOT
BRANCH   1   6
ATOM      6  C   UNL     1       1.997   6.205  20.813  0.00  0.00    +0.000 C 
BRANCH   6   7
ATOM      7  C   UNL     1       1.278   5.019  20.188  0.00  0.00    +0.000 C 
BRANCH   7   8
ATOM      8  C   UNL     1       1.367   3.770  21.057  0.00  0.00    +0.000 C 
BRANCH   8   9
ATOM      9  C   UNL     1       1.720   2.562  20.192  0.00  0.00    +0.000 C 
BRANCH   9  10
ATOM     10  C   UNL     1       3.229   2.403  20.046  0.00  0.00    +0.000 C 
BRANCH  10  11
ATOM     11  C   UNL     1       3.578   1.708  18.732  0.00  0.00    +0.000 C 
BRANCH  11  13
ATOM     12  C   UNL     1       2.517   3.104  16.929  0.00  0.00    +0.000 C 
ATOM     13  C   UNL     1       3.815   2.729  17.622  0.00  0.00    +0.000 C 
ENDBRANCH  11  13
ENDBRANCH  10  11
ENDBRANCH   9  10
ENDBRANCH   8   9
ENDBRANCH   7   8
ENDBRANCH   6   7
ENDBRANCH   1   6
BRANCH   3  14
ATOM     14  C   UNL     1       1.239  10.677  18.607  0.00  0.00    +0.000 C 
BRANCH  14  15
ATOM     15  C   UNL     1      -0.254  10.721  18.403  0.00  0.00    +0.000 A 
ATOM     16  C   UNL     1      -0.886   9.814  17.535  0.00  0.00    +0.000 A 
ATOM     17  C   UNL     1      -2.273   9.817  17.391  0.00  0.00    +0.000 A 
ATOM     18  C   UNL     1      -3.049  10.717  18.114  0.00  0.00    +0.000 A 
ATOM     19  C   UNL     1      -2.437  11.625  18.977  0.00  0.00    +0.000 A 
ATOM     20  C   UNL     1      -1.048  11.629  19.122  0.00  0.00    +0.000 A 
ENDBRANCH  14  15
ENDBRANCH   3  14
BRANCH   5  21
ATOM     21  C   UNL     1       3.191   6.382  17.838  0.00  0.00    +0.000 C 
BRANCH  21  22
ATOM     22  C   UNL     1       4.683   6.308  18.062  0.00  0.00    +0.000 A 
ATOM     23  C   UNL     1       5.199   5.511  19.103  0.00  0.00    +0.000 A 
ATOM     24  C   UNL     1       6.576   5.350  19.277  0.00  0.00    +0.000 A 
ATOM     25  C   UNL     1       7.464   5.970  18.404  0.00  0.00    +0.000 A 
ATOM     26  C   UNL     1       6.976   6.755  17.363  0.00  0.00    +0.000 A 
ATOM     27  C   UNL     1       5.597   6.925  17.192  0.00  0.00    +0.000 A 
ENDBRANCH  21  22
ENDBRANCH   5  21
TORSDOF 11
ENDMDL
