MODEL 1
REMARK VINA RESULT:      -7.3      0.000      0.000
REMARK  Name = 
REMARK  3 active torsions:
REMARK  status: ('A' for Active; 'I' for Inactive)
REMARK    1  A    between atoms: C_2  and  C_10
REMARK    2  A    between atoms: N_3  and  C_4
REMARK    3  A    between atoms: C_13  and  O_14
REMARK                            x       y       z     vdW  Elec       q    Type
REMARK                         _______ _______ _______ _____ _____    ______ ____
ROOT
ATOM      1  O   UNL     1       5.856   4.223  18.868  0.00  0.00    +0.000 OA
ATOM      2  C   UNL     1       5.192   4.306  17.839  0.00  0.00    +0.000 C 
ATOM      3  N   UNL     1       3.818   4.152  17.733  0.00  0.00    +0.000 N 
ATOM      4  H   UNL     1       3.429   4.168  16.795  0.00  0.00    +0.000 HD
ENDROOT
BRANCH   3   5
ATOM      5  C   UNL     1       2.939   3.874  18.806  0.00  0.00    +0.000 A 
ATOM      6  C   UNL     1       2.584   2.576  19.186  0.00  0.00    +0.000 A 
ATOM      7  C   UNL     1       1.680   2.349  20.225  0.00  0.00    +0.000 A 
ATOM      8  C   UNL     1       1.123   3.422  20.908  0.00  0.00    +0.000 A 
ATOM      9  C   UNL     1       1.484   4.722  20.558  0.00  0.00    +0.000 A 
ATOM     10  C   UNL     1       2.395   4.949  19.517  0.00  0.00    +0.000 A 
ENDBRANCH   3   5
BRANCH   2  11
ATOM     11  C   UNL     1       5.932   4.554  16.574  0.00  0.00    +0.000 A 
ATOM     12  C   UNL     1       5.579   3.846  15.431  0.00  0.00    +0.000 A 
ATOM     13  C   UNL     1       6.242   4.125  14.244  0.00  0.00    +0.000 A 
ATOM     14  C   UNL     1       7.228   5.091  14.271  0.00  0.00    +0.000 A 
ATOM     15  N   UNL     1       7.569   5.754  15.398  0.00  0.00    +0.000 NA
ATOM     16  N   UNL     1       6.909   5.488  16.573  0.00  0.00    +0.000 NA
BRANCH  14  17
ATOM     17  O   UNL     1       7.904   5.437  13.138  0.00  0.00    +0.000 OA
ATOM     18  H   UNL     1       8.125   6.379  13.194  0.00  0.00    +0.000 HD
ENDBRANCH  14  17
ENDBRANCH   2  11
TORSDOF 3
ENDMDL
MODEL 2
REMARK VINA RESULT:      -7.3      0.855      1.253
REMARK  Name = 
REMARK  3 active torsions:
REMARK  status: ('A' for Active; 'I' for Inactive)
REMARK    1  A    between atoms: C_2  and  C_10
REMARK    2  A    between atoms: N_3  and  C_4
REMARK    3  A    between atoms: C_13  and  O_14
REMARK                            x       y       z     vdW  Elec       q    Type
REMARK                         _______ _______ _______ _____ _____    ______ ____
ROOT
ATOM      1  O   UNL     1       5.332   5.353  19.238  0.00  0.00    +0.000 OA
ATOM      2  C   UNL     1       4.972   4.697  18.265  0.00  0.00    +0.000 C 
ATOM      3  N   UNL     1       3.902   3.816  18.218  0.00  0.00    +0.000 N 
ATOM      4  H   UNL     1       3.788   3.285  17.359  0.00  0.00    +0.000 HD
ENDROOT
BRANCH   3   5
ATOM      5  C   UNL     1       3.032   3.525  19.294  0.00  0.00    +0.000 A 
ATOM      6  C   UNL     1       1.725   4.016  19.374  0.00  0.00    +0.000 A 
ATOM      7  C   UNL     1       0.914   3.737  20.476  0.00  0.00    +0.000 A 
ATOM      8  C   UNL     1       1.399   2.953  21.514  0.00  0.00    +0.000 A 
ATOM      9  C   UNL     1       2.691   2.436  21.439  0.00  0.00    +0.000 A 
ATOM     10  C   UNL     1       3.503   2.713  20.331  0.00  0.00    +0.000 A 
ENDBRANCH   3   5
BRANCH   2  11
ATOM     11  C   UNL     1       5.784   4.822  17.027  0.00  0.00    +0.000 A 
ATOM     12  C   UNL     1       5.537   3.964  15.962  0.00  0.00    +0.000 A 
ATOM     13  C   UNL     1       6.267   4.126  14.792  0.00  0.00    +0.000 A 
ATOM     14  C   UNL     1       7.209   5.134  14.759  0.00  0.00    +0.000 A 
ATOM     15  N   UNL     1       7.448   5.945  15.813  0.00  0.00    +0.000 NA
ATOM     16  N   UNL     1       6.721   5.795  16.969  0.00  0.00    +0.000 NA
BRANCH  14  17
ATOM     17  O   UNL     1       7.945   5.370  13.635  0.00  0.00    +0.000 OA
ATOM     18  H   UNL     1       8.171   4.517  13.236  0.00  0.00    +0.000 HD
ENDBRANCH  14  17
ENDBRANCH   2  11
TORSDOF 3
ENDMDL
MODEL 3
REMARK VINA RESULT:      -7.3      0.505      1.212
REMARK  Name = 
REMARK  3 active torsions:
REMARK  status: ('A' for Active; 'I' for Inactive)
REMARK    1  A    between atoms: C_2  and  C_10
REMARK    2  A    between atoms: N_3  and  C_4
REMARK    3  A    between atoms: C_13  and  O_14
REMARK                            x       y       z     vdW  Elec       q    Type
REMARK                         _______ _______ _______ _____ _____    ______ ____
ROOT
ATOM      1  O   UNL     1       5.655   3.848  18.603  0.00  0.00    +0.000 OA
ATOM      2  C   UNL     1       5.061   4.284  17.622  0.00  0.00    +0.000 C 
ATOM      3  N   UNL     1       3.696   4.508  17.520  0.00  0.00    +0.000 N 
ATOM      4  H   UNL     1       3.349   4.792  16.609  0.00  0.00    +0.000 HD
ENDROOT
BRANCH   3   5
ATOM      5  C   UNL     1       2.748   4.274  18.544  0.00  0.00    +0.000 A 
ATOM      6  C   UNL     1       2.621   5.095  19.669  0.00  0.00    +0.000 A 
ATOM      7  C   UNL     1       1.700   4.803  20.676  0.00  0.00    +0.000 A 
ATOM      8  C   UNL     1       0.884   3.684  20.567  0.00  0.00    +0.000 A 
ATOM      9  C   UNL     1       0.981   2.869  19.441  0.00  0.00    +0.000 A 
ATOM     10  C   UNL     1       1.904   3.165  18.429  0.00  0.00    +0.000 A 
ENDBRANCH   3   5
BRANCH   2  11
ATOM     11  C   UNL     1       5.871   4.559  16.407  0.00  0.00    +0.000 A 
ATOM     12  C   UNL     1       5.575   3.888  15.226  0.00  0.00    +0.000 A 
ATOM     13  C   UNL     1       6.306   4.193  14.085  0.00  0.00    +0.000 A 
ATOM     14  C   UNL     1       7.297   5.148  14.195  0.00  0.00    +0.000 A 
ATOM     15  N   UNL     1       7.582   5.774  15.358  0.00  0.00    +0.000 NA
ATOM     16  N   UNL     1       6.856   5.482  16.486  0.00  0.00    +0.000 NA
BRANCH  14  17
ATOM     17  O   UNL     1       8.038   5.518  13.111  0.00  0.00    +0.000 OA
ATOM     18  H   UNL     1       7.455   5.981  12.490  0.00  0.00    +0.000 HD
ENDBRANCH  14  17
ENDBRANCH   2  11
TORSDOF 3
ENDMDL
MODEL 4
REMARK VINA RESULT:      -7.3      0.948      1.010
REMARK  Name = 
REMARK  3 active torsions:
REMARK  status: ('A' for Active; 'I' for Inactive)
REMARK    1  A    between atoms: C_2  and  C_10
REMARK    2  A    between atoms: N_3  and  C_4
REMARK    3  A    between atoms: C_13  and  O_14
REMARK                            x       y       z     vdW  Elec       q    Type
REMARK                         _______ _______ _______ _____ _____    ______ ____
ROOT
ATOM      1  O   UNL     1       4.716   5.824  18.780  0.00  0.00    +0.000 OA
ATOM      2  C   UNL     1       4.683   4.872  18.006  0.00  0.00    +0.000 C 
ATOM      3  N   UNL     1       3.929   3.717  18.155  0.00  0.00    +0.000 N 
ATOM      4  H   UNL     1       4.079   2.985  17.467  0.00  0.00    +0.000 HD
ENDROOT
BRANCH   3   5
ATOM      5  C   UNL     1       3.059   3.440  19.235  0.00  0.00    +0.000 A 
ATOM      6  C   UNL     1       3.487   2.852  20.430  0.00  0.00    +0.000 A 
ATOM      7  C   UNL     1       2.585   2.557  21.454  0.00  0.00    +0.000 A 
ATOM      8  C   UNL     1       1.238   2.857  21.300  0.00  0.00    +0.000 A 
ATOM      9  C   UNL     1       0.798   3.465  20.126  0.00  0.00    +0.000 A 
ATOM     10  C   UNL     1       1.705   3.763  19.100  0.00  0.00    +0.000 A 
ENDBRANCH   3   5
BRANCH   2  11
ATOM     11  C   UNL     1       5.566   4.939  16.812  0.00  0.00    +0.000 A 
ATOM     12  C   UNL     1       5.247   4.187  15.688  0.00  0.00    +0.000 A 
ATOM     13  C   UNL     1       6.051   4.299  14.562  0.00  0.00    +0.000 A 
ATOM     14  C   UNL     1       7.134   5.152  14.629  0.00  0.00    +0.000 A 
ATOM     15  N   UNL     1       7.437   5.860  15.739  0.00  0.00    +0.000 NA
ATOM     16  N   UNL     1       6.639   5.759  16.853  0.00  0.00    +0.000 NA
BRANCH  14  17
ATOM     17  O   UNL     1       7.952   5.334  13.553  0.00  0.00    +0.000 OA
ATOM     18  H   UNL     1       7.984   6.282  13.354  0.00  0.00    +0.000 HD
ENDBRANCH  14  17
ENDBRANCH   2  11
TORSDOF 3
ENDMDL
MODEL 5
REMARK VINA RESULT:      -6.9      1.229      1.229
REMARK  Name = 
REMARK  3 active torsions:
REMARK  status: ('A' for Active; 'I' for Inactive)
REMARK    1  A    between atoms: C_2  and  C_10
REMARK    2  A    between atoms: N_3  and  C_4
REMARK    3  A    between atoms: C_13  and  O_14
REMARK                            x       y       z     vdW  Elec       q    Type
REMARK                         _______ _______ _______ _____ _____    ______ ____
ROOT
ATOM      1  O   UNL     1       3.375   3.513  16.701  0.00  0.00    +0.000 OA
ATOM      2  C   UNL     1       4.413   3.981  17.157  0.00  0.00    +0.000 C 
ATOM      3  N   UNL     1       4.691   4.217  18.496  0.00  0.00    +0.000 N 
ATOM      4  H   UNL     1       5.566   4.689  18.702  0.00  0.00    +0.000 HD
ENDROOT
BRANCH   3   5
ATOM      5  C   UNL     1       3.814   3.950  19.573  0.00  0.00    +0.000 A 
ATOM      6  C   UNL     1       3.744   2.707  20.211  0.00  0.00    +0.000 A 
ATOM      7  C   UNL     1       2.834   2.475  21.244  0.00  0.00    +0.000 A 
ATOM      8  C   UNL     1       1.983   3.491  21.660  0.00  0.00    +0.000 A 
ATOM      9  C   UNL     1       2.057   4.743  21.052  0.00  0.00    +0.000 A 
ATOM     10  C   UNL     1       2.973   4.975  20.018  0.00  0.00    +0.000 A 
ENDBRANCH   3   5
BRANCH   2  11
ATOM     11  C   UNL     1       5.464   4.376  16.182  0.00  0.00    +0.000 A 
ATOM     12  C   UNL     1       5.416   3.869  14.889  0.00  0.00    +0.000 A 
ATOM     13  C   UNL     1       6.372   4.287  13.974  0.00  0.00    +0.000 A 
ATOM     14  C   UNL     1       7.328   5.182  14.409  0.00  0.00    +0.000 A 
ATOM     15  N   UNL     1       7.369   5.647  15.677  0.00  0.00    +0.000 NA
ATOM     16  N   UNL     1       6.419   5.244  16.583  0.00  0.00    +0.000 NA
BRANCH  14  17
ATOM     17  O   UNL     1       8.283   5.658  13.560  0.00  0.00    +0.000 OA
ATOM     18  H   UNL     1       7.963   6.489  13.178  0.00  0.00    +0.000 HD
ENDBRANCH  14  17
ENDBRANCH   2  11
TORSDOF 3
ENDMDL
MODEL 6
REMARK VINA RESULT:      -6.8      1.233      1.690
REMARK  Name = 
REMARK  3 active torsions:
REMARK  status: ('A' for Active; 'I' for Inactive)
REMARK    1  A    between atoms: C_2  and  C_10
REMARK    2  A    between atoms: N_3  and  C_4
REMARK    3  A    between atoms: C_13  and  O_14
REMARK                            x       y       z     vdW  Elec       q    Type
REMARK                         _______ _______ _______ _____ _____    ______ ____
ROOT
ATOM      1  O   UNL     1       3.324   3.523  16.661  0.00  0.00    +0.000 OA
ATOM      2  C   UNL     1       4.349   4.004  17.133  0.00  0.00    +0.000 C 
ATOM      3  N   UNL     1       4.596   4.258  18.474  0.00  0.00    +0.000 N 
ATOM      4  H   UNL     1       5.464   4.739  18.693  0.00  0.00    +0.000 HD
ENDROOT
BRANCH   3   5
ATOM      5  C   UNL     1       3.699   3.999  19.536  0.00  0.00    +0.000 A 
ATOM      6  C   UNL     1       2.778   4.942  20.005  0.00  0.00    +0.000 A 
ATOM      7  C   UNL     1       1.939   4.657  21.084  0.00  0.00    +0.000 A 
ATOM      8  C   UNL     1       2.005   3.418  21.706  0.00  0.00    +0.000 A 
ATOM      9  C   UNL     1       2.901   2.459  21.237  0.00  0.00    +0.000 A 
ATOM     10  C   UNL     1       3.739   2.744  20.151  0.00  0.00    +0.000 A 
ENDBRANCH   3   5
BRANCH   2  11
ATOM     11  C   UNL     1       5.418   4.393  16.175  0.00  0.00    +0.000 A 
ATOM     12  C   UNL     1       5.391   3.883  14.883  0.00  0.00    +0.000 A 
ATOM     13  C   UNL     1       6.364   4.296  13.983  0.00  0.00    +0.000 A 
ATOM     14  C   UNL     1       7.315   5.191  14.433  0.00  0.00    +0.000 A 
ATOM     15  N   UNL     1       7.334   5.659  15.700  0.00  0.00    +0.000 NA
ATOM     16  N   UNL     1       6.367   5.261  16.591  0.00  0.00    +0.000 NA
BRANCH  14  17
ATOM     17  O   UNL     1       8.286   5.661  13.599  0.00  0.00    +0.000 OA
ATOM     18  H   UNL     1       9.026   5.973  14.142  0.00  0.00    +0.000 HD
ENDBRANCH  14  17
ENDBRANCH   2  11
TORSDOF 3
ENDMDL
MODEL 7
REMARK VINA RESULT:      -6.5      2.308      6.735
REMARK  Name = 
REMARK  3 active torsions:
REMARK  status: ('A' for Active; 'I' for Inactive)
REMARK    1  A    between atoms: C_2  and  C_10
REMARK    2  A    between atoms: N_3  and  C_4
REMARK    3  A    between atoms: C_13  and  O_14
REMARK                            x       y       z     vdW  Elec       q    Type
REMARK                         _______ _______ _______ _____ _____    ______ ____
ROOT
ATOM      1  O   UNL     1       3.333   5.573  17.598  0.00  0.00    +0.000 OA
ATOM      2  C   UNL     1       3.776   4.536  18.082  0.00  0.00    +0.000 C 
ATOM      3  N   UNL     1       4.846   3.796  17.602  0.00  0.00    +0.000 N 
ATOM      4  H   UNL     1       5.035   2.914  18.069  0.00  0.00    +0.000 HD
ENDROOT
BRANCH   3   5
ATOM      5  C   UNL     1       5.619   4.118  16.462  0.00  0.00    +0.000 A 
ATOM      6  C   UNL     1       6.866   4.748  16.537  0.00  0.00    +0.000 A 
ATOM      7  C   UNL     1       7.576   5.085  15.383  0.00  0.00    +0.000 A 
ATOM      8  C   UNL     1       7.050   4.788  14.133  0.00  0.00    +0.000 A 
ATOM      9  C   UNL     1       5.820   4.140  14.040  0.00  0.00    +0.000 A 
ATOM     10  C   UNL     1       5.109   3.798  15.199  0.00  0.00    +0.000 A 
ENDBRANCH   3   5
BRANCH   2  11
ATOM     11  C   UNL     1       3.075   3.992  19.275  0.00  0.00    +0.000 A 
ATOM     12  C   UNL     1       1.774   4.399  19.543  0.00  0.00    +0.000 A 
ATOM     13  C   UNL     1       1.112   3.844  20.629  0.00  0.00    +0.000 A 
ATOM     14  C   UNL     1       1.796   2.918  21.392  0.00  0.00    +0.000 A 
ATOM     15  N   UNL     1       3.069   2.552  21.126  0.00  0.00    +0.000 NA
ATOM     16  N   UNL     1       3.724   3.091  20.046  0.00  0.00    +0.000 NA
BRANCH  14  17
ATOM     17  O   UNL     1       1.202   2.311  22.459  0.00  0.00    +0.000 OA
ATOM     18  H   UNL     1       0.258   2.214  22.265  0.00  0.00    +0.000 HD
ENDBRANCH  14  17
ENDBRANCH   2  11
TORSDOF 3
ENDMDL
MODEL 8
REMARK VINA RESULT:      -6.4      2.302      6.686
REMARK  Name = 
REMARK  3 active torsions:
REMARK  status: ('A' for Active; 'I' for Inactive)
REMARK    1  A    between atoms: C_2  and  C_10
REMARK    2  A    between atoms: N_3  and  C_4
REMARK    3  A    between atoms: C_13  and  O_14
REMARK                            x       y       z     vdW  Elec       q    Type
REMARK                         _______ _______ _______ _____ _____    ______ ____
ROOT
ATOM      1  O   UNL     1       3.447   5.701  17.691  0.00  0.00    +0.000 OA
ATOM      2  C   UNL     1       3.803   4.593  18.080  0.00  0.00    +0.000 C 
ATOM      3  N   UNL     1       4.770   3.789  17.497  0.00  0.00    +0.000 N 
ATOM      4  H   UNL     1       4.889   2.861  17.892  0.00  0.00    +0.000 HD
ENDROOT
BRANCH   3   5
ATOM      5  C   UNL     1       5.522   4.115  16.344  0.00  0.00    +0.000 A 
ATOM      6  C   UNL     1       5.099   3.813  15.045  0.00  0.00    +0.000 A 
ATOM      7  C   UNL     1       5.892   4.117  13.938  0.00  0.00    +0.000 A 
ATOM      8  C   UNL     1       7.122   4.737  14.114  0.00  0.00    +0.000 A 
ATOM      9  C   UNL     1       7.548   5.067  15.400  0.00  0.00    +0.000 A 
ATOM     10  C   UNL     1       6.749   4.765  16.510  0.00  0.00    +0.000 A 
ENDBRANCH   3   5
BRANCH   2  11
ATOM     11  C   UNL     1       3.102   4.035  19.266  0.00  0.00    +0.000 A 
ATOM     12  C   UNL     1       1.813   4.465  19.559  0.00  0.00    +0.000 A 
ATOM     13  C   UNL     1       1.151   3.897  20.639  0.00  0.00    +0.000 A 
ATOM     14  C   UNL     1       1.822   2.937  21.370  0.00  0.00    +0.000 A 
ATOM     15  N   UNL     1       3.083   2.548  21.080  0.00  0.00    +0.000 NA
ATOM     16  N   UNL     1       3.738   3.100  20.007  0.00  0.00    +0.000 NA
BRANCH  14  17
ATOM     17  O   UNL     1       1.226   2.316  22.428  0.00  0.00    +0.000 OA
ATOM     18  H   UNL     1       1.111   2.968  23.136  0.00  0.00    +0.000 HD
ENDBRANCH  14  17
ENDBRANCH   2  11
TORSDOF 3
ENDMDL
MODEL 9
REMARK VINA RESULT:      -6.3      1.424      2.196
REMARK  Name = 
REMARK  3 active torsions:
REMARK  status: ('A' for Active; 'I' for Inactive)
REMARK    1  A    between atoms: C_2  and  C_10
REMARK    2  A    between atoms: N_3  and  C_4
REMARK    3  A    between atoms: C_13  and  O_14
REMARK                            x       y       z     vdW  Elec       q    Type
REMARK                         _______ _______ _______ _____ _____    ______ ____
ROOT
ATOM      1  O   UNL     1       5.994   6.011  18.240  0.00  0.00    +0.000 OA
ATOM      2  C   UNL     1       5.244   5.715  17.316  0.00  0.00    +0.000 C 
ATOM      3  N   UNL     1       3.859   5.669  17.364  0.00  0.00    +0.000 N 
ATOM      4  H   UNL     1       3.386   5.322  16.534  0.00  0.00    +0.000 HD
ENDROOT
BRANCH   3   5
ATOM      5  C   UNL     1       3.068   5.964  18.498  0.00  0.00    +0.000 A 
ATOM      6  C   UNL     1       2.701   7.266  18.856  0.00  0.00    +0.000 A 
ATOM      7  C   UNL     1       1.954   7.515  20.009  0.00  0.00    +0.000 A 
ATOM      8  C   UNL     1       1.555   6.460  20.819  0.00  0.00    +0.000 A 
ATOM      9  C   UNL     1       1.892   5.155  20.465  0.00  0.00    +0.000 A 
ATOM     10  C   UNL     1       2.639   4.906  19.305  0.00  0.00    +0.000 A 
ENDBRANCH   3   5
BRANCH   2  11
ATOM     11  C   UNL     1       5.877   5.324  16.029  0.00  0.00    +0.000 A 
ATOM     12  C   UNL     1       5.195   4.474  15.166  0.00  0.00    +0.000 A 
ATOM     13  C   UNL     1       5.774   4.159  13.945  0.00  0.00    +0.000 A 
ATOM     14  C   UNL     1       7.009   4.708  13.660  0.00  0.00    +0.000 A 
ATOM     15  N   UNL     1       7.664   5.517  14.521  0.00  0.00    +0.000 NA
ATOM     16  N   UNL     1       7.090   5.839  15.727  0.00  0.00    +0.000 NA
BRANCH  14  17
ATOM     17  O   UNL     1       7.627   4.465  12.469  0.00  0.00    +0.000 OA
ATOM     18  H   UNL     1       8.560   4.270  12.646  0.00  0.00    +0.000 HD
ENDBRANCH  14  17
ENDBRANCH   2  11
TORSDOF 3
ENDMDL
