MODEL 1
REMARK VINA RESULT:      -7.8      0.000      0.000
REMARK  Name = 
REMARK  16 active torsions:
REMARK  status: ('A' for Active; 'I' for Inactive)
REMARK    1  A    between atoms: C_1  and  C_2
REMARK    2  A    between atoms: C_2  and  C_3
REMARK    3  A    between atoms: C_3  and  C_4
REMARK    4  A    between atoms: C_4  and  C_5
REMARK    5  A    between atoms: C_5  and  C_6
REMARK    6  A    between atoms: N_8  and  C_9
REMARK    7  A    between atoms: C_11  and  C_12
REMARK    8  A    between atoms: C_12  and  O_14
REMARK    9  A    between atoms: C_16  and  O_17
REMARK   10  A    between atoms: O_17  and  C_18
REMARK   11  A    between atoms: C_18  and  C_19
REMARK   12  A    between atoms: C_18  and  C_21
REMARK   13  A    between atoms: C_19  and  C_20
REMARK   14  A    between atoms: C_21  and  C_22
REMARK   15  A    between atoms: C_23  and  N_24
REMARK   16  A    between atoms: C_25  and  C_26
REMARK                            x       y       z     vdW  Elec       q    Type
REMARK                         _______ _______ _______ _____ _____    ______ ____
ROOT
ATOM      1  C   UNL     1       4.349   4.662  18.445  0.00  0.00    +0.000 C 
ATOM      2  C   UNL     1       5.398   5.358  19.315  0.00  0.00    +0.000 C 
ATOM      3  C   UNL     1       6.727   5.478  18.620  0.00  0.00    +0.000 C 
ATOM      4  C   UNL     1       6.837   5.334  17.277  0.00  0.00    +0.000 C 
ATOM      5  C   UNL     1       5.643   5.167  16.319  0.00  0.00    +0.000 C 
ATOM      6  C   UNL     1       4.276   5.335  17.056  0.00  0.00    +0.000 C 
ENDROOT
BRANCH   6   7
ATOM      7  N   UNL     1       3.881   6.758  17.140  0.00  0.00    +0.000 N 
ATOM      8  C   UNL     1       2.774   7.167  17.852  0.00  0.00    +0.000 C 
ATOM      9  C   UNL     1       2.479   8.639  17.765  0.00  0.00    +0.000 C 
ATOM     10  O   UNL     1       2.071   6.408  18.510  0.00  0.00    +0.000 OA
ATOM     11  H   UNL     1       4.263   7.403  16.460  0.00  0.00    +0.000 HD
ENDBRANCH   6   7
BRANCH   1  14
ATOM     12  C   UNL     1       3.649   2.260  18.150  0.00  0.00    +0.000 C 
ATOM     13  O   UNL     1       3.960   1.075  18.197  0.00  0.00    +0.000 OA
ATOM     14  N   UNL     1       4.599   3.224  18.349  0.00  0.00    +0.000 N 
ATOM     15  H   UNL     1       5.495   2.847  18.640  0.00  0.00    +0.000 HD
BRANCH  12  16
ATOM     16  C   UNL     1       2.245   2.758  17.873  0.00  0.00    +0.000 C 
BRANCH  16  17
ATOM     17  C   UNL     1       1.228   2.138  18.803  0.00  0.00    +0.000 C 
BRANCH  17  18
ATOM     18  C   UNL     1       0.737   3.161  19.819  0.00  0.00    +0.000 C 
BRANCH  18  20
ATOM     19  C   UNL     1       2.323   4.242  21.443  0.00  0.00    +0.000 C 
ATOM     20  C   UNL     1       1.524   2.998  21.111  0.00  0.00    +0.000 C 
ENDBRANCH  18  20
ENDBRANCH  17  18
ENDBRANCH  16  17
ENDBRANCH  12  16
ENDBRANCH   1  14
BRANCH   3  21
ATOM     21  C   UNL     1       7.823   5.804  19.598  0.00  0.00    +0.000 C 
ATOM     22  O   UNL     1       7.984   5.177  20.626  0.00  0.00    +0.000 OA
BRANCH  21  23
ATOM     23  O   UNL     1       8.602   6.835  19.238  0.00  0.00    +0.000 OA
ATOM     24  H   UNL     1       8.318   7.314  18.443  0.00  0.00    +0.000 HD
ENDBRANCH  21  23
ENDBRANCH   3  21
BRANCH   5  25
ATOM     25  O   UNL     1       5.812   3.915  15.627  0.00  0.00    +0.000 OA
BRANCH  25  26
ATOM     26  C   UNL     1       6.318   3.949  14.275  0.00  0.00    +0.000 C 
BRANCH  26  27
ATOM     27  C   UNL     1       5.246   3.895  13.164  0.00  0.00    +0.000 C 
ATOM     28  C   UNL     1       5.462   2.893  12.038  0.00  0.00    +0.000 C 
ENDBRANCH  26  27
BRANCH  26  29
ATOM     29  C   UNL     1       7.234   5.176  14.126  0.00  0.00    +0.000 C 
ATOM     30  C   UNL     1       7.902   5.224  12.756  0.00  0.00    +0.000 C 
ENDBRANCH  26  29
ENDBRANCH  25  26
ENDBRANCH   5  25
TORSDOF 12
ENDMDL
MODEL 2
REMARK VINA RESULT:      -7.3      0.531      1.416
REMARK  Name = 
REMARK  16 active torsions:
REMARK  status: ('A' for Active; 'I' for Inactive)
REMARK    1  A    between atoms: C_1  and  C_2
REMARK    2  A    between atoms: C_2  and  C_3
REMARK    3  A    between atoms: C_3  and  C_4
REMARK    4  A    between atoms: C_4  and  C_5
REMARK    5  A    between atoms: C_5  and  C_6
REMARK    6  A    between atoms: N_8  and  C_9
REMARK    7  A    between atoms: C_11  and  C_12
REMARK    8  A    between atoms: C_12  and  O_14
REMARK    9  A    between atoms: C_16  and  O_17
REMARK   10  A    between atoms: O_17  and  C_18
REMARK   11  A    between atoms: C_18  and  C_19
REMARK   12  A    between atoms: C_18  and  C_21
REMARK   13  A    between atoms: C_19  and  C_20
REMARK   14  A    between atoms: C_21  and  C_22
REMARK   15  A    between atoms: C_23  and  N_24
REMARK   16  A    between atoms: C_25  and  C_26
REMARK                            x       y       z     vdW  Elec       q    Type
REMARK                         _______ _______ _______ _____ _____    ______ ____
ROOT
ATOM      1  C   UNL     1       4.322   4.933  18.444  0.00  0.00    +0.000 C 
ATOM      2  C   UNL     1       5.442   5.579  19.263  0.00  0.00    +0.000 C 
ATOM      3  C   UNL     1       6.697   5.773  18.457  0.00  0.00    +0.000 C 
ATOM      4  C   UNL     1       6.681   5.732  17.102  0.00  0.00    +0.000 C 
ATOM      5  C   UNL     1       5.403   5.618  16.252  0.00  0.00    +0.000 C 
ATOM      6  C   UNL     1       4.110   5.708  17.125  0.00  0.00    +0.000 C 
ENDROOT
BRANCH   6   7
ATOM      7  N   UNL     1       3.712   7.113  17.354  0.00  0.00    +0.000 N 
ATOM      8  C   UNL     1       2.479   7.447  17.873  0.00  0.00    +0.000 C 
ATOM      9  C   UNL     1       2.216   8.924  17.968  0.00  0.00    +0.000 C 
ATOM     10  O   UNL     1       1.648   6.622  18.235  0.00  0.00    +0.000 OA
ATOM     11  H   UNL     1       4.234   7.843  16.885  0.00  0.00    +0.000 HD
ENDBRANCH   6   7
BRANCH   1  14
ATOM     12  C   UNL     1       3.625   2.564  17.944  0.00  0.00    +0.000 C 
ATOM     13  O   UNL     1       3.940   1.381  17.880  0.00  0.00    +0.000 OA
ATOM     14  N   UNL     1       4.574   3.511  18.216  0.00  0.00    +0.000 N 
ATOM     15  H   UNL     1       5.475   3.114  18.459  0.00  0.00    +0.000 HD
BRANCH  12  16
ATOM     16  C   UNL     1       2.215   3.079  17.733  0.00  0.00    +0.000 C 
BRANCH  16  17
ATOM     17  C   UNL     1       1.248   2.524  18.754  0.00  0.00    +0.000 C 
BRANCH  17  18
ATOM     18  C   UNL     1       0.999   3.538  19.863  0.00  0.00    +0.000 C 
BRANCH  18  20
ATOM     19  C   UNL     1       2.697   2.724  21.528  0.00  0.00    +0.000 C 
ATOM     20  C   UNL     1       1.223   2.868  21.211  0.00  0.00    +0.000 C 
ENDBRANCH  18  20
ENDBRANCH  17  18
ENDBRANCH  16  17
ENDBRANCH  12  16
ENDBRANCH   1  14
BRANCH   3  21
ATOM     21  C   UNL     1       7.879   6.043  19.350  0.00  0.00    +0.000 C 
ATOM     22  O   UNL     1       8.666   6.942  19.131  0.00  0.00    +0.000 OA
BRANCH  21  23
ATOM     23  O   UNL     1       7.985   5.214  20.399  0.00  0.00    +0.000 OA
ATOM     24  H   UNL     1       7.870   5.629  21.269  0.00  0.00    +0.000 HD
ENDBRANCH  21  23
ENDBRANCH   3  21
BRANCH   5  25
ATOM     25  O   UNL     1       5.516   4.425  15.453  0.00  0.00    +0.000 OA
BRANCH  25  26
ATOM     26  C   UNL     1       5.876   4.570  14.062  0.00  0.00    +0.000 C 
BRANCH  26  27
ATOM     27  C   UNL     1       7.384   4.435  13.749  0.00  0.00    +0.000 C 
ATOM     28  C   UNL     1       8.028   5.553  12.942  0.00  0.00    +0.000 C 
ENDBRANCH  26  27
BRANCH  26  29
ATOM     29  C   UNL     1       5.030   3.589  13.232  0.00  0.00    +0.000 C 
ATOM     30  C   UNL     1       5.808   3.031  12.044  0.00  0.00    +0.000 C 
ENDBRANCH  26  29
ENDBRANCH  25  26
ENDBRANCH   5  25
TORSDOF 12
ENDMDL
MODEL 3
REMARK VINA RESULT:      -6.8      2.051      6.614
REMARK  Name = 
REMARK  16 active torsions:
REMARK  status: ('A' for Active; 'I' for Inactive)
REMARK    1  A    between atoms: C_1  and  C_2
REMARK    2  A    between atoms: C_2  and  C_3
REMARK    3  A    between atoms: C_3  and  C_4
REMARK    4  A    between atoms: C_4  and  C_5
REMARK    5  A    between atoms: C_5  and  C_6
REMARK    6  A    between atoms: N_8  and  C_9
REMARK    7  A    between atoms: C_11  and  C_12
REMARK    8  A    between atoms: C_12  and  O_14
REMARK    9  A    between atoms: C_16  and  O_17
REMARK   10  A    between atoms: O_17  and  C_18
REMARK   11  A    between atoms: C_18  and  C_19
REMARK   12  A    between atoms: C_18  and  C_21
REMARK   13  A    between atoms: C_19  and  C_20
REMARK   14  A    between atoms: C_21  and  C_22
REMARK   15  A    between atoms: C_23  and  N_24
REMARK   16  A    between atoms: C_25  and  C_26
REMARK                            x       y       z     vdW  Elec       q    Type
REMARK                         _______ _______ _______ _____ _____    ______ ____
ROOT
ATOM      1  C   UNL     1       5.982   4.087  17.450  0.00  0.00    +0.000 C 
ATOM      2  C   UNL     1       5.176   2.787  17.491  0.00  0.00    +0.000 C 
ATOM      3  C   UNL     1       3.722   3.029  17.792  0.00  0.00    +0.000 C 
ATOM      4  C   UNL     1       3.165   4.257  17.653  0.00  0.00    +0.000 C 
ATOM      5  C   UNL     1       3.894   5.480  17.066  0.00  0.00    +0.000 C 
ATOM      6  C   UNL     1       5.304   5.106  16.507  0.00  0.00    +0.000 C 
ENDROOT
BRANCH   6   7
ATOM      7  N   UNL     1       5.219   4.615  15.115  0.00  0.00    +0.000 N 
ATOM      8  C   UNL     1       6.334   4.498  14.312  0.00  0.00    +0.000 C 
ATOM      9  C   UNL     1       6.050   4.055  12.904  0.00  0.00    +0.000 C 
ATOM     10  O   UNL     1       7.474   4.731  14.696  0.00  0.00    +0.000 OA
ATOM     11  H   UNL     1       4.314   4.617  14.659  0.00  0.00    +0.000 HD
ENDBRANCH   6   7
BRANCH   1  14
ATOM     12  C   UNL     1       7.036   5.661  19.111  0.00  0.00    +0.000 C 
ATOM     13  O   UNL     1       7.218   5.961  20.286  0.00  0.00    +0.000 OA
ATOM     14  N   UNL     1       6.195   4.631  18.790  0.00  0.00    +0.000 N 
ATOM     15  H   UNL     1       5.869   4.116  19.601  0.00  0.00    +0.000 HD
BRANCH  12  16
ATOM     16  C   UNL     1       7.691   6.371  17.943  0.00  0.00    +0.000 C 
BRANCH  16  17
ATOM     17  C   UNL     1       8.430   7.616  18.377  0.00  0.00    +0.000 C 
BRANCH  17  18
ATOM     18  C   UNL     1       7.760   8.862  17.811  0.00  0.00    +0.000 C 
BRANCH  18  20
ATOM     19  C   UNL     1       9.238  10.230  19.315  0.00  0.00    +0.000 C 
ATOM     20  C   UNL     1       8.726  10.034  17.903  0.00  0.00    +0.000 C 
ENDBRANCH  18  20
ENDBRANCH  17  18
ENDBRANCH  16  17
ENDBRANCH  12  16
ENDBRANCH   1  14
BRANCH   3  21
ATOM     21  C   UNL     1       3.033   1.755  18.202  0.00  0.00    +0.000 C 
ATOM     22  O   UNL     1       1.839   1.702  18.418  0.00  0.00    +0.000 OA
BRANCH  21  23
ATOM     23  O   UNL     1       3.845   0.692  18.306  0.00  0.00    +0.000 OA
ATOM     24  H   UNL     1       4.659   0.838  18.813  0.00  0.00    +0.000 HD
ENDBRANCH  21  23
ENDBRANCH   3  21
BRANCH   5  25
ATOM     25  O   UNL     1       3.892   6.512  18.071  0.00  0.00    +0.000 OA
BRANCH  25  26
ATOM     26  C   UNL     1       2.636   7.150  18.386  0.00  0.00    +0.000 C 
BRANCH  26  27
ATOM     27  C   UNL     1       2.268   7.188  19.886  0.00  0.00    +0.000 C 
ATOM     28  C   UNL     1       1.825   5.879  20.526  0.00  0.00    +0.000 C 
ENDBRANCH  26  27
BRANCH  26  29
ATOM     29  C   UNL     1       2.632   8.557  17.761  0.00  0.00    +0.000 C 
ATOM     30  C   UNL     1       1.312   9.282  18.003  0.00  0.00    +0.000 C 
ENDBRANCH  26  29
ENDBRANCH  25  26
ENDBRANCH   5  25
TORSDOF 12
ENDMDL
MODEL 4
REMARK VINA RESULT:      -6.8      2.267      6.450
REMARK  Name = 
REMARK  16 active torsions:
REMARK  status: ('A' for Active; 'I' for Inactive)
REMARK    1  A    between atoms: C_1  and  C_2
REMARK    2  A    between atoms: C_2  and  C_3
REMARK    3  A    between atoms: C_3  and  C_4
REMARK    4  A    between atoms: C_4  and  C_5
REMARK    5  A    between atoms: C_5  and  C_6
REMARK    6  A    between atoms: N_8  and  C_9
REMARK    7  A    between atoms: C_11  and  C_12
REMARK    8  A    between atoms: C_12  and  O_14
REMARK    9  A    between atoms: C_16  and  O_17
REMARK   10  A    between atoms: O_17  and  C_18
REMARK   11  A    between atoms: C_18  and  C_19
REMARK   12  A    between atoms: C_18  and  C_21
REMARK   13  A    between atoms: C_19  and  C_20
REMARK   14  A    between atoms: C_21  and  C_22
REMARK   15  A    between atoms: C_23  and  N_24
REMARK   16  A    between atoms: C_25  and  C_26
REMARK                            x       y       z     vdW  Elec       q    Type
REMARK                         _______ _______ _______ _____ _____    ______ ____
ROOT
ATOM      1  C   UNL     1       5.227   6.461  18.231  0.00  0.00    +0.000 C 
ATOM      2  C   UNL     1       5.566   6.327  16.744  0.00  0.00    +0.000 C 
ATOM      3  C   UNL     1       5.201   4.973  16.197  0.00  0.00    +0.000 C 
ATOM      4  C   UNL     1       4.342   4.154  16.852  0.00  0.00    +0.000 C 
ATOM      5  C   UNL     1       3.563   4.546  18.120  0.00  0.00    +0.000 C 
ATOM      6  C   UNL     1       3.758   6.053  18.483  0.00  0.00    +0.000 C 
ENDROOT
BRANCH   6   7
ATOM      7  N   UNL     1       2.802   6.912  17.751  0.00  0.00    +0.000 N 
ATOM      8  C   UNL     1       2.065   7.889  18.385  0.00  0.00    +0.000 C 
ATOM      9  C   UNL     1       1.088   8.613  17.500  0.00  0.00    +0.000 C 
ATOM     10  O   UNL     1       2.179   8.162  19.574  0.00  0.00    +0.000 OA
ATOM     11  H   UNL     1       2.489   6.610  16.836  0.00  0.00    +0.000 HD
ENDBRANCH   6   7
BRANCH   1  14
ATOM     12  C   UNL     1       7.524   5.818  19.042  0.00  0.00    +0.000 C 
ATOM     13  O   UNL     1       8.213   5.053  19.708  0.00  0.00    +0.000 OA
ATOM     14  N   UNL     1       6.161   5.706  19.065  0.00  0.00    +0.000 N 
ATOM     15  H   UNL     1       5.836   4.889  19.572  0.00  0.00    +0.000 HD
BRANCH  12  16
ATOM     16  C   UNL     1       8.084   6.921  18.167  0.00  0.00    +0.000 C 
BRANCH  16  17
ATOM     17  C   UNL     1       8.593   8.089  18.981  0.00  0.00    +0.000 C 
BRANCH  17  18
ATOM     18  C   UNL     1       8.477   9.385  18.188  0.00  0.00    +0.000 C 
BRANCH  18  20
ATOM     19  C   UNL     1       9.973  11.391  17.951  0.00  0.00    +0.000 C 
ATOM     20  C   UNL     1       9.237  10.485  18.916  0.00  0.00    +0.000 C 
ENDBRANCH  18  20
ENDBRANCH  17  18
ENDBRANCH  16  17
ENDBRANCH  12  16
ENDBRANCH   1  14
BRANCH   3  21
ATOM     21  C   UNL     1       5.872   4.724  14.874  0.00  0.00    +0.000 C 
ATOM     22  O   UNL     1       6.328   5.624  14.197  0.00  0.00    +0.000 OA
BRANCH  21  23
ATOM     23  O   UNL     1       5.926   3.434  14.510  0.00  0.00    +0.000 OA
ATOM     24  H   UNL     1       6.785   3.001  14.639  0.00  0.00    +0.000 HD
ENDBRANCH  21  23
ENDBRANCH   3  21
BRANCH   5  25
ATOM     25  O   UNL     1       3.927   3.619  19.160  0.00  0.00    +0.000 OA
BRANCH  25  26
ATOM     26  C   UNL     1       2.883   2.814  19.748  0.00  0.00    +0.000 C 
BRANCH  26  27
ATOM     27  C   UNL     1       2.920   2.700  21.289  0.00  0.00    +0.000 C 
ATOM     28  C   UNL     1       1.583   2.688  22.017  0.00  0.00    +0.000 C 
ENDBRANCH  26  27
BRANCH  26  29
ATOM     29  C   UNL     1       1.523   3.333  19.247  0.00  0.00    +0.000 C 
ATOM     30  C   UNL     1       0.685   2.222  18.623  0.00  0.00    +0.000 C 
ENDBRANCH  26  29
ENDBRANCH  25  26
ENDBRANCH   5  25
TORSDOF 12
ENDMDL
MODEL 5
REMARK VINA RESULT:      -6.7      0.720      1.395
REMARK  Name = 
REMARK  16 active torsions:
REMARK  status: ('A' for Active; 'I' for Inactive)
REMARK    1  A    between atoms: C_1  and  C_2
REMARK    2  A    between atoms: C_2  and  C_3
REMARK    3  A    between atoms: C_3  and  C_4
REMARK    4  A    between atoms: C_4  and  C_5
REMARK    5  A    between atoms: C_5  and  C_6
REMARK    6  A    between atoms: N_8  and  C_9
REMARK    7  A    between atoms: C_11  and  C_12
REMARK    8  A    between atoms: C_12  and  O_14
REMARK    9  A    between atoms: C_16  and  O_17
REMARK   10  A    between atoms: O_17  and  C_18
REMARK   11  A    between atoms: C_18  and  C_19
REMARK   12  A    between atoms: C_18  and  C_21
REMARK   13  A    between atoms: C_19  and  C_20
REMARK   14  A    between atoms: C_21  and  C_22
REMARK   15  A    between atoms: C_23  and  N_24
REMARK   16  A    between atoms: C_25  and  C_26
REMARK                            x       y       z     vdW  Elec       q    Type
REMARK                         _______ _______ _______ _____ _____    ______ ____
ROOT
ATOM      1  C   UNL     1       4.490   4.919  18.605  0.00  0.00    +0.000 C 
ATOM      2  C   UNL     1       5.631   5.698  19.265  0.00  0.00    +0.000 C 
ATOM      3  C   UNL     1       6.848   5.779  18.385  0.00  0.00    +0.000 C 
ATOM      4  C   UNL     1       6.777   5.528  17.054  0.00  0.00    +0.000 C 
ATOM      5  C   UNL     1       5.468   5.268  16.288  0.00  0.00    +0.000 C 
ATOM      6  C   UNL     1       4.210   5.477  17.191  0.00  0.00    +0.000 C 
ENDROOT
BRANCH   6   7
ATOM      7  N   UNL     1       3.796   6.896  17.218  0.00  0.00    +0.000 N 
ATOM      8  C   UNL     1       2.754   7.338  18.005  0.00  0.00    +0.000 C 
ATOM      9  C   UNL     1       2.422   8.796  17.849  0.00  0.00    +0.000 C 
ATOM     10  O   UNL     1       2.134   6.617  18.778  0.00  0.00    +0.000 OA
ATOM     11  H   UNL     1       4.097   7.499  16.461  0.00  0.00    +0.000 HD
ENDBRANCH   6   7
BRANCH   1  14
ATOM     12  C   UNL     1       4.358   2.583  19.538  0.00  0.00    +0.000 C 
ATOM     13  O   UNL     1       4.736   1.418  19.477  0.00  0.00    +0.000 OA
ATOM     14  N   UNL     1       4.759   3.482  18.588  0.00  0.00    +0.000 N 
ATOM     15  H   UNL     1       5.456   3.107  17.953  0.00  0.00    +0.000 HD
BRANCH  12  16
ATOM     16  C   UNL     1       3.442   3.122  20.618  0.00  0.00    +0.000 C 
BRANCH  16  17
ATOM     17  C   UNL     1       2.164   2.324  20.731  0.00  0.00    +0.000 C 
BRANCH  17  18
ATOM     18  C   UNL     1       0.982   3.128  20.203  0.00  0.00    +0.000 C 
BRANCH  18  20
ATOM     19  C   UNL     1       1.221   3.579  17.742  0.00  0.00    +0.000 C 
ATOM     20  C   UNL     1       0.646   2.656  18.796  0.00  0.00    +0.000 C 
ENDBRANCH  18  20
ENDBRANCH  17  18
ENDBRANCH  16  17
ENDBRANCH  12  16
ENDBRANCH   1  14
BRANCH   3  21
ATOM     21  C   UNL     1       8.060   6.198  19.172  0.00  0.00    +0.000 C 
ATOM     22  O   UNL     1       8.620   7.261  18.987  0.00  0.00    +0.000 OA
BRANCH  21  23
ATOM     23  O   UNL     1       8.464   5.307  20.090  0.00  0.00    +0.000 OA
ATOM     24  H   UNL     1       8.583   4.400  19.765  0.00  0.00    +0.000 HD
ENDBRANCH  21  23
ENDBRANCH   3  21
BRANCH   5  25
ATOM     25  O   UNL     1       5.570   3.966  15.679  0.00  0.00    +0.000 OA
BRANCH  25  26
ATOM     26  C   UNL     1       6.165   3.875  14.367  0.00  0.00    +0.000 C 
BRANCH  26  27
ATOM     27  C   UNL     1       5.170   3.870  13.185  0.00  0.00    +0.000 C 
ATOM     28  C   UNL     1       5.425   2.868  12.067  0.00  0.00    +0.000 C 
ENDBRANCH  26  27
BRANCH  26  29
ATOM     29  C   UNL     1       7.213   4.994  14.226  0.00  0.00    +0.000 C 
ATOM     30  C   UNL     1       7.753   5.091  12.802  0.00  0.00    +0.000 C 
ENDBRANCH  26  29
ENDBRANCH  25  26
ENDBRANCH   5  25
TORSDOF 12
ENDMDL
MODEL 6
REMARK VINA RESULT:      -6.7      1.725      4.972
REMARK  Name = 
REMARK  16 active torsions:
REMARK  status: ('A' for Active; 'I' for Inactive)
REMARK    1  A    between atoms: C_1  and  C_2
REMARK    2  A    between atoms: C_2  and  C_3
REMARK    3  A    between atoms: C_3  and  C_4
REMARK    4  A    between atoms: C_4  and  C_5
REMARK    5  A    between atoms: C_5  and  C_6
REMARK    6  A    between atoms: N_8  and  C_9
REMARK    7  A    between atoms: C_11  and  C_12
REMARK    8  A    between atoms: C_12  and  O_14
REMARK    9  A    between atoms: C_16  and  O_17
REMARK   10  A    between atoms: O_17  and  C_18
REMARK   11  A    between atoms: C_18  and  C_19
REMARK   12  A    between atoms: C_18  and  C_21
REMARK   13  A    between atoms: C_19  and  C_20
REMARK   14  A    between atoms: C_21  and  C_22
REMARK   15  A    between atoms: C_23  and  N_24
REMARK   16  A    between atoms: C_25  and  C_26
REMARK                            x       y       z     vdW  Elec       q    Type
REMARK                         _______ _______ _______ _____ _____    ______ ____
ROOT
ATOM      1  C   UNL     1       5.220   4.320  17.288  0.00  0.00    +0.000 C 
ATOM      2  C   UNL     1       6.119   4.043  16.081  0.00  0.00    +0.000 C 
ATOM      3  C   UNL     1       5.997   5.107  15.025  0.00  0.00    +0.000 C 
ATOM      4  C   UNL     1       5.458   6.320  15.301  0.00  0.00    +0.000 C 
ATOM      5  C   UNL     1       5.042   6.786  16.708  0.00  0.00    +0.000 C 
ATOM      6  C   UNL     1       5.452   5.756  17.809  0.00  0.00    +0.000 C 
ENDROOT
BRANCH   6   7
ATOM      7  N   UNL     1       6.844   5.974  18.259  0.00  0.00    +0.000 N 
ATOM      8  C   UNL     1       7.295   5.525  19.482  0.00  0.00    +0.000 C 
ATOM      9  C   UNL     1       8.714   5.901  19.805  0.00  0.00    +0.000 C 
ATOM     10  O   UNL     1       6.610   4.870  20.260  0.00  0.00    +0.000 OA
ATOM     11  H   UNL     1       7.395   6.682  17.789  0.00  0.00    +0.000 HD
ENDBRANCH   6   7
BRANCH   1  14
ATOM     12  C   UNL     1       3.035   3.092  17.545  0.00  0.00    +0.000 C 
ATOM     13  O   UNL     1       1.898   2.899  17.130  0.00  0.00    +0.000 OA
ATOM     14  N   UNL     1       3.813   4.065  16.981  0.00  0.00    +0.000 N 
ATOM     15  H   UNL     1       3.394   4.482  16.156  0.00  0.00    +0.000 HD
BRANCH  12  16
ATOM     16  C   UNL     1       3.667   2.314  18.681  0.00  0.00    +0.000 C 
BRANCH  16  17
ATOM     17  C   UNL     1       3.656   3.090  19.978  0.00  0.00    +0.000 C 
BRANCH  17  18
ATOM     18  C   UNL     1       2.854   2.349  21.040  0.00  0.00    +0.000 C 
BRANCH  18  20
ATOM     19  C   UNL     1       0.622   3.284  20.362  0.00  0.00    +0.000 C 
ATOM     20  C   UNL     1       1.666   3.205  21.456  0.00  0.00    +0.000 C 
ENDBRANCH  18  20
ENDBRANCH  17  18
ENDBRANCH  16  17
ENDBRANCH  12  16
ENDBRANCH   1  14
BRANCH   3  21
ATOM     21  C   UNL     1       6.574   4.640  13.716  0.00  0.00    +0.000 C 
ATOM     22  O   UNL     1       6.127   3.685  13.112  0.00  0.00    +0.000 OA
BRANCH  21  23
ATOM     23  O   UNL     1       7.613   5.365  13.275  0.00  0.00    +0.000 OA
ATOM     24  H   UNL     1       7.831   5.251  12.335  0.00  0.00    +0.000 HD
ENDBRANCH  21  23
ENDBRANCH   3  21
BRANCH   5  25
ATOM     25  O   UNL     1       3.637   7.102  16.664  0.00  0.00    +0.000 OA
BRANCH  25  26
ATOM     26  C   UNL     1       3.046   7.730  17.823  0.00  0.00    +0.000 C 
BRANCH  26  27
ATOM     27  C   UNL     1       2.395   9.108  17.572  0.00  0.00    +0.000 C 
ATOM     28  C   UNL     1       1.043   9.366  18.222  0.00  0.00    +0.000 C 
ENDBRANCH  26  27
BRANCH  26  29
ATOM     29  C   UNL     1       2.058   6.739  18.465  0.00  0.00    +0.000 C 
ATOM     30  C   UNL     1       2.395   6.469  19.928  0.00  0.00    +0.000 C 
ENDBRANCH  26  29
ENDBRANCH  25  26
ENDBRANCH   5  25
TORSDOF 12
ENDMDL
MODEL 7
REMARK VINA RESULT:      -6.7      0.838      1.502
REMARK  Name = 
REMARK  16 active torsions:
REMARK  status: ('A' for Active; 'I' for Inactive)
REMARK    1  A    between atoms: C_1  and  C_2
REMARK    2  A    between atoms: C_2  and  C_3
REMARK    3  A    between atoms: C_3  and  C_4
REMARK    4  A    between atoms: C_4  and  C_5
REMARK    5  A    between atoms: C_5  and  C_6
REMARK    6  A    between atoms: N_8  and  C_9
REMARK    7  A    between atoms: C_11  and  C_12
REMARK    8  A    between atoms: C_12  and  O_14
REMARK    9  A    between atoms: C_16  and  O_17
REMARK   10  A    between atoms: O_17  and  C_18
REMARK   11  A    between atoms: C_18  and  C_19
REMARK   12  A    between atoms: C_18  and  C_21
REMARK   13  A    between atoms: C_19  and  C_20
REMARK   14  A    between atoms: C_21  and  C_22
REMARK   15  A    between atoms: C_23  and  N_24
REMARK   16  A    between atoms: C_25  and  C_26
REMARK                            x       y       z     vdW  Elec       q    Type
REMARK                         _______ _______ _______ _____ _____    ______ ____
ROOT
ATOM      1  C   UNL     1       4.286   4.892  18.474  0.00  0.00    +0.000 C 
ATOM      2  C   UNL     1       5.406   5.470  19.343  0.00  0.00    +0.000 C 
ATOM      3  C   UNL     1       6.683   5.664  18.571  0.00  0.00    +0.000 C 
ATOM      4  C   UNL     1       6.694   5.684  17.215  0.00  0.00    +0.000 C 
ATOM      5  C   UNL     1       5.431   5.644  16.335  0.00  0.00    +0.000 C 
ATOM      6  C   UNL     1       4.123   5.731  17.186  0.00  0.00    +0.000 C 
ENDROOT
BRANCH   6   7
ATOM      7  N   UNL     1       3.758   7.135  17.471  0.00  0.00    +0.000 N 
ATOM      8  C   UNL     1       2.450   7.524  17.667  0.00  0.00    +0.000 C 
ATOM      9  C   UNL     1       2.258   9.001  17.870  0.00  0.00    +0.000 C 
ATOM     10  O   UNL     1       1.504   6.745  17.679  0.00  0.00    +0.000 OA
ATOM     11  H   UNL     1       4.434   7.860  17.260  0.00  0.00    +0.000 HD
ENDBRANCH   6   7
BRANCH   1  14
ATOM     12  C   UNL     1       4.173   2.433  19.007  0.00  0.00    +0.000 C 
ATOM     13  O   UNL     1       4.505   1.290  18.710  0.00  0.00    +0.000 OA
ATOM     14  N   UNL     1       4.505   3.476  18.186  0.00  0.00    +0.000 N 
ATOM     15  H   UNL     1       5.120   3.205  17.426  0.00  0.00    +0.000 HD
BRANCH  12  16
ATOM     16  C   UNL     1       3.392   2.793  20.254  0.00  0.00    +0.000 C 
BRANCH  16  17
ATOM     17  C   UNL     1       2.006   2.191  20.250  0.00  0.00    +0.000 C 
BRANCH  17  18
ATOM     18  C   UNL     1       0.995   3.169  20.835  0.00  0.00    +0.000 C 
BRANCH  18  20
ATOM     19  C   UNL     1       1.563   5.616  20.928  0.00  0.00    +0.000 C 
ATOM     20  C   UNL     1       1.063   4.478  20.063  0.00  0.00    +0.000 C 
ENDBRANCH  18  20
ENDBRANCH  17  18
ENDBRANCH  16  17
ENDBRANCH  12  16
ENDBRANCH   1  14
BRANCH   3  21
ATOM     21  C   UNL     1       7.852   5.861  19.497  0.00  0.00    +0.000 C 
ATOM     22  O   UNL     1       8.027   5.166  20.479  0.00  0.00    +0.000 OA
BRANCH  21  23
ATOM     23  O   UNL     1       8.679   6.857  19.148  0.00  0.00    +0.000 OA
ATOM     24  H   UNL     1       8.358   7.752  19.343  0.00  0.00    +0.000 HD
ENDBRANCH  21  23
ENDBRANCH   3  21
BRANCH   5  25
ATOM     25  O   UNL     1       5.529   4.485  15.486  0.00  0.00    +0.000 OA
BRANCH  25  26
ATOM     26  C   UNL     1       6.005   4.671  14.136  0.00  0.00    +0.000 C 
BRANCH  26  27
ATOM     27  C   UNL     1       7.449   5.207  14.009  0.00  0.00    +0.000 C 
ATOM     28  C   UNL     1       7.990   5.416  12.601  0.00  0.00    +0.000 C 
ENDBRANCH  26  27
BRANCH  26  29
ATOM     29  C   UNL     1       5.815   3.352  13.364  0.00  0.00    +0.000 C 
ATOM     30  C   UNL     1       4.919   3.532  12.143  0.00  0.00    +0.000 C 
ENDBRANCH  26  29
ENDBRANCH  25  26
ENDBRANCH   5  25
TORSDOF 12
ENDMDL
MODEL 8
REMARK VINA RESULT:      -6.6      1.480      6.153
REMARK  Name = 
REMARK  16 active torsions:
REMARK  status: ('A' for Active; 'I' for Inactive)
REMARK    1  A    between atoms: C_1  and  C_2
REMARK    2  A    between atoms: C_2  and  C_3
REMARK    3  A    between atoms: C_3  and  C_4
REMARK    4  A    between atoms: C_4  and  C_5
REMARK    5  A    between atoms: C_5  and  C_6
REMARK    6  A    between atoms: N_8  and  C_9
REMARK    7  A    between atoms: C_11  and  C_12
REMARK    8  A    between atoms: C_12  and  O_14
REMARK    9  A    between atoms: C_16  and  O_17
REMARK   10  A    between atoms: O_17  and  C_18
REMARK   11  A    between atoms: C_18  and  C_19
REMARK   12  A    between atoms: C_18  and  C_21
REMARK   13  A    between atoms: C_19  and  C_20
REMARK   14  A    between atoms: C_21  and  C_22
REMARK   15  A    between atoms: C_23  and  N_24
REMARK   16  A    between atoms: C_25  and  C_26
REMARK                            x       y       z     vdW  Elec       q    Type
REMARK                         _______ _______ _______ _____ _____    ______ ____
ROOT
ATOM      1  C   UNL     1       5.664   4.084  17.074  0.00  0.00    +0.000 C 
ATOM      2  C   UNL     1       6.959   4.458  17.798  0.00  0.00    +0.000 C 
ATOM      3  C   UNL     1       6.746   5.535  18.827  0.00  0.00    +0.000 C 
ATOM      4  C   UNL     1       5.508   5.831  19.294  0.00  0.00    +0.000 C 
ATOM      5  C   UNL     1       4.234   5.043  18.940  0.00  0.00    +0.000 C 
ATOM      6  C   UNL     1       4.552   3.765  18.099  0.00  0.00    +0.000 C 
ENDROOT
BRANCH   6   7
ATOM      7  N   UNL     1       4.899   2.620  18.968  0.00  0.00    +0.000 N 
ATOM      8  C   UNL     1       3.963   1.681  19.345  0.00  0.00    +0.000 C 
ATOM      9  C   UNL     1       4.474   0.630  20.292  0.00  0.00    +0.000 C 
ATOM     10  O   UNL     1       2.802   1.683  18.953  0.00  0.00    +0.000 OA
ATOM     11  H   UNL     1       5.756   2.667  19.505  0.00  0.00    +0.000 HD
ENDBRANCH   6   7
BRANCH   1  14
ATOM     12  C   UNL     1       5.643   5.197  14.814  0.00  0.00    +0.000 C 
ATOM     13  O   UNL     1       5.331   6.173  14.140  0.00  0.00    +0.000 OA
ATOM     14  N   UNL     1       5.260   5.120  16.125  0.00  0.00    +0.000 N 
ATOM     15  H   UNL     1       4.824   5.972  16.464  0.00  0.00    +0.000 HD
BRANCH  12  16
ATOM     16  C   UNL     1       6.446   4.024  14.288  0.00  0.00    +0.000 C 
BRANCH  16  17
ATOM     17  C   UNL     1       6.561   4.045  12.781  0.00  0.00    +0.000 C 
BRANCH  17  18
ATOM     18  C   UNL     1       5.570   3.073  12.154  0.00  0.00    +0.000 C 
BRANCH  18  20
ATOM     19  C   UNL     1       3.462   2.953  10.791  0.00  0.00    +0.000 C 
ATOM     20  C   UNL     1       4.441   3.861  11.505  0.00  0.00    +0.000 C 
ENDBRANCH  18  20
ENDBRANCH  17  18
ENDBRANCH  16  17
ENDBRANCH  12  16
ENDBRANCH   1  14
BRANCH   3  21
ATOM     21  C   UNL     1       8.053   6.151  19.247  0.00  0.00    +0.000 C 
ATOM     22  O   UNL     1       8.436   7.220  18.815  0.00  0.00    +0.000 OA
BRANCH  21  23
ATOM     23  O   UNL     1       8.751   5.426  20.134  0.00  0.00    +0.000 OA
ATOM     24  H   UNL     1       9.049   4.558  19.819  0.00  0.00    +0.000 HD
ENDBRANCH  21  23
ENDBRANCH   3  21
BRANCH   5  25
ATOM     25  O   UNL     1       3.310   5.961  18.326  0.00  0.00    +0.000 OA
BRANCH  25  26
ATOM     26  C   UNL     1       2.127   6.331  19.067  0.00  0.00    +0.000 C 
BRANCH  26  27
ATOM     27  C   UNL     1       1.958   5.639  20.438  0.00  0.00    +0.000 C 
ATOM     28  C   UNL     1       1.096   4.385  20.482  0.00  0.00    +0.000 C 
ENDBRANCH  26  27
BRANCH  26  29
ATOM     29  C   UNL     1       2.087   7.865  19.192  0.00  0.00    +0.000 C 
ATOM     30  C   UNL     1       2.116   8.547  17.829  0.00  0.00    +0.000 C 
ENDBRANCH  26  29
ENDBRANCH  25  26
ENDBRANCH   5  25
TORSDOF 12
ENDMDL
MODEL 9
REMARK VINA RESULT:      -6.6      2.049      6.617
REMARK  Name = 
REMARK  16 active torsions:
REMARK  status: ('A' for Active; 'I' for Inactive)
REMARK    1  A    between atoms: C_1  and  C_2
REMARK    2  A    between atoms: C_2  and  C_3
REMARK    3  A    between atoms: C_3  and  C_4
REMARK    4  A    between atoms: C_4  and  C_5
REMARK    5  A    between atoms: C_5  and  C_6
REMARK    6  A    between atoms: N_8  and  C_9
REMARK    7  A    between atoms: C_11  and  C_12
REMARK    8  A    between atoms: C_12  and  O_14
REMARK    9  A    between atoms: C_16  and  O_17
REMARK   10  A    between atoms: O_17  and  C_18
REMARK   11  A    between atoms: C_18  and  C_19
REMARK   12  A    between atoms: C_18  and  C_21
REMARK   13  A    between atoms: C_19  and  C_20
REMARK   14  A    between atoms: C_21  and  C_22
REMARK   15  A    between atoms: C_23  and  N_24
REMARK   16  A    between atoms: C_25  and  C_26
REMARK                            x       y       z     vdW  Elec       q    Type
REMARK                         _______ _______ _______ _____ _____    ______ ____
ROOT
ATOM      1  C   UNL     1       5.707   4.066  17.663  0.00  0.00    +0.000 C 
ATOM      2  C   UNL     1       4.821   2.819  17.700  0.00  0.00    +0.000 C 
ATOM      3  C   UNL     1       3.429   3.123  18.185  0.00  0.00    +0.000 C 
ATOM      4  C   UNL     1       2.949   4.391  18.205  0.00  0.00    +0.000 C 
ATOM      5  C   UNL     1       3.693   5.611  17.632  0.00  0.00    +0.000 C 
ATOM      6  C   UNL     1       5.003   5.200  16.886  0.00  0.00    +0.000 C 
ENDROOT
BRANCH   6   7
ATOM      7  N   UNL     1       4.729   4.832  15.480  0.00  0.00    +0.000 N 
ATOM      8  C   UNL     1       5.737   4.477  14.608  0.00  0.00    +0.000 C 
ATOM      9  C   UNL     1       5.284   4.210  13.200  0.00  0.00    +0.000 C 
ATOM     10  O   UNL     1       6.914   4.381  14.935  0.00  0.00    +0.000 OA
ATOM     11  H   UNL     1       3.837   5.097  15.079  0.00  0.00    +0.000 HD
ENDBRANCH   6   7
BRANCH   1  14
ATOM     12  C   UNL     1       7.106   5.364  19.308  0.00  0.00    +0.000 C 
ATOM     13  O   UNL     1       7.426   5.555  20.476  0.00  0.00    +0.000 OA
ATOM     14  N   UNL     1       6.105   4.482  19.007  0.00  0.00    +0.000 N 
ATOM     15  H   UNL     1       5.779   3.960  19.814  0.00  0.00    +0.000 HD
BRANCH  12  16
ATOM     16  C   UNL     1       7.754   6.059  18.127  0.00  0.00    +0.000 C 
BRANCH  16  17
ATOM     17  C   UNL     1       8.318   7.411  18.502  0.00  0.00    +0.000 C 
BRANCH  17  18
ATOM     18  C   UNL     1       7.640   8.516  17.703  0.00  0.00    +0.000 C 
BRANCH  18  20
ATOM     19  C   UNL     1       9.128   9.939  19.144  0.00  0.00    +0.000 C 
ATOM     20  C   UNL     1       8.484   9.780  17.783  0.00  0.00    +0.000 C 
ENDBRANCH  18  20
ENDBRANCH  17  18
ENDBRANCH  16  17
ENDBRANCH  12  16
ENDBRANCH   1  14
BRANCH   3  21
ATOM     21  C   UNL     1       2.703   1.865  18.574  0.00  0.00    +0.000 C 
ATOM     22  O   UNL     1       1.523   1.859  18.867  0.00  0.00    +0.000 OA
BRANCH  21  23
ATOM     23  O   UNL     1       3.461   0.759  18.568  0.00  0.00    +0.000 OA
ATOM     24  H   UNL     1       4.379   0.882  18.860  0.00  0.00    +0.000 HD
ENDBRANCH  21  23
ENDBRANCH   3  21
BRANCH   5  25
ATOM     25  O   UNL     1       3.875   6.554  18.706  0.00  0.00    +0.000 OA
BRANCH  25  26
ATOM     26  C   UNL     1       2.801   7.475  18.990  0.00  0.00    +0.000 C 
BRANCH  26  27
ATOM     27  C   UNL     1       1.985   7.943  17.764  0.00  0.00    +0.000 C 
ATOM     28  C   UNL     1       1.506   9.388  17.758  0.00  0.00    +0.000 C 
ENDBRANCH  26  27
BRANCH  26  29
ATOM     29  C   UNL     1       1.899   6.857  20.074  0.00  0.00    +0.000 C 
ATOM     30  C   UNL     1       1.388   7.907  21.055  0.00  0.00    +0.000 C 
ENDBRANCH  26  29
ENDBRANCH  25  26
ENDBRANCH   5  25
TORSDOF 12
ENDMDL
