MODEL 1
REMARK VINA RESULT:      -7.1      0.000      0.000
REMARK  Name = 
REMARK  1 active torsions:
REMARK  status: ('A' for Active; 'I' for Inactive)
REMARK    1  A    between atoms: N_9  and  C_10
REMARK                            x       y       z     vdW  Elec       q    Type
REMARK                         _______ _______ _______ _____ _____    ______ ____
ROOT
ATOM      1  C   UNL     1       1.083   3.078  21.166  0.00  0.00    +0.000 A 
ATOM      2  C   UNL     1       0.844   3.932  20.089  0.00  0.00    +0.000 A 
ATOM      3  C   UNL     1       1.865   4.276  19.196  0.00  0.00    +0.000 A 
ATOM      4  C   UNL     1       3.135   3.721  19.423  0.00  0.00    +0.000 A 
ATOM      5  C   UNL     1       3.376   2.831  20.465  0.00  0.00    +0.000 A 
ATOM      6  C   UNL     1       2.350   2.521  21.370  0.00  0.00    +0.000 A 
ATOM      7  N   UNL     1       4.655   2.361  20.388  0.00  0.00    +0.000 NA
ATOM      8  N   UNL     1       5.216   2.880  19.305  0.00  0.00    +0.000 NA
ATOM      9  N   UNL     1       4.352   3.775  18.762  0.00  0.00    +0.000 N 
ENDROOT
BRANCH   9  10
ATOM     10  C   UNL     1       4.740   4.579  17.665  0.00  0.00    +0.000 A 
ATOM     11  C   UNL     1       4.851   5.961  17.836  0.00  0.00    +0.000 A 
ATOM     12  C   UNL     1       5.267   6.714  16.754  0.00  0.00    +0.000 A 
ATOM     13  N   UNL     1       5.531   6.196  15.536  0.00  0.00    +0.000 NA
ATOM     14  C   UNL     1       5.372   4.864  15.388  0.00  0.00    +0.000 A 
ATOM     15  C   UNL     1       4.994   4.016  16.416  0.00  0.00    +0.000 A 
ENDBRANCH   9  10
TORSDOF 1
ENDMDL
MODEL 2
REMARK VINA RESULT:      -7.0      1.352      1.881
REMARK  Name = 
REMARK  1 active torsions:
REMARK  status: ('A' for Active; 'I' for Inactive)
REMARK    1  A    between atoms: N_9  and  C_10
REMARK                            x       y       z     vdW  Elec       q    Type
REMARK                         _______ _______ _______ _____ _____    ______ ____
ROOT
ATOM      1  C   UNL     1       0.751   2.988  18.998  0.00  0.00    +0.000 A 
ATOM      2  C   UNL     1       1.105   3.796  17.918  0.00  0.00    +0.000 A 
ATOM      3  C   UNL     1       2.436   4.163  17.691  0.00  0.00    +0.000 A 
ATOM      4  C   UNL     1       3.401   3.678  18.588  0.00  0.00    +0.000 A 
ATOM      5  C   UNL     1       3.070   2.833  19.642  0.00  0.00    +0.000 A 
ATOM      6  C   UNL     1       1.727   2.500  19.876  0.00  0.00    +0.000 A 
ATOM      7  N   UNL     1       4.203   2.424  20.283  0.00  0.00    +0.000 NA
ATOM      8  N   UNL     1       5.243   2.937  19.642  0.00  0.00    +0.000 NA
ATOM      9  N   UNL     1       4.781   3.772  18.676  0.00  0.00    +0.000 N 
ENDROOT
BRANCH   9  10
ATOM     10  C   UNL     1       5.675   4.561  17.916  0.00  0.00    +0.000 A 
ATOM     11  C   UNL     1       5.883   4.254  16.568  0.00  0.00    +0.000 A 
ATOM     12  C   UNL     1       6.734   5.067  15.844  0.00  0.00    +0.000 A 
ATOM     13  N   UNL     1       7.406   6.111  16.375  0.00  0.00    +0.000 NA
ATOM     14  C   UNL     1       7.220   6.357  17.689  0.00  0.00    +0.000 A 
ATOM     15  C   UNL     1       6.364   5.626  18.494  0.00  0.00    +0.000 A 
ENDBRANCH   9  10
TORSDOF 1
ENDMDL
MODEL 3
REMARK VINA RESULT:      -6.9      1.319      1.433
REMARK  Name = 
REMARK  1 active torsions:
REMARK  status: ('A' for Active; 'I' for Inactive)
REMARK    1  A    between atoms: N_9  and  C_10
REMARK                            x       y       z     vdW  Elec       q    Type
REMARK                         _______ _______ _______ _____ _____    ______ ____
ROOT
ATOM      1  C   UNL     1       0.750   2.955  19.090  0.00  0.00    +0.000 A 
ATOM      2  C   UNL     1       1.077   3.755  17.995  0.00  0.00    +0.000 A 
ATOM      3  C   UNL     1       2.401   4.128  17.738  0.00  0.00    +0.000 A 
ATOM      4  C   UNL     1       3.387   3.657  18.619  0.00  0.00    +0.000 A 
ATOM      5  C   UNL     1       3.083   2.820  19.688  0.00  0.00    +0.000 A 
ATOM      6  C   UNL     1       1.747   2.481  19.952  0.00  0.00    +0.000 A 
ATOM      7  N   UNL     1       4.231   2.424  20.310  0.00  0.00    +0.000 NA
ATOM      8  N   UNL     1       5.255   2.937  19.642  0.00  0.00    +0.000 NA
ATOM      9  N   UNL     1       4.768   3.760  18.679  0.00  0.00    +0.000 N 
ENDROOT
BRANCH   9  10
ATOM     10  C   UNL     1       5.641   4.547  17.893  0.00  0.00    +0.000 A 
ATOM     11  C   UNL     1       6.307   5.625  18.481  0.00  0.00    +0.000 A 
ATOM     12  C   UNL     1       7.181   6.352  17.694  0.00  0.00    +0.000 A 
ATOM     13  N   UNL     1       7.393   6.105  16.385  0.00  0.00    +0.000 NA
ATOM     14  C   UNL     1       6.703   5.086  15.832  0.00  0.00    +0.000 A 
ATOM     15  C   UNL     1       5.831   4.275  16.539  0.00  0.00    +0.000 A 
ENDBRANCH   9  10
TORSDOF 1
ENDMDL
MODEL 4
REMARK VINA RESULT:      -6.9      1.738      5.064
REMARK  Name = 
REMARK  1 active torsions:
REMARK  status: ('A' for Active; 'I' for Inactive)
REMARK    1  A    between atoms: N_9  and  C_10
REMARK                            x       y       z     vdW  Elec       q    Type
REMARK                         _______ _______ _______ _____ _____    ______ ____
ROOT
ATOM      1  C   UNL     1       6.752   4.495  15.357  0.00  0.00    +0.000 A 
ATOM      2  C   UNL     1       5.388   4.208  15.299  0.00  0.00    +0.000 A 
ATOM      3  C   UNL     1       4.615   4.124  16.463  0.00  0.00    +0.000 A 
ATOM      4  C   UNL     1       5.264   4.348  17.687  0.00  0.00    +0.000 A 
ATOM      5  C   UNL     1       6.613   4.682  17.757  0.00  0.00    +0.000 A 
ATOM      6  C   UNL     1       7.382   4.732  16.585  0.00  0.00    +0.000 A 
ATOM      7  N   UNL     1       6.958   4.954  19.049  0.00  0.00    +0.000 NA
ATOM      8  N   UNL     1       5.866   4.857  19.793  0.00  0.00    +0.000 NA
ATOM      9  N   UNL     1       4.854   4.401  19.010  0.00  0.00    +0.000 N 
ENDROOT
BRANCH   9  10
ATOM     10  C   UNL     1       3.597   4.077  19.571  0.00  0.00    +0.000 A 
ATOM     11  C   UNL     1       2.811   5.093  20.122  0.00  0.00    +0.000 A 
ATOM     12  C   UNL     1       1.572   4.748  20.628  0.00  0.00    +0.000 A 
ATOM     13  N   UNL     1       1.099   3.484  20.659  0.00  0.00    +0.000 NA
ATOM     14  C   UNL     1       1.898   2.518  20.161  0.00  0.00    +0.000 A 
ATOM     15  C   UNL     1       3.140   2.760  19.599  0.00  0.00    +0.000 A 
ENDBRANCH   9  10
TORSDOF 1
ENDMDL
MODEL 5
REMARK VINA RESULT:      -6.9      1.735      5.193
REMARK  Name = 
REMARK  1 active torsions:
REMARK  status: ('A' for Active; 'I' for Inactive)
REMARK    1  A    between atoms: N_9  and  C_10
REMARK                            x       y       z     vdW  Elec       q    Type
REMARK                         _______ _______ _______ _____ _____    ______ ____
ROOT
ATOM      1  C   UNL     1       6.725   4.482  15.318  0.00  0.00    +0.000 A 
ATOM      2  C   UNL     1       5.352   4.239  15.292  0.00  0.00    +0.000 A 
ATOM      3  C   UNL     1       4.601   4.186  16.472  0.00  0.00    +0.000 A 
ATOM      4  C   UNL     1       5.284   4.395  17.681  0.00  0.00    +0.000 A 
ATOM      5  C   UNL     1       6.644   4.686  17.720  0.00  0.00    +0.000 A 
ATOM      6  C   UNL     1       7.389   4.704  16.530  0.00  0.00    +0.000 A 
ATOM      7  N   UNL     1       7.026   4.953  19.002  0.00  0.00    +0.000 NA
ATOM      8  N   UNL     1       5.948   4.896  19.770  0.00  0.00    +0.000 NA
ATOM      9  N   UNL     1       4.905   4.468  19.012  0.00  0.00    +0.000 N 
ENDROOT
BRANCH   9  10
ATOM     10  C   UNL     1       3.651   4.189  19.602  0.00  0.00    +0.000 A 
ATOM     11  C   UNL     1       3.250   2.860  19.760  0.00  0.00    +0.000 A 
ATOM     12  C   UNL     1       2.034   2.620  20.374  0.00  0.00    +0.000 A 
ATOM     13  N   UNL     1       1.198   3.596  20.787  0.00  0.00    +0.000 NA
ATOM     14  C   UNL     1       1.591   4.870  20.581  0.00  0.00    +0.000 A 
ATOM     15  C   UNL     1       2.803   5.218  20.009  0.00  0.00    +0.000 A 
ENDBRANCH   9  10
TORSDOF 1
ENDMDL
MODEL 6
REMARK VINA RESULT:      -6.9      1.763      2.454
REMARK  Name = 
REMARK  1 active torsions:
REMARK  status: ('A' for Active; 'I' for Inactive)
REMARK    1  A    between atoms: N_9  and  C_10
REMARK                            x       y       z     vdW  Elec       q    Type
REMARK                         _______ _______ _______ _____ _____    ______ ____
ROOT
ATOM      1  C   UNL     1       1.483   3.243  21.136  0.00  0.00    +0.000 A 
ATOM      2  C   UNL     1       2.661   2.547  20.866  0.00  0.00    +0.000 A 
ATOM      3  C   UNL     1       3.622   3.060  19.986  0.00  0.00    +0.000 A 
ATOM      4  C   UNL     1       3.356   4.306  19.396  0.00  0.00    +0.000 A 
ATOM      5  C   UNL     1       2.208   5.033  19.693  0.00  0.00    +0.000 A 
ATOM      6  C   UNL     1       1.239   4.491  20.551  0.00  0.00    +0.000 A 
ATOM      7  N   UNL     1       2.255   6.248  19.074  0.00  0.00    +0.000 NA
ATOM      8  N   UNL     1       3.414   6.339  18.439  0.00  0.00    +0.000 NA
ATOM      9  N   UNL     1       4.052   5.145  18.540  0.00  0.00    +0.000 N 
ENDROOT
BRANCH   9  10
ATOM     10  C   UNL     1       5.261   4.910  17.844  0.00  0.00    +0.000 A 
ATOM     11  C   UNL     1       6.477   5.060  18.514  0.00  0.00    +0.000 A 
ATOM     12  C   UNL     1       7.638   4.788  17.815  0.00  0.00    +0.000 A 
ATOM     13  N   UNL     1       7.663   4.427  16.514  0.00  0.00    +0.000 NA
ATOM     14  C   UNL     1       6.476   4.333  15.880  0.00  0.00    +0.000 A 
ATOM     15  C   UNL     1       5.255   4.550  16.497  0.00  0.00    +0.000 A 
ENDBRANCH   9  10
TORSDOF 1
ENDMDL
MODEL 7
REMARK VINA RESULT:      -6.9      1.506      1.889
REMARK  Name = 
REMARK  1 active torsions:
REMARK  status: ('A' for Active; 'I' for Inactive)
REMARK    1  A    between atoms: N_9  and  C_10
REMARK                            x       y       z     vdW  Elec       q    Type
REMARK                         _______ _______ _______ _____ _____    ______ ____
ROOT
ATOM      1  C   UNL     1       1.204   4.194  20.769  0.00  0.00    +0.000 A 
ATOM      2  C   UNL     1       1.946   5.330  20.444  0.00  0.00    +0.000 A 
ATOM      3  C   UNL     1       2.992   5.272  19.516  0.00  0.00    +0.000 A 
ATOM      4  C   UNL     1       3.259   4.029  18.921  0.00  0.00    +0.000 A 
ATOM      5  C   UNL     1       2.497   2.898  19.199  0.00  0.00    +0.000 A 
ATOM      6  C   UNL     1       1.472   2.965  20.156  0.00  0.00    +0.000 A 
ATOM      7  N   UNL     1       2.895   1.862  18.406  0.00  0.00    +0.000 NA
ATOM      8  N   UNL     1       3.845   2.309  17.597  0.00  0.00    +0.000 NA
ATOM      9  N   UNL     1       4.146   3.584  17.954  0.00  0.00    +0.000 N 
ENDROOT
BRANCH   9  10
ATOM     10  C   UNL     1       5.222   4.270  17.342  0.00  0.00    +0.000 A 
ATOM     11  C   UNL     1       5.184   4.513  15.967  0.00  0.00    +0.000 A 
ATOM     12  C   UNL     1       6.234   5.218  15.407  0.00  0.00    +0.000 A 
ATOM     13  N   UNL     1       7.307   5.645  16.105  0.00  0.00    +0.000 NA
ATOM     14  C   UNL     1       7.337   5.357  17.423  0.00  0.00    +0.000 A 
ATOM     15  C   UNL     1       6.323   4.688  18.087  0.00  0.00    +0.000 A 
ENDBRANCH   9  10
TORSDOF 1
ENDMDL
MODEL 8
REMARK VINA RESULT:      -6.9      1.510      1.665
REMARK  Name = 
REMARK  1 active torsions:
REMARK  status: ('A' for Active; 'I' for Inactive)
REMARK    1  A    between atoms: N_9  and  C_10
REMARK                            x       y       z     vdW  Elec       q    Type
REMARK                         _______ _______ _______ _____ _____    ______ ____
ROOT
ATOM      1  C   UNL     1       1.191   4.247  20.727  0.00  0.00    +0.000 A 
ATOM      2  C   UNL     1       1.913   5.383  20.360  0.00  0.00    +0.000 A 
ATOM      3  C   UNL     1       2.958   5.309  19.432  0.00  0.00    +0.000 A 
ATOM      4  C   UNL     1       3.243   4.050  18.880  0.00  0.00    +0.000 A 
ATOM      5  C   UNL     1       2.501   2.918  19.200  0.00  0.00    +0.000 A 
ATOM      6  C   UNL     1       1.477   3.001  20.157  0.00  0.00    +0.000 A 
ATOM      7  N   UNL     1       2.914   1.861  18.443  0.00  0.00    +0.000 NA
ATOM      8  N   UNL     1       3.855   2.294  17.616  0.00  0.00    +0.000 NA
ATOM      9  N   UNL     1       4.136   3.585  17.926  0.00  0.00    +0.000 N 
ENDROOT
BRANCH   9  10
ATOM     10  C   UNL     1       5.198   4.266  17.288  0.00  0.00    +0.000 A 
ATOM     11  C   UNL     1       6.302   4.672  18.042  0.00  0.00    +0.000 A 
ATOM     12  C   UNL     1       7.340   5.303  17.381  0.00  0.00    +0.000 A 
ATOM     13  N   UNL     1       7.326   5.586  16.061  0.00  0.00    +0.000 NA
ATOM     14  C   UNL     1       6.228   5.222  15.367  0.00  0.00    +0.000 A 
ATOM     15  C   UNL     1       5.151   4.555  15.925  0.00  0.00    +0.000 A 
ENDBRANCH   9  10
TORSDOF 1
ENDMDL
MODEL 9
REMARK VINA RESULT:      -6.9      2.397      5.231
REMARK  Name = 
REMARK  1 active torsions:
REMARK  status: ('A' for Active; 'I' for Inactive)
REMARK    1  A    between atoms: N_9  and  C_10
REMARK                            x       y       z     vdW  Elec       q    Type
REMARK                         _______ _______ _______ _____ _____    ______ ____
ROOT
ATOM      1  C   UNL     1       8.177   6.828  18.737  0.00  0.00    +0.000 A 
ATOM      2  C   UNL     1       7.586   5.815  19.493  0.00  0.00    +0.000 A 
ATOM      3  C   UNL     1       6.395   5.204  19.084  0.00  0.00    +0.000 A 
ATOM      4  C   UNL     1       5.825   5.645  17.879  0.00  0.00    +0.000 A 
ATOM      5  C   UNL     1       6.428   6.620  17.090  0.00  0.00    +0.000 A 
ATOM      6  C   UNL     1       7.604   7.246  17.530  0.00  0.00    +0.000 A 
ATOM      7  N   UNL     1       5.728   6.777  15.929  0.00  0.00    +0.000 NA
ATOM      8  N   UNL     1       4.735   5.899  15.929  0.00  0.00    +0.000 NA
ATOM      9  N   UNL     1       4.717   5.273  17.133  0.00  0.00    +0.000 N 
ENDROOT
BRANCH   9  10
ATOM     10  C   UNL     1       3.678   4.373  17.464  0.00  0.00    +0.000 A 
ATOM     11  C   UNL     1       2.424   4.876  17.820  0.00  0.00    +0.000 A 
ATOM     12  C   UNL     1       1.420   3.968  18.102  0.00  0.00    +0.000 A 
ATOM     13  N   UNL     1       1.595   2.630  18.093  0.00  0.00    +0.000 NA
ATOM     14  C   UNL     1       2.828   2.174  17.790  0.00  0.00    +0.000 A 
ATOM     15  C   UNL     1       3.891   2.995  17.458  0.00  0.00    +0.000 A 
ENDBRANCH   9  10
TORSDOF 1
ENDMDL
