MODEL 1
REMARK VINA RESULT:      -8.9      0.000      0.000
REMARK  Name = 
REMARK  6 active torsions:
REMARK  status: ('A' for Active; 'I' for Inactive)
REMARK    1  A    between atoms: C_1  and  C_2
REMARK    2  A    between atoms: C_7  and  C_8
REMARK    3  A    between atoms: C_8  and  N_9
REMARK    4  A    between atoms: C_11  and  C_12
REMARK    5  A    between atoms: N_14  and  C_15
REMARK    6  A    between atoms: C_18  and  N_19
REMARK                            x       y       z     vdW  Elec       q    Type
REMARK                         _______ _______ _______ _____ _____    ______ ____
ROOT
ATOM      1  N   UNL     1      -3.114  13.362  20.513  0.00  0.00    +0.000 N 
ATOM      2  C   UNL     1      -2.388  12.363  19.849  0.00  0.00    +0.000 A 
ATOM      3  C   UNL     1      -1.236  11.798  20.258  0.00  0.00    +0.000 A 
ATOM      4  C   UNL     1      -0.653  12.318  21.513  0.00  0.00    +0.000 A 
ATOM      5  O   UNL     1       0.393  11.864  21.982  0.00  0.00    +0.000 OA
ATOM      6  C   UNL     1      -1.411  13.385  22.231  0.00  0.00    +0.000 A 
ATOM      7  N   UNL     1      -0.897  13.825  23.426  0.00  0.00    +0.000 N 
ATOM      8  C   UNL     1      -1.509  14.743  24.227  0.00  0.00    +0.000 A 
ATOM      9  O   UNL     1      -1.060  15.103  25.308  0.00  0.00    +0.000 OA
ATOM     10  C   UNL     1      -2.775  15.301  23.695  0.00  0.00    +0.000 A 
ATOM     11  C   UNL     1      -3.256  14.880  22.512  0.00  0.00    +0.000 A 
ATOM     12  C   UNL     1      -2.581  13.849  21.724  0.00  0.00    +0.000 A 
ATOM     13  H   UNL     1      -0.022  13.427  23.754  0.00  0.00    +0.000 HD
ENDROOT
BRANCH   3  14
ATOM     14  C   UNL     1      -0.703  10.640  19.491  0.00  0.00    +0.000 C 
ATOM     15  O   UNL     1      -1.472  10.010  18.772  0.00  0.00    +0.000 OA
ATOM     16  N   UNL     1       0.620  10.316  19.746  0.00  0.00    +0.000 N 
ATOM     17  H   UNL     1       1.114  10.867  20.445  0.00  0.00    +0.000 HD
BRANCH  16  18
ATOM     18  C   UNL     1       1.246   9.125  19.315  0.00  0.00    +0.000 A 
ATOM     19  C   UNL     1       1.483   8.051  20.171  0.00  0.00    +0.000 A 
ATOM     20  C   UNL     1       2.281   6.975  19.772  0.00  0.00    +0.000 A 
ATOM     21  C   UNL     1       2.861   6.919  18.504  0.00  0.00    +0.000 A 
ATOM     22  C   UNL     1       2.506   7.948  17.614  0.00  0.00    +0.000 A 
ATOM     23  C   UNL     1       1.705   9.037  18.003  0.00  0.00    +0.000 A 
BRANCH  21  24
ATOM     24  N   UNL     1       3.720   5.899  18.126  0.00  0.00    +0.000 N 
ATOM     25  C   UNL     1       3.377   4.469  18.242  0.00  0.00    +0.000 C 
ATOM     26  C   UNL     1       4.219   3.781  19.325  0.00  0.00    +0.000 C 
ATOM     27  O   UNL     1       5.625   3.972  19.094  0.00  0.00    +0.000 OA
ATOM     28  C   UNL     1       5.937   5.372  19.115  0.00  0.00    +0.000 C 
ATOM     29  C   UNL     1       5.171   6.151  18.027  0.00  0.00    +0.000 C 
ENDBRANCH  21  24
ENDBRANCH  16  18
ENDBRANCH   3  14
BRANCH   1  30
ATOM     30  C   UNL     1      -4.499  13.661  20.026  0.00  0.00    +0.000 C 
BRANCH  30  37
ATOM     31  C   UNL     1      -6.468  12.972  22.250  0.00  0.00    +0.000 C 
ATOM     32  C   UNL     1      -6.357  12.162  20.984  0.00  0.00    +0.000 A 
ATOM     33  C   UNL     1      -7.206  11.045  20.863  0.00  0.00    +0.000 A 
ATOM     34  C   UNL     1      -7.194  10.254  19.717  0.00  0.00    +0.000 A 
ATOM     35  C   UNL     1      -6.328  10.567  18.678  0.00  0.00    +0.000 A 
ATOM     36  C   UNL     1      -5.459  11.654  18.794  0.00  0.00    +0.000 A 
ATOM     37  C   UNL     1      -5.432  12.457  19.949  0.00  0.00    +0.000 A 
ENDBRANCH  30  37
ENDBRANCH   1  30
TORSDOF 5
ENDMDL
MODEL 2
REMARK VINA RESULT:      -8.6      2.854     10.902
REMARK  Name = 
REMARK  6 active torsions:
REMARK  status: ('A' for Active; 'I' for Inactive)
REMARK    1  A    between atoms: C_1  and  C_2
REMARK    2  A    between atoms: C_7  and  C_8
REMARK    3  A    between atoms: C_8  and  N_9
REMARK    4  A    between atoms: C_11  and  C_12
REMARK    5  A    between atoms: N_14  and  C_15
REMARK    6  A    between atoms: C_18  and  N_19
REMARK                            x       y       z     vdW  Elec       q    Type
REMARK                         _______ _______ _______ _____ _____    ______ ____
ROOT
ATOM      1  N   UNL     1       3.712   4.414  17.571  0.00  0.00    +0.000 N 
ATOM      2  C   UNL     1       3.148   5.553  18.165  0.00  0.00    +0.000 A 
ATOM      3  C   UNL     1       3.496   6.834  17.940  0.00  0.00    +0.000 A 
ATOM      4  C   UNL     1       4.619   7.061  17.005  0.00  0.00    +0.000 A 
ATOM      5  O   UNL     1       5.010   8.195  16.721  0.00  0.00    +0.000 OA
ATOM      6  C   UNL     1       5.234   5.859  16.367  0.00  0.00    +0.000 A 
ATOM      7  N   UNL     1       6.237   6.077  15.456  0.00  0.00    +0.000 N 
ATOM      8  C   UNL     1       6.848   5.087  14.743  0.00  0.00    +0.000 A 
ATOM      9  O   UNL     1       7.718   5.295  13.907  0.00  0.00    +0.000 OA
ATOM     10  C   UNL     1       6.392   3.712  15.055  0.00  0.00    +0.000 A 
ATOM     11  C   UNL     1       5.425   3.510  15.967  0.00  0.00    +0.000 A 
ATOM     12  C   UNL     1       4.768   4.619  16.659  0.00  0.00    +0.000 A 
ATOM     13  H   UNL     1       6.531   7.033  15.275  0.00  0.00    +0.000 HD
ENDROOT
BRANCH   3  14
ATOM     14  C   UNL     1       2.669   7.910  18.549  0.00  0.00    +0.000 C 
ATOM     15  O   UNL     1       2.171   7.711  19.653  0.00  0.00    +0.000 OA
ATOM     16  N   UNL     1       2.455   9.021  17.750  0.00  0.00    +0.000 N 
ATOM     17  H   UNL     1       2.850   9.010  16.811  0.00  0.00    +0.000 HD
BRANCH  16  18
ATOM     18  C   UNL     1       1.517  10.038  18.033  0.00  0.00    +0.000 A 
ATOM     19  C   UNL     1       1.896  11.322  18.419  0.00  0.00    +0.000 A 
ATOM     20  C   UNL     1       0.954  12.241  18.889  0.00  0.00    +0.000 A 
ATOM     21  C   UNL     1      -0.402  11.925  18.978  0.00  0.00    +0.000 A 
ATOM     22  C   UNL     1      -0.781  10.672  18.464  0.00  0.00    +0.000 A 
ATOM     23  C   UNL     1       0.157   9.737  17.991  0.00  0.00    +0.000 A 
BRANCH  21  24
ATOM     24  N   UNL     1      -1.333  12.798  19.518  0.00  0.00    +0.000 N 
ATOM     25  C   UNL     1      -1.004  14.175  19.933  0.00  0.00    +0.000 C 
ATOM     26  C   UNL     1      -1.069  14.326  21.459  0.00  0.00    +0.000 C 
ATOM     27  O   UNL     1      -2.344  13.908  21.973  0.00  0.00    +0.000 OA
ATOM     28  C   UNL     1      -2.569  12.527  21.655  0.00  0.00    +0.000 C 
ATOM     29  C   UNL     1      -2.568  12.276  20.135  0.00  0.00    +0.000 C 
ENDBRANCH  21  24
ENDBRANCH  16  18
ENDBRANCH   3  14
BRANCH   1  30
ATOM     30  C   UNL     1       3.006   3.106  17.756  0.00  0.00    +0.000 C 
BRANCH  30  37
ATOM     31  C   UNL     1       4.714   2.203  20.115  0.00  0.00    +0.000 C 
ATOM     32  C   UNL     1       3.236   2.475  20.239  0.00  0.00    +0.000 A 
ATOM     33  C   UNL     1       2.655   2.286  21.508  0.00  0.00    +0.000 A 
ATOM     34  C   UNL     1       1.303   2.539  21.723  0.00  0.00    +0.000 A 
ATOM     35  C   UNL     1       0.512   2.981  20.671  0.00  0.00    +0.000 A 
ATOM     36  C   UNL     1       1.066   3.146  19.400  0.00  0.00    +0.000 A 
ATOM     37  C   UNL     1       2.424   2.876  19.146  0.00  0.00    +0.000 A 
ENDBRANCH  30  37
ENDBRANCH   1  30
TORSDOF 5
ENDMDL
MODEL 3
REMARK VINA RESULT:      -8.6      0.420      1.229
REMARK  Name = 
REMARK  6 active torsions:
REMARK  status: ('A' for Active; 'I' for Inactive)
REMARK    1  A    between atoms: C_1  and  C_2
REMARK    2  A    between atoms: C_7  and  C_8
REMARK    3  A    between atoms: C_8  and  N_9
REMARK    4  A    between atoms: C_11  and  C_12
REMARK    5  A    between atoms: N_14  and  C_15
REMARK    6  A    between atoms: C_18  and  N_19
REMARK                            x       y       z     vdW  Elec       q    Type
REMARK                         _______ _______ _______ _____ _____    ______ ____
ROOT
ATOM      1  N   UNL     1      -3.336  13.234  20.347  0.00  0.00    +0.000 N 
ATOM      2  C   UNL     1      -2.524  12.292  19.699  0.00  0.00    +0.000 A 
ATOM      3  C   UNL     1      -1.384  11.752  20.170  0.00  0.00    +0.000 A 
ATOM      4  C   UNL     1      -0.915  12.237  21.485  0.00  0.00    +0.000 A 
ATOM      5  O   UNL     1       0.110  11.801  22.012  0.00  0.00    +0.000 OA
ATOM      6  C   UNL     1      -1.766  13.244  22.188  0.00  0.00    +0.000 A 
ATOM      7  N   UNL     1      -1.359  13.648  23.435  0.00  0.00    +0.000 N 
ATOM      8  C   UNL     1      -2.065  14.508  24.226  0.00  0.00    +0.000 A 
ATOM      9  O   UNL     1      -1.711  14.836  25.351  0.00  0.00    +0.000 OA
ATOM     10  C   UNL     1      -3.309  15.042  23.623  0.00  0.00    +0.000 A 
ATOM     11  C   UNL     1      -3.684  14.656  22.392  0.00  0.00    +0.000 A 
ATOM     12  C   UNL     1      -2.914  13.686  21.614  0.00  0.00    +0.000 A 
ATOM     13  H   UNL     1      -0.495  13.268  23.811  0.00  0.00    +0.000 HD
ENDROOT
BRANCH   3  14
ATOM     14  C   UNL     1      -0.750  10.649  19.398  0.00  0.00    +0.000 C 
ATOM     15  O   UNL     1      -1.394  10.119  18.498  0.00  0.00    +0.000 OA
ATOM     16  N   UNL     1       0.499  10.251  19.846  0.00  0.00    +0.000 N 
ATOM     17  H   UNL     1       0.874  10.716  20.671  0.00  0.00    +0.000 HD
BRANCH  16  18
ATOM     18  C   UNL     1       1.164   9.081  19.417  0.00  0.00    +0.000 A 
ATOM     19  C   UNL     1       1.485   8.040  20.285  0.00  0.00    +0.000 A 
ATOM     20  C   UNL     1       2.319   6.994  19.878  0.00  0.00    +0.000 A 
ATOM     21  C   UNL     1       2.850   6.935  18.589  0.00  0.00    +0.000 A 
ATOM     22  C   UNL     1       2.411   7.924  17.692  0.00  0.00    +0.000 A 
ATOM     23  C   UNL     1       1.574   8.983  18.089  0.00  0.00    +0.000 A 
BRANCH  21  24
ATOM     24  N   UNL     1       3.741   5.948  18.199  0.00  0.00    +0.000 N 
ATOM     25  C   UNL     1       3.419   4.509  18.234  0.00  0.00    +0.000 C 
ATOM     26  C   UNL     1       4.230   3.783  19.317  0.00  0.00    +0.000 C 
ATOM     27  O   UNL     1       5.640   4.007  19.153  0.00  0.00    +0.000 OA
ATOM     28  C   UNL     1       5.926   5.410  19.251  0.00  0.00    +0.000 C 
ATOM     29  C   UNL     1       5.190   6.227  18.171  0.00  0.00    +0.000 C 
ENDBRANCH  21  24
ENDBRANCH  16  18
ENDBRANCH   3  14
BRANCH   1  30
ATOM     30  C   UNL     1      -4.693  13.504  19.770  0.00  0.00    +0.000 C 
BRANCH  30  37
ATOM     31  C   UNL     1      -5.147  11.378  17.632  0.00  0.00    +0.000 C 
ATOM     32  C   UNL     1      -5.889  11.382  18.944  0.00  0.00    +0.000 A 
ATOM     33  C   UNL     1      -6.827  10.352  19.151  0.00  0.00    +0.000 A 
ATOM     34  C   UNL     1      -7.540  10.259  20.344  0.00  0.00    +0.000 A 
ATOM     35  C   UNL     1      -7.327  11.198  21.345  0.00  0.00    +0.000 A 
ATOM     36  C   UNL     1      -6.421  12.242  21.144  0.00  0.00    +0.000 A 
ATOM     37  C   UNL     1      -5.704  12.375  19.941  0.00  0.00    +0.000 A 
ENDBRANCH  30  37
ENDBRANCH   1  30
TORSDOF 5
ENDMDL
MODEL 4
REMARK VINA RESULT:      -8.5      2.755      4.842
REMARK  Name = 
REMARK  6 active torsions:
REMARK  status: ('A' for Active; 'I' for Inactive)
REMARK    1  A    between atoms: C_1  and  C_2
REMARK    2  A    between atoms: C_7  and  C_8
REMARK    3  A    between atoms: C_8  and  N_9
REMARK    4  A    between atoms: C_11  and  C_12
REMARK    5  A    between atoms: N_14  and  C_15
REMARK    6  A    between atoms: C_18  and  N_19
REMARK                            x       y       z     vdW  Elec       q    Type
REMARK                         _______ _______ _______ _____ _____    ______ ____
ROOT
ATOM      1  N   UNL     1      -0.645  12.883  20.354  0.00  0.00    +0.000 N 
ATOM      2  C   UNL     1       0.177  11.760  20.531  0.00  0.00    +0.000 A 
ATOM      3  C   UNL     1       0.078  10.835  21.504  0.00  0.00    +0.000 A 
ATOM      4  C   UNL     1      -0.977  11.050  22.517  0.00  0.00    +0.000 A 
ATOM      5  O   UNL     1      -1.160  10.258  23.444  0.00  0.00    +0.000 OA
ATOM      6  C   UNL     1      -1.859  12.243  22.347  0.00  0.00    +0.000 A 
ATOM      7  N   UNL     1      -2.874  12.408  23.256  0.00  0.00    +0.000 N 
ATOM      8  C   UNL     1      -3.799  13.409  23.192  0.00  0.00    +0.000 A 
ATOM      9  O   UNL     1      -4.721  13.528  23.989  0.00  0.00    +0.000 OA
ATOM     10  C   UNL     1      -3.610  14.373  22.082  0.00  0.00    +0.000 A 
ATOM     11  C   UNL     1      -2.598  14.214  21.212  0.00  0.00    +0.000 A 
ATOM     12  C   UNL     1      -1.670  13.086  21.300  0.00  0.00    +0.000 A 
ATOM     13  H   UNL     1      -2.965  11.734  24.010  0.00  0.00    +0.000 HD
ENDROOT
BRANCH   3  14
ATOM     14  C   UNL     1       0.947   9.630  21.427  0.00  0.00    +0.000 C 
ATOM     15  O   UNL     1       1.817   9.481  22.279  0.00  0.00    +0.000 OA
ATOM     16  N   UNL     1       0.750   8.825  20.317  0.00  0.00    +0.000 N 
ATOM     17  H   UNL     1       0.057   9.123  19.635  0.00  0.00    +0.000 HD
BRANCH  16  18
ATOM     18  C   UNL     1       1.616   7.778  19.929  0.00  0.00    +0.000 A 
ATOM     19  C   UNL     1       2.426   7.856  18.798  0.00  0.00    +0.000 A 
ATOM     20  C   UNL     1       3.114   6.734  18.326  0.00  0.00    +0.000 A 
ATOM     21  C   UNL     1       3.036   5.498  18.968  0.00  0.00    +0.000 A 
ATOM     22  C   UNL     1       2.318   5.473  20.177  0.00  0.00    +0.000 A 
ATOM     23  C   UNL     1       1.620   6.594  20.662  0.00  0.00    +0.000 A 
BRANCH  21  24
ATOM     24  N   UNL     1       3.647   4.361  18.465  0.00  0.00    +0.000 N 
ATOM     25  C   UNL     1       3.059   3.537  17.392  0.00  0.00    +0.000 C 
ATOM     26  C   UNL     1       2.612   2.167  17.924  0.00  0.00    +0.000 C 
ATOM     27  O   UNL     1       3.690   1.486  18.586  0.00  0.00    +0.000 OA
ATOM     28  C   UNL     1       4.149   2.266  19.701  0.00  0.00    +0.000 C 
ATOM     29  C   UNL     1       4.665   3.651  19.264  0.00  0.00    +0.000 C 
ENDBRANCH  21  24
ENDBRANCH  16  18
ENDBRANCH   3  14
BRANCH   1  30
ATOM     30  C   UNL     1      -0.534  13.636  19.063  0.00  0.00    +0.000 C 
BRANCH  30  37
ATOM     31  C   UNL     1       2.335  13.272  18.097  0.00  0.00    +0.000 C 
ATOM     32  C   UNL     1       1.806  14.595  18.591  0.00  0.00    +0.000 A 
ATOM     33  C   UNL     1       2.703  15.680  18.601  0.00  0.00    +0.000 A 
ATOM     34  C   UNL     1       2.296  16.945  19.014  0.00  0.00    +0.000 A 
ATOM     35  C   UNL     1       0.985  17.142  19.429  0.00  0.00    +0.000 A 
ATOM     36  C   UNL     1       0.090  16.070  19.453  0.00  0.00    +0.000 A 
ATOM     37  C   UNL     1       0.479  14.775  19.063  0.00  0.00    +0.000 A 
ENDBRANCH  30  37
ENDBRANCH   1  30
TORSDOF 5
ENDMDL
MODEL 5
REMARK VINA RESULT:      -8.5      2.747     10.468
REMARK  Name = 
REMARK  6 active torsions:
REMARK  status: ('A' for Active; 'I' for Inactive)
REMARK    1  A    between atoms: C_1  and  C_2
REMARK    2  A    between atoms: C_7  and  C_8
REMARK    3  A    between atoms: C_8  and  N_9
REMARK    4  A    between atoms: C_11  and  C_12
REMARK    5  A    between atoms: N_14  and  C_15
REMARK    6  A    between atoms: C_18  and  N_19
REMARK                            x       y       z     vdW  Elec       q    Type
REMARK                         _______ _______ _______ _____ _____    ______ ____
ROOT
ATOM      1  N   UNL     1       2.941   6.156  19.738  0.00  0.00    +0.000 N 
ATOM      2  C   UNL     1       2.042   7.214  19.934  0.00  0.00    +0.000 A 
ATOM      3  C   UNL     1       1.846   8.266  19.116  0.00  0.00    +0.000 A 
ATOM      4  C   UNL     1       2.700   8.336  17.912  0.00  0.00    +0.000 A 
ATOM      5  O   UNL     1       2.595   9.251  17.092  0.00  0.00    +0.000 OA
ATOM      6  C   UNL     1       3.666   7.219  17.689  0.00  0.00    +0.000 A 
ATOM      7  N   UNL     1       4.415   7.257  16.540  0.00  0.00    +0.000 N 
ATOM      8  C   UNL     1       5.289   6.277  16.166  0.00  0.00    +0.000 A 
ATOM      9  O   UNL     1       5.927   6.304  15.122  0.00  0.00    +0.000 OA
ATOM     10  C   UNL     1       5.429   5.158  17.128  0.00  0.00    +0.000 A 
ATOM     11  C   UNL     1       4.707   5.144  18.261  0.00  0.00    +0.000 A 
ATOM     12  C   UNL     1       3.744   6.198  18.580  0.00  0.00    +0.000 A 
ATOM     13  H   UNL     1       4.300   8.046  15.910  0.00  0.00    +0.000 HD
ENDROOT
BRANCH   3  14
ATOM     14  C   UNL     1       0.732   9.203  19.422  0.00  0.00    +0.000 C 
ATOM     15  O   UNL     1       0.381   9.335  20.590  0.00  0.00    +0.000 OA
ATOM     16  N   UNL     1       0.117   9.775  18.320  0.00  0.00    +0.000 N 
ATOM     17  H   UNL     1       0.449   9.498  17.398  0.00  0.00    +0.000 HD
BRANCH  16  18
ATOM     18  C   UNL     1      -1.097  10.495  18.369  0.00  0.00    +0.000 A 
ATOM     19  C   UNL     1      -1.297  11.569  19.234  0.00  0.00    +0.000 A 
ATOM     20  C   UNL     1      -2.567  12.128  19.407  0.00  0.00    +0.000 A 
ATOM     21  C   UNL     1      -3.681  11.652  18.716  0.00  0.00    +0.000 A 
ATOM     22  C   UNL     1      -3.435  10.656  17.755  0.00  0.00    +0.000 A 
ATOM     23  C   UNL     1      -2.163  10.083  17.572  0.00  0.00    +0.000 A 
BRANCH  21  24
ATOM     24  N   UNL     1      -4.958  12.143  18.939  0.00  0.00    +0.000 N 
ATOM     25  C   UNL     1      -5.260  13.179  19.944  0.00  0.00    +0.000 C 
ATOM     26  C   UNL     1      -6.075  12.602  21.111  0.00  0.00    +0.000 C 
ATOM     27  O   UNL     1      -7.268  11.952  20.644  0.00  0.00    +0.000 OA
ATOM     28  C   UNL     1      -6.923  10.869  19.767  0.00  0.00    +0.000 C 
ATOM     29  C   UNL     1      -6.137  11.354  18.533  0.00  0.00    +0.000 C 
ENDBRANCH  21  24
ENDBRANCH  16  18
ENDBRANCH   3  14
BRANCH   1  30
ATOM     30  C   UNL     1       2.814   4.956  20.627  0.00  0.00    +0.000 C 
BRANCH  30  37
ATOM     31  C   UNL     1       4.428   2.392  20.280  0.00  0.00    +0.000 C 
ATOM     32  C   UNL     1       2.998   2.520  19.822  0.00  0.00    +0.000 A 
ATOM     33  C   UNL     1       2.420   1.393  19.206  0.00  0.00    +0.000 A 
ATOM     34  C   UNL     1       1.096   1.409  18.775  0.00  0.00    +0.000 A 
ATOM     35  C   UNL     1       0.332   2.555  18.951  0.00  0.00    +0.000 A 
ATOM     36  C   UNL     1       0.898   3.691  19.534  0.00  0.00    +0.000 A 
ATOM     37  C   UNL     1       2.240   3.712  19.957  0.00  0.00    +0.000 A 
ENDBRANCH  30  37
ENDBRANCH   1  30
TORSDOF 5
ENDMDL
MODEL 6
REMARK VINA RESULT:      -8.4      2.804      4.777
REMARK  Name = 
REMARK  6 active torsions:
REMARK  status: ('A' for Active; 'I' for Inactive)
REMARK    1  A    between atoms: C_1  and  C_2
REMARK    2  A    between atoms: C_7  and  C_8
REMARK    3  A    between atoms: C_8  and  N_9
REMARK    4  A    between atoms: C_11  and  C_12
REMARK    5  A    between atoms: N_14  and  C_15
REMARK    6  A    between atoms: C_18  and  N_19
REMARK                            x       y       z     vdW  Elec       q    Type
REMARK                         _______ _______ _______ _____ _____    ______ ____
ROOT
ATOM      1  N   UNL     1      -0.443  12.419  20.143  0.00  0.00    +0.000 N 
ATOM      2  C   UNL     1       0.327  11.249  20.213  0.00  0.00    +0.000 A 
ATOM      3  C   UNL     1       0.291  10.319  21.186  0.00  0.00    +0.000 A 
ATOM      4  C   UNL     1      -0.620  10.581  22.320  0.00  0.00    +0.000 A 
ATOM      5  O   UNL     1      -0.738   9.790  23.257  0.00  0.00    +0.000 OA
ATOM      6  C   UNL     1      -1.445  11.825  22.263  0.00  0.00    +0.000 A 
ATOM      7  N   UNL     1      -2.333  12.037  23.289  0.00  0.00    +0.000 N 
ATOM      8  C   UNL     1      -3.199  13.089  23.342  0.00  0.00    +0.000 A 
ATOM      9  O   UNL     1      -4.011  13.251  24.244  0.00  0.00    +0.000 OA
ATOM     10  C   UNL     1      -3.089  14.055  22.223  0.00  0.00    +0.000 A 
ATOM     11  C   UNL     1      -2.199  13.849  21.237  0.00  0.00    +0.000 A 
ATOM     12  C   UNL     1      -1.334  12.669  21.206  0.00  0.00    +0.000 A 
ATOM     13  H   UNL     1      -2.373  11.359  24.044  0.00  0.00    +0.000 HD
ENDROOT
BRANCH   3  14
ATOM     14  C   UNL     1       1.073   9.067  20.999  0.00  0.00    +0.000 C 
ATOM     15  O   UNL     1       1.652   8.588  21.969  0.00  0.00    +0.000 OA
ATOM     16  N   UNL     1       1.155   8.606  19.695  0.00  0.00    +0.000 N 
ATOM     17  H   UNL     1       0.705   9.161  18.970  0.00  0.00    +0.000 HD
BRANCH  16  18
ATOM     18  C   UNL     1       2.033   7.586  19.264  0.00  0.00    +0.000 A 
ATOM     19  C   UNL     1       2.263   6.432  20.009  0.00  0.00    +0.000 A 
ATOM     20  C   UNL     1       3.284   5.542  19.661  0.00  0.00    +0.000 A 
ATOM     21  C   UNL     1       4.102   5.757  18.552  0.00  0.00    +0.000 A 
ATOM     22  C   UNL     1       3.771   6.858  17.742  0.00  0.00    +0.000 A 
ATOM     23  C   UNL     1       2.748   7.762  18.082  0.00  0.00    +0.000 A 
BRANCH  21  24
ATOM     24  N   UNL     1       5.168   4.926  18.245  0.00  0.00    +0.000 N 
ATOM     25  C   UNL     1       6.471   4.998  18.931  0.00  0.00    +0.000 C 
ATOM     26  C   UNL     1       7.566   5.526  17.994  0.00  0.00    +0.000 C 
ATOM     27  O   UNL     1       7.643   4.747  16.789  0.00  0.00    +0.000 OA
ATOM     28  C   UNL     1       6.393   4.808  16.087  0.00  0.00    +0.000 C 
ATOM     29  C   UNL     1       5.229   4.254  16.932  0.00  0.00    +0.000 C 
ENDBRANCH  21  24
ENDBRANCH  16  18
ENDBRANCH   3  14
BRANCH   1  30
ATOM     30  C   UNL     1      -0.443  13.180  18.852  0.00  0.00    +0.000 C 
BRANCH  30  37
ATOM     31  C   UNL     1       2.517  12.913  18.172  0.00  0.00    +0.000 C 
ATOM     32  C   UNL     1       1.869  14.241  18.470  0.00  0.00    +0.000 A 
ATOM     33  C   UNL     1       2.696  15.380  18.432  0.00  0.00    +0.000 A 
ATOM     34  C   UNL     1       2.179  16.652  18.666  0.00  0.00    +0.000 A 
ATOM     35  C   UNL     1       0.827  16.802  18.947  0.00  0.00    +0.000 A 
ATOM     36  C   UNL     1      -0.001  15.679  19.017  0.00  0.00    +0.000 A 
ATOM     37  C   UNL     1       0.497  14.380  18.808  0.00  0.00    +0.000 A 
ENDBRANCH  30  37
ENDBRANCH   1  30
TORSDOF 5
ENDMDL
MODEL 7
REMARK VINA RESULT:      -8.3      2.403      4.323
REMARK  Name = 
REMARK  6 active torsions:
REMARK  status: ('A' for Active; 'I' for Inactive)
REMARK    1  A    between atoms: C_1  and  C_2
REMARK    2  A    between atoms: C_7  and  C_8
REMARK    3  A    between atoms: C_8  and  N_9
REMARK    4  A    between atoms: C_11  and  C_12
REMARK    5  A    between atoms: N_14  and  C_15
REMARK    6  A    between atoms: C_18  and  N_19
REMARK                            x       y       z     vdW  Elec       q    Type
REMARK                         _______ _______ _______ _____ _____    ______ ____
ROOT
ATOM      1  N   UNL     1      -1.580  12.221  20.490  0.00  0.00    +0.000 N 
ATOM      2  C   UNL     1      -0.441  11.457  20.197  0.00  0.00    +0.000 A 
ATOM      3  C   UNL     1      -0.287  10.605  19.167  0.00  0.00    +0.000 A 
ATOM      4  C   UNL     1      -1.454  10.420  18.279  0.00  0.00    +0.000 A 
ATOM      5  O   UNL     1      -1.416   9.672  17.300  0.00  0.00    +0.000 OA
ATOM      6  C   UNL     1      -2.677  11.224  18.578  0.00  0.00    +0.000 A 
ATOM      7  N   UNL     1      -3.739  11.094  17.718  0.00  0.00    +0.000 N 
ATOM      8  C   UNL     1      -4.896  11.811  17.822  0.00  0.00    +0.000 A 
ATOM      9  O   UNL     1      -5.824  11.713  17.029  0.00  0.00    +0.000 OA
ATOM     10  C   UNL     1      -4.968  12.728  18.984  0.00  0.00    +0.000 A 
ATOM     11  C   UNL     1      -3.930  12.828  19.832  0.00  0.00    +0.000 A 
ATOM     12  C   UNL     1      -2.692  12.074  19.636  0.00  0.00    +0.000 A 
ATOM     13  H   UNL     1      -3.657  10.448  16.939  0.00  0.00    +0.000 HD
ENDROOT
BRANCH   3  14
ATOM     14  C   UNL     1       1.056  10.006  18.937  0.00  0.00    +0.000 C 
ATOM     15  O   UNL     1       1.931  10.707  18.438  0.00  0.00    +0.000 OA
ATOM     16  N   UNL     1       1.162   8.655  19.222  0.00  0.00    +0.000 N 
ATOM     17  H   UNL     1       0.323   8.173  19.538  0.00  0.00    +0.000 HD
BRANCH  16  18
ATOM     18  C   UNL     1       2.261   7.847  18.855  0.00  0.00    +0.000 A 
ATOM     19  C   UNL     1       2.993   8.062  17.689  0.00  0.00    +0.000 A 
ATOM     20  C   UNL     1       3.938   7.130  17.250  0.00  0.00    +0.000 A 
ATOM     21  C   UNL     1       4.202   5.958  17.959  0.00  0.00    +0.000 A 
ATOM     22  C   UNL     1       3.546   5.822  19.196  0.00  0.00    +0.000 A 
ATOM     23  C   UNL     1       2.592   6.752  19.649  0.00  0.00    +0.000 A 
BRANCH  21  24
ATOM     24  N   UNL     1       5.075   4.990  17.492  0.00  0.00    +0.000 N 
ATOM     25  C   UNL     1       6.156   4.413  18.314  0.00  0.00    +0.000 C 
ATOM     26  C   UNL     1       7.537   4.854  17.806  0.00  0.00    +0.000 C 
ATOM     27  O   UNL     1       7.705   4.541  16.413  0.00  0.00    +0.000 OA
ATOM     28  C   UNL     1       6.709   5.223  15.636  0.00  0.00    +0.000 C 
ATOM     29  C   UNL     1       5.280   4.813  16.041  0.00  0.00    +0.000 C 
ENDBRANCH  21  24
ENDBRANCH  16  18
ENDBRANCH   3  14
BRANCH   1  30
ATOM     30  C   UNL     1      -1.453  13.301  21.522  0.00  0.00    +0.000 C 
BRANCH  30  37
ATOM     31  C   UNL     1      -3.143  15.774  22.092  0.00  0.00    +0.000 C 
ATOM     32  C   UNL     1      -3.340  14.469  22.821  0.00  0.00    +0.000 A 
ATOM     33  C   UNL     1      -4.348  14.431  23.804  0.00  0.00    +0.000 A 
ATOM     34  C   UNL     1      -4.621  13.262  24.508  0.00  0.00    +0.000 A 
ATOM     35  C   UNL     1      -3.885  12.114  24.244  0.00  0.00    +0.000 A 
ATOM     36  C   UNL     1      -2.862  12.142  23.293  0.00  0.00    +0.000 A 
ATOM     37  C   UNL     1      -2.548  13.315  22.582  0.00  0.00    +0.000 A 
ENDBRANCH  30  37
ENDBRANCH   1  30
TORSDOF 5
ENDMDL
MODEL 8
REMARK VINA RESULT:      -8.3      2.969      4.842
REMARK  Name = 
REMARK  6 active torsions:
REMARK  status: ('A' for Active; 'I' for Inactive)
REMARK    1  A    between atoms: C_1  and  C_2
REMARK    2  A    between atoms: C_7  and  C_8
REMARK    3  A    between atoms: C_8  and  N_9
REMARK    4  A    between atoms: C_11  and  C_12
REMARK    5  A    between atoms: N_14  and  C_15
REMARK    6  A    between atoms: C_18  and  N_19
REMARK                            x       y       z     vdW  Elec       q    Type
REMARK                         _______ _______ _______ _____ _____    ______ ____
ROOT
ATOM      1  N   UNL     1      -0.081  12.594  20.055  0.00  0.00    +0.000 N 
ATOM      2  C   UNL     1       0.574  11.354  20.068  0.00  0.00    +0.000 A 
ATOM      3  C   UNL     1       0.478  10.403  21.017  0.00  0.00    +0.000 A 
ATOM      4  C   UNL     1      -0.368  10.718  22.187  0.00  0.00    +0.000 A 
ATOM      5  O   UNL     1      -0.532   9.913  23.107  0.00  0.00    +0.000 OA
ATOM      6  C   UNL     1      -1.070  12.036  22.192  0.00  0.00    +0.000 A 
ATOM      7  N   UNL     1      -1.901  12.301  23.252  0.00  0.00    +0.000 N 
ATOM      8  C   UNL     1      -2.660  13.429  23.363  0.00  0.00    +0.000 A 
ATOM      9  O   UNL     1      -3.424  13.640  24.295  0.00  0.00    +0.000 OA
ATOM     10  C   UNL     1      -2.492  14.413  22.266  0.00  0.00    +0.000 A 
ATOM     11  C   UNL     1      -1.657  14.152  21.246  0.00  0.00    +0.000 A 
ATOM     12  C   UNL     1      -0.911  12.896  21.154  0.00  0.00    +0.000 A 
ATOM     13  H   UNL     1      -1.983  11.608  23.990  0.00  0.00    +0.000 HD
ENDROOT
BRANCH   3  14
ATOM     14  C   UNL     1       1.129   9.088  20.770  0.00  0.00    +0.000 C 
ATOM     15  O   UNL     1       1.483   8.420  21.736  0.00  0.00    +0.000 OA
ATOM     16  N   UNL     1       1.369   8.784  19.440  0.00  0.00    +0.000 N 
ATOM     17  H   UNL     1       1.111   9.479  18.743  0.00  0.00    +0.000 HD
BRANCH  16  18
ATOM     18  C   UNL     1       2.181   7.713  19.002  0.00  0.00    +0.000 A 
ATOM     19  C   UNL     1       2.262   6.505  19.689  0.00  0.00    +0.000 A 
ATOM     20  C   UNL     1       3.222   5.546  19.349  0.00  0.00    +0.000 A 
ATOM     21  C   UNL     1       4.125   5.746  18.305  0.00  0.00    +0.000 A 
ATOM     22  C   UNL     1       3.942   6.915  17.544  0.00  0.00    +0.000 A 
ATOM     23  C   UNL     1       2.982   7.887  17.876  0.00  0.00    +0.000 A 
BRANCH  21  24
ATOM     24  N   UNL     1       5.132   4.841  18.012  0.00  0.00    +0.000 N 
ATOM     25  C   UNL     1       6.380   4.741  18.792  0.00  0.00    +0.000 C 
ATOM     26  C   UNL     1       7.587   5.225  17.977  0.00  0.00    +0.000 C 
ATOM     27  O   UNL     1       7.687   4.527  16.725  0.00  0.00    +0.000 OA
ATOM     28  C   UNL     1       6.505   4.755  15.943  0.00  0.00    +0.000 C 
ATOM     29  C   UNL     1       5.234   4.258  16.660  0.00  0.00    +0.000 C 
ENDBRANCH  21  24
ENDBRANCH  16  18
ENDBRANCH   3  14
BRANCH   1  30
ATOM     30  C   UNL     1      -0.048  13.390  18.786  0.00  0.00    +0.000 C 
BRANCH  30  37
ATOM     31  C   UNL     1      -0.364  16.422  18.854  0.00  0.00    +0.000 C 
ATOM     32  C   UNL     1       0.976  15.748  18.702  0.00  0.00    +0.000 A 
ATOM     33  C   UNL     1       2.103  16.584  18.581  0.00  0.00    +0.000 A 
ATOM     34  C   UNL     1       3.384  16.051  18.464  0.00  0.00    +0.000 A 
ATOM     35  C   UNL     1       3.555  14.673  18.462  0.00  0.00    +0.000 A 
ATOM     36  C   UNL     1       2.445  13.829  18.552  0.00  0.00    +0.000 A 
ATOM     37  C   UNL     1       1.137  14.339  18.648  0.00  0.00    +0.000 A 
ENDBRANCH  30  37
ENDBRANCH   1  30
TORSDOF 5
ENDMDL
MODEL 9
REMARK VINA RESULT:      -8.2      3.167      4.250
REMARK  Name = 
REMARK  6 active torsions:
REMARK  status: ('A' for Active; 'I' for Inactive)
REMARK    1  A    between atoms: C_1  and  C_2
REMARK    2  A    between atoms: C_7  and  C_8
REMARK    3  A    between atoms: C_8  and  N_9
REMARK    4  A    between atoms: C_11  and  C_12
REMARK    5  A    between atoms: N_14  and  C_15
REMARK    6  A    between atoms: C_18  and  N_19
REMARK                            x       y       z     vdW  Elec       q    Type
REMARK                         _______ _______ _______ _____ _____    ______ ____
ROOT
ATOM      1  N   UNL     1      -0.675  14.576  19.543  0.00  0.00    +0.000 N 
ATOM      2  C   UNL     1      -0.629  13.197  19.293  0.00  0.00    +0.000 A 
ATOM      3  C   UNL     1       0.417  12.500  18.809  0.00  0.00    +0.000 A 
ATOM      4  C   UNL     1       1.625  13.277  18.461  0.00  0.00    +0.000 A 
ATOM      5  O   UNL     1       2.642  12.736  18.021  0.00  0.00    +0.000 OA
ATOM      6  C   UNL     1       1.593  14.748  18.716  0.00  0.00    +0.000 A 
ATOM      7  N   UNL     1       2.737  15.457  18.447  0.00  0.00    +0.000 N 
ATOM      8  C   UNL     1       2.882  16.792  18.691  0.00  0.00    +0.000 A 
ATOM      9  O   UNL     1       3.918  17.408  18.479  0.00  0.00    +0.000 OA
ATOM     10  C   UNL     1       1.679  17.469  19.231  0.00  0.00    +0.000 A 
ATOM     11  C   UNL     1       0.557  16.768  19.468  0.00  0.00    +0.000 A 
ATOM     12  C   UNL     1       0.481  15.325  19.238  0.00  0.00    +0.000 A 
ATOM     13  H   UNL     1       3.538  14.961  18.068  0.00  0.00    +0.000 HD
ENDROOT
BRANCH   3  14
ATOM     14  C   UNL     1       0.320  11.016  18.765  0.00  0.00    +0.000 C 
ATOM     15  O   UNL     1      -0.792  10.504  18.687  0.00  0.00    +0.000 OA
ATOM     16  N   UNL     1       1.518  10.338  18.920  0.00  0.00    +0.000 N 
ATOM     17  H   UNL     1       2.357  10.892  19.075  0.00  0.00    +0.000 HD
BRANCH  16  18
ATOM     18  C   UNL     1       1.622   8.947  19.146  0.00  0.00    +0.000 A 
ATOM     19  C   UNL     1       1.347   8.367  20.382  0.00  0.00    +0.000 A 
ATOM     20  C   UNL     1       1.654   7.026  20.633  0.00  0.00    +0.000 A 
ATOM     21  C   UNL     1       2.231   6.208  19.661  0.00  0.00    +0.000 A 
ATOM     22  C   UNL     1       2.383   6.778  18.384  0.00  0.00    +0.000 A 
ATOM     23  C   UNL     1       2.079   8.125  18.119  0.00  0.00    +0.000 A 
BRANCH  21  24
ATOM     24  N   UNL     1       2.615   4.903  19.921  0.00  0.00    +0.000 N 
ATOM     25  C   UNL     1       2.983   3.943  18.864  0.00  0.00    +0.000 C 
ATOM     26  C   UNL     1       1.934   2.829  18.733  0.00  0.00    +0.000 C 
ATOM     27  O   UNL     1       1.709   2.173  19.992  0.00  0.00    +0.000 OA
ATOM     28  C   UNL     1       1.232   3.120  20.959  0.00  0.00    +0.000 C 
ATOM     29  C   UNL     1       2.240   4.261  21.196  0.00  0.00    +0.000 C 
ENDBRANCH  21  24
ENDBRANCH  16  18
ENDBRANCH   3  14
BRANCH   1  30
ATOM     30  C   UNL     1      -1.835  15.108  20.328  0.00  0.00    +0.000 C 
BRANCH  30  37
ATOM     31  C   UNL     1      -0.436  14.800  23.019  0.00  0.00    +0.000 C 
ATOM     32  C   UNL     1      -1.705  14.063  22.675  0.00  0.00    +0.000 A 
ATOM     33  C   UNL     1      -2.231  13.201  23.656  0.00  0.00    +0.000 A 
ATOM     34  C   UNL     1      -3.414  12.501  23.437  0.00  0.00    +0.000 A 
ATOM     35  C   UNL     1      -4.086  12.649  22.231  0.00  0.00    +0.000 A 
ATOM     36  C   UNL     1      -3.563  13.478  21.236  0.00  0.00    +0.000 A 
ATOM     37  C   UNL     1      -2.357  14.180  21.419  0.00  0.00    +0.000 A 
ENDBRANCH  30  37
ENDBRANCH   1  30
TORSDOF 5
ENDMDL
