MODEL 1
REMARK VINA RESULT:      -6.6      0.000      0.000
REMARK  Name = 
REMARK  12 active torsions:
REMARK  status: ('A' for Active; 'I' for Inactive)
REMARK    1  A    between atoms: N_1  and  C_2
REMARK    2  A    between atoms: C_2  and  C_3
REMARK    3  A    between atoms: C_3  and  C_4
REMARK    4  A    between atoms: C_4  and  C_5
REMARK    5  A    between atoms: C_11  and  C_12
REMARK    6  A    between atoms: N_14  and  C_15
REMARK    7  A    between atoms: C_15  and  C_16
REMARK    8  A    between atoms: C_16  and  C_17
REMARK    9  A    between atoms: C_17  and  C_18
REMARK   10  A    between atoms: C_18  and  C_19
REMARK   11  A    between atoms: C_19  and  C_20
REMARK   12  A    between atoms: N_22  and  O_23
REMARK                            x       y       z     vdW  Elec       q    Type
REMARK                         _______ _______ _______ _____ _____    ______ ____
ROOT
ATOM      1  C   UNL     1       5.216   4.360  16.061  0.00  0.00    +0.000 C 
ATOM      2  O   UNL     1       4.632   3.478  15.441  0.00  0.00    +0.000 OA
ATOM      3  N   UNL     1       4.652   4.821  17.234  0.00  0.00    +0.000 N 
ATOM      4  C   UNL     1       3.406   4.261  17.732  0.00  0.00    +0.000 C 
ATOM      5  C   UNL     1       3.533   4.296  19.275  0.00  0.00    +0.000 C 
ATOM      6  C   UNL     1       4.822   5.085  19.537  0.00  0.00    +0.000 C 
ATOM      7  C   UNL     1       5.084   5.814  18.222  0.00  0.00    +0.000 C 
ATOM      8  S   UNL     1       3.724   2.588  19.947  0.00  0.00    +0.000 S 
ATOM      9  C   UNL     1       2.403   2.759  21.163  0.00  0.00    +0.000 C 
ATOM     10  C   UNL     1       1.323   3.618  20.551  0.00  0.00    +0.000 C 
ATOM     11  S   UNL     1       2.093   5.162  20.020  0.00  0.00    +0.000 S 
ENDROOT
BRANCH   7  12
ATOM     12  C   UNL     1       6.491   6.393  18.195  0.00  0.00    +0.000 C 
ATOM     13  O   UNL     1       7.420   5.677  18.544  0.00  0.00    +0.000 OA
ATOM     14  N   UNL     1       6.741   7.655  17.742  0.00  0.00    +0.000 N 
ATOM     15  H   UNL     1       5.951   8.242  17.438  0.00  0.00    +0.000 HD
BRANCH  14  16
ATOM     16  C   UNL     1       8.096   8.179  17.638  0.00  0.00    +0.000 C 
BRANCH  16  17
ATOM     17  C   UNL     1       8.162   9.682  17.952  0.00  0.00    +0.000 C 
BRANCH  17  18
ATOM     18  C   UNL     1       9.148   9.997  19.084  0.00  0.00    +0.000 C 
BRANCH  18  19
ATOM     19  C   UNL     1      10.263  10.934  18.612  0.00  0.00    +0.000 C 
BRANCH  19  20
ATOM     20  C   UNL     1       9.667  12.275  18.170  0.00  0.00    +0.000 C 
BRANCH  20  21
ATOM     21  C   UNL     1      10.661  13.095  17.394  0.00  0.00    +0.000 C 
ATOM     22  O   UNL     1      11.787  12.656  17.211  0.00  0.00    +0.000 OA
ATOM     23  N   UNL     1      10.314  14.304  16.882  0.00  0.00    +0.000 N 
ATOM     24  H   UNL     1       9.367  14.682  17.035  0.00  0.00    +0.000 HD
BRANCH  23  25
ATOM     25  O   UNL     1      11.185  15.011  16.143  0.00  0.00    +0.000 OA
ATOM     26  H   UNL     1      10.658  15.752  15.746  0.00  0.00    +0.000 HD
ENDBRANCH  23  25
ENDBRANCH  20  21
ENDBRANCH  19  20
ENDBRANCH  18  19
ENDBRANCH  17  18
ENDBRANCH  16  17
ENDBRANCH  14  16
ENDBRANCH   7  12
BRANCH   1  27
ATOM     27  C   UNL     1       6.512   4.835  15.457  0.00  0.00    +0.000 C 
BRANCH  27  28
ATOM     28  C   UNL     1       6.378   5.189  13.967  0.00  0.00    +0.000 C 
BRANCH  28  29
ATOM     29  C   UNL     1       7.002   4.066  13.128  0.00  0.00    +0.000 C 
BRANCH  29  30
ATOM     30  N   UNL     1       6.015   3.052  12.784  0.00  0.00    +0.000 NA
ATOM     31  H   UNL     1       6.471   2.116  12.886  0.00  0.00    +0.000 HD
ATOM     32  H   UNL     1       5.751   3.162  11.778  0.00  0.00    +0.000 HD
ENDBRANCH  29  30
ENDBRANCH  28  29
ENDBRANCH  27  28
ENDBRANCH   1  27
TORSDOF 12
ENDMDL
MODEL 2
REMARK VINA RESULT:      -6.6      5.056      6.955
REMARK  Name = 
REMARK  12 active torsions:
REMARK  status: ('A' for Active; 'I' for Inactive)
REMARK    1  A    between atoms: N_1  and  C_2
REMARK    2  A    between atoms: C_2  and  C_3
REMARK    3  A    between atoms: C_3  and  C_4
REMARK    4  A    between atoms: C_4  and  C_5
REMARK    5  A    between atoms: C_11  and  C_12
REMARK    6  A    between atoms: N_14  and  C_15
REMARK    7  A    between atoms: C_15  and  C_16
REMARK    8  A    between atoms: C_16  and  C_17
REMARK    9  A    between atoms: C_17  and  C_18
REMARK   10  A    between atoms: C_18  and  C_19
REMARK   11  A    between atoms: C_19  and  C_20
REMARK   12  A    between atoms: N_22  and  O_23
REMARK                            x       y       z     vdW  Elec       q    Type
REMARK                         _______ _______ _______ _____ _____    ______ ____
ROOT
ATOM      1  C   UNL     1       3.409   3.669  20.281  0.00  0.00    +0.000 C 
ATOM      2  O   UNL     1       3.856   2.531  20.370  0.00  0.00    +0.000 OA
ATOM      3  N   UNL     1       4.093   4.586  19.510  0.00  0.00    +0.000 N 
ATOM      4  C   UNL     1       5.306   4.206  18.802  0.00  0.00    +0.000 C 
ATOM      5  C   UNL     1       5.286   5.028  17.490  0.00  0.00    +0.000 C 
ATOM      6  C   UNL     1       4.106   5.993  17.660  0.00  0.00    +0.000 C 
ATOM      7  C   UNL     1       3.833   5.986  19.161  0.00  0.00    +0.000 C 
ATOM      8  S   UNL     1       4.966   3.931  16.043  0.00  0.00    +0.000 S 
ATOM      9  C   UNL     1       6.376   4.527  15.089  0.00  0.00    +0.000 C 
ATOM     10  C   UNL     1       7.495   4.822  16.058  0.00  0.00    +0.000 C 
ATOM     11  S   UNL     1       6.854   5.969  17.297  0.00  0.00    +0.000 S 
ENDROOT
BRANCH   7  12
ATOM     12  C   UNL     1       2.494   6.639  19.471  0.00  0.00    +0.000 C 
ATOM     13  O   UNL     1       1.595   6.541  18.646  0.00  0.00    +0.000 OA
ATOM     14  N   UNL     1       2.260   7.271  20.657  0.00  0.00    +0.000 N 
ATOM     15  H   UNL     1       3.021   7.334  21.348  0.00  0.00    +0.000 HD
BRANCH  14  16
ATOM     16  C   UNL     1       0.953   7.823  20.988  0.00  0.00    +0.000 C 
BRANCH  16  17
ATOM     17  C   UNL     1       1.060   9.070  21.880  0.00  0.00    +0.000 C 
BRANCH  17  18
ATOM     18  C   UNL     1       0.849  10.369  21.093  0.00  0.00    +0.000 C 
BRANCH  18  19
ATOM     19  C   UNL     1       0.245  10.095  19.712  0.00  0.00    +0.000 C 
BRANCH  19  20
ATOM     20  C   UNL     1       1.302  10.323  18.625  0.00  0.00    +0.000 C 
BRANCH  20  21
ATOM     21  C   UNL     1       1.494  11.786  18.336  0.00  0.00    +0.000 C 
ATOM     22  O   UNL     1       0.606  12.575  18.624  0.00  0.00    +0.000 OA
ATOM     23  N   UNL     1       2.646  12.238  17.777  0.00  0.00    +0.000 N 
ATOM     24  H   UNL     1       3.398  11.578  17.528  0.00  0.00    +0.000 HD
BRANCH  23  25
ATOM     25  O   UNL     1       2.838  13.552  17.570  0.00  0.00    +0.000 OA
ATOM     26  H   UNL     1       3.274  13.891  18.394  0.00  0.00    +0.000 HD
ENDBRANCH  23  25
ENDBRANCH  20  21
ENDBRANCH  19  20
ENDBRANCH  18  19
ENDBRANCH  17  18
ENDBRANCH  16  17
ENDBRANCH  14  16
ENDBRANCH   7  12
BRANCH   1  27
ATOM     27  C   UNL     1       2.131   3.929  21.037  0.00  0.00    +0.000 C 
BRANCH  27  28
ATOM     28  C   UNL     1       0.982   3.008  20.597  0.00  0.00    +0.000 C 
BRANCH  28  29
ATOM     29  C   UNL     1       0.945   2.952  19.064  0.00  0.00    +0.000 C 
BRANCH  29  30
ATOM     30  N   UNL     1       1.395   1.656  18.572  0.00  0.00    +0.000 NA
ATOM     31  H   UNL     1       0.922   0.918  19.142  0.00  0.00    +0.000 HD
ATOM     32  H   UNL     1       2.424   1.568  18.737  0.00  0.00    +0.000 HD
ENDBRANCH  29  30
ENDBRANCH  28  29
ENDBRANCH  27  28
ENDBRANCH   1  27
TORSDOF 12
ENDMDL
MODEL 3
REMARK VINA RESULT:      -6.5      5.735      7.665
REMARK  Name = 
REMARK  12 active torsions:
REMARK  status: ('A' for Active; 'I' for Inactive)
REMARK    1  A    between atoms: N_1  and  C_2
REMARK    2  A    between atoms: C_2  and  C_3
REMARK    3  A    between atoms: C_3  and  C_4
REMARK    4  A    between atoms: C_4  and  C_5
REMARK    5  A    between atoms: C_11  and  C_12
REMARK    6  A    between atoms: N_14  and  C_15
REMARK    7  A    between atoms: C_15  and  C_16
REMARK    8  A    between atoms: C_16  and  C_17
REMARK    9  A    between atoms: C_17  and  C_18
REMARK   10  A    between atoms: C_18  and  C_19
REMARK   11  A    between atoms: C_19  and  C_20
REMARK   12  A    between atoms: N_22  and  O_23
REMARK                            x       y       z     vdW  Elec       q    Type
REMARK                         _______ _______ _______ _____ _____    ______ ____
ROOT
ATOM      1  C   UNL     1       3.230   3.562  20.184  0.00  0.00    +0.000 C 
ATOM      2  O   UNL     1       3.609   2.397  20.233  0.00  0.00    +0.000 OA
ATOM      3  N   UNL     1       4.015   4.481  19.517  0.00  0.00    +0.000 N 
ATOM      4  C   UNL     1       5.253   4.074  18.871  0.00  0.00    +0.000 C 
ATOM      5  C   UNL     1       5.369   4.971  17.614  0.00  0.00    +0.000 C 
ATOM      6  C   UNL     1       4.232   5.989  17.762  0.00  0.00    +0.000 C 
ATOM      7  C   UNL     1       3.854   5.911  19.238  0.00  0.00    +0.000 C 
ATOM      8  S   UNL     1       5.095   3.978  16.083  0.00  0.00    +0.000 S 
ATOM      9  C   UNL     1       6.598   4.547  15.265  0.00  0.00    +0.000 C 
ATOM     10  C   UNL     1       7.659   4.721  16.323  0.00  0.00    +0.000 C 
ATOM     11  S   UNL     1       6.994   5.830  17.584  0.00  0.00    +0.000 S 
ENDROOT
BRANCH   7  12
ATOM     12  C   UNL     1       2.533   6.621  19.497  0.00  0.00    +0.000 C 
ATOM     13  O   UNL     1       1.751   6.750  18.565  0.00  0.00    +0.000 OA
ATOM     14  N   UNL     1       2.184   7.058  20.741  0.00  0.00    +0.000 N 
ATOM     15  H   UNL     1       2.845   6.931  21.520  0.00  0.00    +0.000 HD
BRANCH  14  16
ATOM     16  C   UNL     1       0.885   7.662  21.006  0.00  0.00    +0.000 C 
BRANCH  16  17
ATOM     17  C   UNL     1       0.963   9.195  21.081  0.00  0.00    +0.000 C 
BRANCH  17  18
ATOM     18  C   UNL     1      -0.023   9.778  22.101  0.00  0.00    +0.000 C 
BRANCH  18  19
ATOM     19  C   UNL     1      -0.295  11.261  21.832  0.00  0.00    +0.000 C 
BRANCH  19  20
ATOM     20  C   UNL     1       0.372  11.687  20.520  0.00  0.00    +0.000 C 
BRANCH  20  21
ATOM     21  C   UNL     1      -0.636  12.178  19.519  0.00  0.00    +0.000 C 
ATOM     22  O   UNL     1      -1.718  12.592  19.911  0.00  0.00    +0.000 OA
ATOM     23  N   UNL     1      -0.350  12.185  18.191  0.00  0.00    +0.000 N 
ATOM     24  H   UNL     1       0.559  11.834  17.853  0.00  0.00    +0.000 HD
BRANCH  23  25
ATOM     25  O   UNL     1      -1.230  12.675  17.302  0.00  0.00    +0.000 OA
ATOM     26  H   UNL     1      -1.873  13.213  17.833  0.00  0.00    +0.000 HD
ENDBRANCH  23  25
ENDBRANCH  20  21
ENDBRANCH  19  20
ENDBRANCH  18  19
ENDBRANCH  17  18
ENDBRANCH  16  17
ENDBRANCH  14  16
ENDBRANCH   7  12
BRANCH   1  27
ATOM     27  C   UNL     1       1.918   3.851  20.866  0.00  0.00    +0.000 C 
BRANCH  27  28
ATOM     28  C   UNL     1       0.707   3.625  19.947  0.00  0.00    +0.000 C 
BRANCH  28  29
ATOM     29  C   UNL     1       1.190   3.011  18.626  0.00  0.00    +0.000 C 
BRANCH  29  30
ATOM     30  N   UNL     1       1.076   3.963  17.528  0.00  0.00    +0.000 NA
ATOM     31  H   UNL     1       1.928   3.861  16.930  0.00  0.00    +0.000 HD
ATOM     32  H   UNL     1       1.083   4.933  17.918  0.00  0.00    +0.000 HD
ENDBRANCH  29  30
ENDBRANCH  28  29
ENDBRANCH  27  28
ENDBRANCH   1  27
TORSDOF 12
ENDMDL
MODEL 4
REMARK VINA RESULT:      -6.4      5.709      8.008
REMARK  Name = 
REMARK  12 active torsions:
REMARK  status: ('A' for Active; 'I' for Inactive)
REMARK    1  A    between atoms: N_1  and  C_2
REMARK    2  A    between atoms: C_2  and  C_3
REMARK    3  A    between atoms: C_3  and  C_4
REMARK    4  A    between atoms: C_4  and  C_5
REMARK    5  A    between atoms: C_11  and  C_12
REMARK    6  A    between atoms: N_14  and  C_15
REMARK    7  A    between atoms: C_15  and  C_16
REMARK    8  A    between atoms: C_16  and  C_17
REMARK    9  A    between atoms: C_17  and  C_18
REMARK   10  A    between atoms: C_18  and  C_19
REMARK   11  A    between atoms: C_19  and  C_20
REMARK   12  A    between atoms: N_22  and  O_23
REMARK                            x       y       z     vdW  Elec       q    Type
REMARK                         _______ _______ _______ _____ _____    ______ ____
ROOT
ATOM      1  C   UNL     1       2.435   3.521  18.581  0.00  0.00    +0.000 C 
ATOM      2  O   UNL     1       2.547   2.349  18.239  0.00  0.00    +0.000 OA
ATOM      3  N   UNL     1       3.515   4.363  18.406  0.00  0.00    +0.000 N 
ATOM      4  C   UNL     1       4.750   3.876  17.812  0.00  0.00    +0.000 C 
ATOM      5  C   UNL     1       5.311   5.071  17.003  0.00  0.00    +0.000 C 
ATOM      6  C   UNL     1       4.403   6.248  17.378  0.00  0.00    +0.000 C 
ATOM      7  C   UNL     1       3.714   5.793  18.661  0.00  0.00    +0.000 C 
ATOM      8  S   UNL     1       5.168   4.750  15.192  0.00  0.00    +0.000 S 
ATOM      9  C   UNL     1       6.894   5.133  14.836  0.00  0.00    +0.000 C 
ATOM     10  C   UNL     1       7.720   4.657  16.005  0.00  0.00    +0.000 C 
ATOM     11  S   UNL     1       7.047   5.423  17.495  0.00  0.00    +0.000 S 
ENDROOT
BRANCH   7  12
ATOM     12  C   UNL     1       2.543   6.703  18.999  0.00  0.00    +0.000 C 
ATOM     13  O   UNL     1       1.875   7.157  18.080  0.00  0.00    +0.000 OA
ATOM     14  N   UNL     1       2.192   6.972  20.290  0.00  0.00    +0.000 N 
ATOM     15  H   UNL     1       2.754   6.573  21.054  0.00  0.00    +0.000 HD
BRANCH  14  16
ATOM     16  C   UNL     1       1.021   7.776  20.615  0.00  0.00    +0.000 C 
BRANCH  16  17
ATOM     17  C   UNL     1       1.343   8.884  21.631  0.00  0.00    +0.000 C 
BRANCH  17  18
ATOM     18  C   UNL     1       0.993  10.280  21.099  0.00  0.00    +0.000 C 
BRANCH  18  19
ATOM     19  C   UNL     1       0.380  10.208  19.698  0.00  0.00    +0.000 C 
BRANCH  19  20
ATOM     20  C   UNL     1      -0.962  10.948  19.676  0.00  0.00    +0.000 C 
BRANCH  20  21
ATOM     21  C   UNL     1      -1.626  10.855  18.330  0.00  0.00    +0.000 C 
ATOM     22  O   UNL     1      -2.269   9.854  18.047  0.00  0.00    +0.000 OA
ATOM     23  N   UNL     1      -1.534  11.875  17.438  0.00  0.00    +0.000 N 
ATOM     24  H   UNL     1      -0.990  12.720  17.668  0.00  0.00    +0.000 HD
BRANCH  23  25
ATOM     25  O   UNL     1      -2.173  11.813  16.257  0.00  0.00    +0.000 OA
ATOM     26  H   UNL     1      -2.477  10.873  16.168  0.00  0.00    +0.000 HD
ENDBRANCH  23  25
ENDBRANCH  20  21
ENDBRANCH  19  20
ENDBRANCH  18  19
ENDBRANCH  17  18
ENDBRANCH  16  17
ENDBRANCH  14  16
ENDBRANCH   7  12
BRANCH   1  27
ATOM     27  C   UNL     1       1.096   3.909  19.154  0.00  0.00    +0.000 C 
BRANCH  27  28
ATOM     28  C   UNL     1       0.818   3.249  20.514  0.00  0.00    +0.000 C 
BRANCH  28  29
ATOM     29  C   UNL     1       2.118   3.215  21.329  0.00  0.00    +0.000 C 
BRANCH  29  30
ATOM     30  N   UNL     1       2.451   4.535  21.849  0.00  0.00    +0.000 NA
ATOM     31  H   UNL     1       1.561   5.078  21.931  0.00  0.00    +0.000 HD
ATOM     32  H   UNL     1       3.056   5.031  21.155  0.00  0.00    +0.000 HD
ENDBRANCH  29  30
ENDBRANCH  28  29
ENDBRANCH  27  28
ENDBRANCH   1  27
TORSDOF 12
ENDMDL
MODEL 5
REMARK VINA RESULT:      -6.4      5.648      7.770
REMARK  Name = 
REMARK  12 active torsions:
REMARK  status: ('A' for Active; 'I' for Inactive)
REMARK    1  A    between atoms: N_1  and  C_2
REMARK    2  A    between atoms: C_2  and  C_3
REMARK    3  A    between atoms: C_3  and  C_4
REMARK    4  A    between atoms: C_4  and  C_5
REMARK    5  A    between atoms: C_11  and  C_12
REMARK    6  A    between atoms: N_14  and  C_15
REMARK    7  A    between atoms: C_15  and  C_16
REMARK    8  A    between atoms: C_16  and  C_17
REMARK    9  A    between atoms: C_17  and  C_18
REMARK   10  A    between atoms: C_18  and  C_19
REMARK   11  A    between atoms: C_19  and  C_20
REMARK   12  A    between atoms: N_22  and  O_23
REMARK                            x       y       z     vdW  Elec       q    Type
REMARK                         _______ _______ _______ _____ _____    ______ ____
ROOT
ATOM      1  C   UNL     1       2.476   3.502  18.779  0.00  0.00    +0.000 C 
ATOM      2  O   UNL     1       2.584   2.332  18.426  0.00  0.00    +0.000 OA
ATOM      3  N   UNL     1       3.554   4.344  18.600  0.00  0.00    +0.000 N 
ATOM      4  C   UNL     1       4.783   3.862  17.989  0.00  0.00    +0.000 C 
ATOM      5  C   UNL     1       5.336   5.064  17.184  0.00  0.00    +0.000 C 
ATOM      6  C   UNL     1       4.432   6.239  17.579  0.00  0.00    +0.000 C 
ATOM      7  C   UNL     1       3.757   5.772  18.865  0.00  0.00    +0.000 C 
ATOM      8  S   UNL     1       5.173   4.759  15.372  0.00  0.00    +0.000 S 
ATOM      9  C   UNL     1       6.895   5.145  15.001  0.00  0.00    +0.000 C 
ATOM     10  C   UNL     1       7.734   4.659  16.157  0.00  0.00    +0.000 C 
ATOM     11  S   UNL     1       7.077   5.412  17.661  0.00  0.00    +0.000 S 
ENDROOT
BRANCH   7  12
ATOM     12  C   UNL     1       2.590   6.680  19.224  0.00  0.00    +0.000 C 
ATOM     13  O   UNL     1       1.936   7.173  18.315  0.00  0.00    +0.000 OA
ATOM     14  N   UNL     1       2.227   6.905  20.520  0.00  0.00    +0.000 N 
ATOM     15  H   UNL     1       2.777   6.473  21.275  0.00  0.00    +0.000 HD
BRANCH  14  16
ATOM     16  C   UNL     1       1.060   7.707  20.862  0.00  0.00    +0.000 C 
BRANCH  16  17
ATOM     17  C   UNL     1       1.410   8.869  21.805  0.00  0.00    +0.000 C 
BRANCH  17  18
ATOM     18  C   UNL     1       1.002  10.230  21.227  0.00  0.00    +0.000 C 
BRANCH  18  19
ATOM     19  C   UNL     1       0.497  10.099  19.787  0.00  0.00    +0.000 C 
BRANCH  19  20
ATOM     20  C   UNL     1      -0.943  10.614  19.690  0.00  0.00    +0.000 C 
BRANCH  20  21
ATOM     21  C   UNL     1      -1.046  11.807  18.780  0.00  0.00    +0.000 C 
ATOM     22  O   UNL     1      -1.681  11.714  17.740  0.00  0.00    +0.000 OA
ATOM     23  N   UNL     1      -0.459  12.986  19.111  0.00  0.00    +0.000 N 
ATOM     24  H   UNL     1       0.081  13.071  19.985  0.00  0.00    +0.000 HD
BRANCH  23  25
ATOM     25  O   UNL     1      -0.597  14.066  18.324  0.00  0.00    +0.000 OA
ATOM     26  H   UNL     1       0.304  14.238  17.948  0.00  0.00    +0.000 HD
ENDBRANCH  23  25
ENDBRANCH  20  21
ENDBRANCH  19  20
ENDBRANCH  18  19
ENDBRANCH  17  18
ENDBRANCH  16  17
ENDBRANCH  14  16
ENDBRANCH   7  12
BRANCH   1  27
ATOM     27  C   UNL     1       1.144   3.885  19.370  0.00  0.00    +0.000 C 
BRANCH  27  28
ATOM     28  C   UNL     1       0.876   3.207  20.723  0.00  0.00    +0.000 C 
BRANCH  28  29
ATOM     29  C   UNL     1       2.038   3.519  21.677  0.00  0.00    +0.000 C 
BRANCH  29  30
ATOM     30  N   UNL     1       2.739   2.304  22.071  0.00  0.00    +0.000 NA
ATOM     31  H   UNL     1       3.765   2.483  21.976  0.00  0.00    +0.000 HD
ATOM     32  H   UNL     1       2.492   1.537  21.403  0.00  0.00    +0.000 HD
ENDBRANCH  29  30
ENDBRANCH  28  29
ENDBRANCH  27  28
ENDBRANCH   1  27
TORSDOF 12
ENDMDL
MODEL 6
REMARK VINA RESULT:      -6.4      6.082      8.767
REMARK  Name = 
REMARK  12 active torsions:
REMARK  status: ('A' for Active; 'I' for Inactive)
REMARK    1  A    between atoms: N_1  and  C_2
REMARK    2  A    between atoms: C_2  and  C_3
REMARK    3  A    between atoms: C_3  and  C_4
REMARK    4  A    between atoms: C_4  and  C_5
REMARK    5  A    between atoms: C_11  and  C_12
REMARK    6  A    between atoms: N_14  and  C_15
REMARK    7  A    between atoms: C_15  and  C_16
REMARK    8  A    between atoms: C_16  and  C_17
REMARK    9  A    between atoms: C_17  and  C_18
REMARK   10  A    between atoms: C_18  and  C_19
REMARK   11  A    between atoms: C_19  and  C_20
REMARK   12  A    between atoms: N_22  and  O_23
REMARK                            x       y       z     vdW  Elec       q    Type
REMARK                         _______ _______ _______ _____ _____    ______ ____
ROOT
ATOM      1  C   UNL     1       2.482   3.670  18.866  0.00  0.00    +0.000 C 
ATOM      2  O   UNL     1       2.603   2.472  18.635  0.00  0.00    +0.000 OA
ATOM      3  N   UNL     1       3.564   4.496  18.637  0.00  0.00    +0.000 N 
ATOM      4  C   UNL     1       4.811   3.961  18.113  0.00  0.00    +0.000 C 
ATOM      5  C   UNL     1       5.385   5.080  17.210  0.00  0.00    +0.000 C 
ATOM      6  C   UNL     1       4.468   6.284  17.460  0.00  0.00    +0.000 C 
ATOM      7  C   UNL     1       3.756   5.943  18.765  0.00  0.00    +0.000 C 
ATOM      8  S   UNL     1       5.277   4.597  15.433  0.00  0.00    +0.000 S 
ATOM      9  C   UNL     1       7.009   4.952  15.076  0.00  0.00    +0.000 C 
ATOM     10  C   UNL     1       7.814   4.586  16.299  0.00  0.00    +0.000 C 
ATOM     11  S   UNL     1       7.111   5.481  17.701  0.00  0.00    +0.000 S 
ENDROOT
BRANCH   7  12
ATOM     12  C   UNL     1       2.577   6.877  18.998  0.00  0.00    +0.000 C 
ATOM     13  O   UNL     1       1.940   7.262  18.027  0.00  0.00    +0.000 OA
ATOM     14  N   UNL     1       2.186   7.241  20.254  0.00  0.00    +0.000 N 
ATOM     15  H   UNL     1       2.722   6.899  21.063  0.00  0.00    +0.000 HD
BRANCH  14  16
ATOM     16  C   UNL     1       1.008   8.068  20.481  0.00  0.00    +0.000 C 
BRANCH  16  17
ATOM     17  C   UNL     1       1.058   8.787  21.838  0.00  0.00    +0.000 C 
BRANCH  17  18
ATOM     18  C   UNL     1      -0.329   8.916  22.479  0.00  0.00    +0.000 C 
BRANCH  18  19
ATOM     19  C   UNL     1      -0.469  10.229  23.256  0.00  0.00    +0.000 C 
BRANCH  19  20
ATOM     20  C   UNL     1      -1.133  11.291  22.374  0.00  0.00    +0.000 C 
BRANCH  20  21
ATOM     21  C   UNL     1      -1.993  12.223  23.181  0.00  0.00    +0.000 C 
ATOM     22  O   UNL     1      -1.571  13.335  23.462  0.00  0.00    +0.000 OA
ATOM     23  N   UNL     1      -3.236  11.850  23.582  0.00  0.00    +0.000 N 
ATOM     24  H   UNL     1      -3.598  10.912  23.351  0.00  0.00    +0.000 HD
BRANCH  23  25
ATOM     25  O   UNL     1      -4.025  12.704  24.255  0.00  0.00    +0.000 OA
ATOM     26  H   UNL     1      -4.946  12.349  24.157  0.00  0.00    +0.000 HD
ENDBRANCH  23  25
ENDBRANCH  20  21
ENDBRANCH  19  20
ENDBRANCH  18  19
ENDBRANCH  17  18
ENDBRANCH  16  17
ENDBRANCH  14  16
ENDBRANCH   7  12
BRANCH   1  27
ATOM     27  C   UNL     1       1.132   4.103  19.377  0.00  0.00    +0.000 C 
BRANCH  27  28
ATOM     28  C   UNL     1       0.878   3.668  20.829  0.00  0.00    +0.000 C 
BRANCH  28  29
ATOM     29  C   UNL     1       2.179   3.812  21.630  0.00  0.00    +0.000 C 
BRANCH  29  30
ATOM     30  N   UNL     1       2.749   2.510  21.950  0.00  0.00    +0.000 NA
ATOM     31  H   UNL     1       2.941   2.491  22.978  0.00  0.00    +0.000 HD
ATOM     32  H   UNL     1       3.667   2.411  21.459  0.00  0.00    +0.000 HD
ENDBRANCH  29  30
ENDBRANCH  28  29
ENDBRANCH  27  28
ENDBRANCH   1  27
TORSDOF 12
ENDMDL
MODEL 7
REMARK VINA RESULT:      -6.3      5.731      8.435
REMARK  Name = 
REMARK  12 active torsions:
REMARK  status: ('A' for Active; 'I' for Inactive)
REMARK    1  A    between atoms: N_1  and  C_2
REMARK    2  A    between atoms: C_2  and  C_3
REMARK    3  A    between atoms: C_3  and  C_4
REMARK    4  A    between atoms: C_4  and  C_5
REMARK    5  A    between atoms: C_11  and  C_12
REMARK    6  A    between atoms: N_14  and  C_15
REMARK    7  A    between atoms: C_15  and  C_16
REMARK    8  A    between atoms: C_16  and  C_17
REMARK    9  A    between atoms: C_17  and  C_18
REMARK   10  A    between atoms: C_18  and  C_19
REMARK   11  A    between atoms: C_19  and  C_20
REMARK   12  A    between atoms: N_22  and  O_23
REMARK                            x       y       z     vdW  Elec       q    Type
REMARK                         _______ _______ _______ _____ _____    ______ ____
ROOT
ATOM      1  C   UNL     1       2.415   3.524  18.548  0.00  0.00    +0.000 C 
ATOM      2  O   UNL     1       2.428   2.382  18.100  0.00  0.00    +0.000 OA
ATOM      3  N   UNL     1       3.534   4.312  18.370  0.00  0.00    +0.000 N 
ATOM      4  C   UNL     1       4.693   3.809  17.650  0.00  0.00    +0.000 C 
ATOM      5  C   UNL     1       5.276   5.037  16.909  0.00  0.00    +0.000 C 
ATOM      6  C   UNL     1       4.474   6.228  17.449  0.00  0.00    +0.000 C 
ATOM      7  C   UNL     1       3.842   5.699  18.733  0.00  0.00    +0.000 C 
ATOM      8  S   UNL     1       4.994   4.891  15.092  0.00  0.00    +0.000 S 
ATOM      9  C   UNL     1       6.714   5.202  14.649  0.00  0.00    +0.000 C 
ATOM     10  C   UNL     1       7.583   4.574  15.710  0.00  0.00    +0.000 C 
ATOM     11  S   UNL     1       7.060   5.240  17.305  0.00  0.00    +0.000 S 
ENDROOT
BRANCH   7  12
ATOM     12  C   UNL     1       2.758   6.643  19.232  0.00  0.00    +0.000 C 
ATOM     13  O   UNL     1       2.273   6.438  20.336  0.00  0.00    +0.000 OA
ATOM     14  N   UNL     1       2.364   7.731  18.508  0.00  0.00    +0.000 N 
ATOM     15  H   UNL     1       2.791   7.899  17.587  0.00  0.00    +0.000 HD
BRANCH  14  16
ATOM     16  C   UNL     1       1.387   8.680  19.022  0.00  0.00    +0.000 C 
BRANCH  16  17
ATOM     17  C   UNL     1       1.307   9.953  18.164  0.00  0.00    +0.000 C 
BRANCH  17  18
ATOM     18  C   UNL     1       0.278  10.954  18.702  0.00  0.00    +0.000 C 
BRANCH  18  19
ATOM     19  C   UNL     1      -1.140  10.376  18.663  0.00  0.00    +0.000 C 
BRANCH  19  20
ATOM     20  C   UNL     1      -1.477   9.914  17.241  0.00  0.00    +0.000 C 
BRANCH  20  21
ATOM     21  C   UNL     1      -2.736  10.558  16.732  0.00  0.00    +0.000 C 
ATOM     22  O   UNL     1      -3.345  10.038  15.809  0.00  0.00    +0.000 OA
ATOM     23  N   UNL     1      -3.211  11.698  17.298  0.00  0.00    +0.000 N 
ATOM     24  H   UNL     1      -2.701  12.145  18.075  0.00  0.00    +0.000 HD
BRANCH  23  25
ATOM     25  O   UNL     1      -4.365  12.243  16.879  0.00  0.00    +0.000 OA
ATOM     26  H   UNL     1      -4.285  13.214  17.066  0.00  0.00    +0.000 HD
ENDBRANCH  23  25
ENDBRANCH  20  21
ENDBRANCH  19  20
ENDBRANCH  18  19
ENDBRANCH  17  18
ENDBRANCH  16  17
ENDBRANCH  14  16
ENDBRANCH   7  12
BRANCH   1  27
ATOM     27  C   UNL     1       1.145   3.936  19.247  0.00  0.00    +0.000 C 
BRANCH  27  28
ATOM     28  C   UNL     1       0.850   3.087  20.493  0.00  0.00    +0.000 C 
BRANCH  28  29
ATOM     29  C   UNL     1       1.838   3.468  21.604  0.00  0.00    +0.000 C 
BRANCH  29  30
ATOM     30  N   UNL     1       2.760   2.376  21.888  0.00  0.00    +0.000 NA
ATOM     31  H   UNL     1       2.202   1.493  21.939  0.00  0.00    +0.000 HD
ATOM     32  H   UNL     1       3.189   2.530  22.830  0.00  0.00    +0.000 HD
ENDBRANCH  29  30
ENDBRANCH  28  29
ENDBRANCH  27  28
ENDBRANCH   1  27
TORSDOF 12
ENDMDL
MODEL 8
REMARK VINA RESULT:      -6.3      5.485      7.582
REMARK  Name = 
REMARK  12 active torsions:
REMARK  status: ('A' for Active; 'I' for Inactive)
REMARK    1  A    between atoms: N_1  and  C_2
REMARK    2  A    between atoms: C_2  and  C_3
REMARK    3  A    between atoms: C_3  and  C_4
REMARK    4  A    between atoms: C_4  and  C_5
REMARK    5  A    between atoms: C_11  and  C_12
REMARK    6  A    between atoms: N_14  and  C_15
REMARK    7  A    between atoms: C_15  and  C_16
REMARK    8  A    between atoms: C_16  and  C_17
REMARK    9  A    between atoms: C_17  and  C_18
REMARK   10  A    between atoms: C_18  and  C_19
REMARK   11  A    between atoms: C_19  and  C_20
REMARK   12  A    between atoms: N_22  and  O_23
REMARK                            x       y       z     vdW  Elec       q    Type
REMARK                         _______ _______ _______ _____ _____    ______ ____
ROOT
ATOM      1  C   UNL     1       2.269   3.574  18.427  0.00  0.00    +0.000 C 
ATOM      2  O   UNL     1       2.285   2.443  17.954  0.00  0.00    +0.000 OA
ATOM      3  N   UNL     1       3.419   4.334  18.355  0.00  0.00    +0.000 N 
ATOM      4  C   UNL     1       4.617   3.813  17.714  0.00  0.00    +0.000 C 
ATOM      5  C   UNL     1       5.289   5.039  17.051  0.00  0.00    +0.000 C 
ATOM      6  C   UNL     1       4.479   6.241  17.555  0.00  0.00    +0.000 C 
ATOM      7  C   UNL     1       3.736   5.702  18.774  0.00  0.00    +0.000 C 
ATOM      8  S   UNL     1       5.144   4.942  15.214  0.00  0.00    +0.000 S 
ATOM      9  C   UNL     1       6.901   5.212  14.912  0.00  0.00    +0.000 C 
ATOM     10  C   UNL     1       7.668   4.536  16.022  0.00  0.00    +0.000 C 
ATOM     11  S   UNL     1       7.041   5.182  17.587  0.00  0.00    +0.000 S 
ENDROOT
BRANCH   7  12
ATOM     12  C   UNL     1       2.642   6.666  19.210  0.00  0.00    +0.000 C 
ATOM     13  O   UNL     1       2.068   7.321  18.351  0.00  0.00    +0.000 OA
ATOM     14  N   UNL     1       2.255   6.770  20.514  0.00  0.00    +0.000 N 
ATOM     15  H   UNL     1       2.737   6.204  21.226  0.00  0.00    +0.000 HD
BRANCH  14  16
ATOM     16  C   UNL     1       1.152   7.631  20.920  0.00  0.00    +0.000 C 
BRANCH  16  17
ATOM     17  C   UNL     1       1.597   8.711  21.919  0.00  0.00    +0.000 C 
BRANCH  17  18
ATOM     18  C   UNL     1       0.408   9.390  22.610  0.00  0.00    +0.000 C 
BRANCH  18  19
ATOM     19  C   UNL     1      -0.393  10.252  21.629  0.00  0.00    +0.000 C 
BRANCH  19  20
ATOM     20  C   UNL     1       0.498  11.360  21.058  0.00  0.00    +0.000 C 
BRANCH  20  21
ATOM     21  C   UNL     1       0.683  11.213  19.573  0.00  0.00    +0.000 C 
ATOM     22  O   UNL     1       1.502  11.916  18.999  0.00  0.00    +0.000 OA
ATOM     23  N   UNL     1      -0.034  10.298  18.871  0.00  0.00    +0.000 N 
ATOM     24  H   UNL     1      -0.729   9.704  19.348  0.00  0.00    +0.000 HD
BRANCH  23  25
ATOM     25  O   UNL     1       0.171  10.130  17.554  0.00  0.00    +0.000 OA
ATOM     26  H   UNL     1       1.102   9.797  17.470  0.00  0.00    +0.000 HD
ENDBRANCH  23  25
ENDBRANCH  20  21
ENDBRANCH  19  20
ENDBRANCH  18  19
ENDBRANCH  17  18
ENDBRANCH  16  17
ENDBRANCH  14  16
ENDBRANCH   7  12
BRANCH   1  27
ATOM     27  C   UNL     1       0.960   4.008  19.036  0.00  0.00    +0.000 C 
BRANCH  27  28
ATOM     28  C   UNL     1       0.627   3.251  20.331  0.00  0.00    +0.000 C 
BRANCH  28  29
ATOM     29  C   UNL     1       1.775   3.441  21.332  0.00  0.00    +0.000 C 
BRANCH  29  30
ATOM     30  N   UNL     1       1.856   2.324  22.263  0.00  0.00    +0.000 NA
ATOM     31  H   UNL     1       2.773   1.846  22.107  0.00  0.00    +0.000 HD
ATOM     32  H   UNL     1       1.102   1.635  22.033  0.00  0.00    +0.000 HD
ENDBRANCH  29  30
ENDBRANCH  28  29
ENDBRANCH  27  28
ENDBRANCH   1  27
TORSDOF 12
ENDMDL
MODEL 9
REMARK VINA RESULT:      -6.3      5.550      7.542
REMARK  Name = 
REMARK  12 active torsions:
REMARK  status: ('A' for Active; 'I' for Inactive)
REMARK    1  A    between atoms: N_1  and  C_2
REMARK    2  A    between atoms: C_2  and  C_3
REMARK    3  A    between atoms: C_3  and  C_4
REMARK    4  A    between atoms: C_4  and  C_5
REMARK    5  A    between atoms: C_11  and  C_12
REMARK    6  A    between atoms: N_14  and  C_15
REMARK    7  A    between atoms: C_15  and  C_16
REMARK    8  A    between atoms: C_16  and  C_17
REMARK    9  A    between atoms: C_17  and  C_18
REMARK   10  A    between atoms: C_18  and  C_19
REMARK   11  A    between atoms: C_19  and  C_20
REMARK   12  A    between atoms: N_22  and  O_23
REMARK                            x       y       z     vdW  Elec       q    Type
REMARK                         _______ _______ _______ _____ _____    ______ ____
ROOT
ATOM      1  C   UNL     1       4.127   3.384  19.905  0.00  0.00    +0.000 C 
ATOM      2  O   UNL     1       4.730   2.317  19.939  0.00  0.00    +0.000 OA
ATOM      3  N   UNL     1       4.607   4.384  19.085  0.00  0.00    +0.000 N 
ATOM      4  C   UNL     1       5.788   4.172  18.263  0.00  0.00    +0.000 C 
ATOM      5  C   UNL     1       5.534   4.984  16.969  0.00  0.00    +0.000 C 
ATOM      6  C   UNL     1       4.256   5.779  17.259  0.00  0.00    +0.000 C 
ATOM      7  C   UNL     1       4.128   5.736  18.779  0.00  0.00    +0.000 C 
ATOM      8  S   UNL     1       5.232   3.852  15.544  0.00  0.00    +0.000 S 
ATOM      9  C   UNL     1       6.453   4.634  14.471  0.00  0.00    +0.000 C 
ATOM     10  C   UNL     1       7.607   5.078  15.335  0.00  0.00    +0.000 C 
ATOM     11  S   UNL     1       6.936   6.128  16.642  0.00  0.00    +0.000 S 
ENDROOT
BRANCH   7  12
ATOM     12  C   UNL     1       2.748   6.202  19.219  0.00  0.00    +0.000 C 
ATOM     13  O   UNL     1       1.792   5.949  18.499  0.00  0.00    +0.000 OA
ATOM     14  N   UNL     1       2.550   6.834  20.412  0.00  0.00    +0.000 N 
ATOM     15  H   UNL     1       3.361   7.028  21.015  0.00  0.00    +0.000 HD
BRANCH  14  16
ATOM     16  C   UNL     1       1.219   7.206  20.872  0.00  0.00    +0.000 C 
BRANCH  16  17
ATOM     17  C   UNL     1       1.200   8.592  21.533  0.00  0.00    +0.000 C 
BRANCH  17  18
ATOM     18  C   UNL     1      -0.194   9.232  21.503  0.00  0.00    +0.000 C 
BRANCH  18  19
ATOM     19  C   UNL     1      -0.135  10.681  21.008  0.00  0.00    +0.000 C 
BRANCH  19  20
ATOM     20  C   UNL     1       0.670  10.756  19.707  0.00  0.00    +0.000 C 
BRANCH  20  21
ATOM     21  C   UNL     1       0.198  11.880  18.826  0.00  0.00    +0.000 C 
ATOM     22  O   UNL     1       0.776  12.956  18.866  0.00  0.00    +0.000 OA
ATOM     23  N   UNL     1      -0.848  11.704  17.978  0.00  0.00    +0.000 N 
ATOM     24  H   UNL     1      -1.343  10.800  17.941  0.00  0.00    +0.000 HD
BRANCH  23  25
ATOM     25  O   UNL     1      -1.235  12.691  17.152  0.00  0.00    +0.000 OA
ATOM     26  H   UNL     1      -0.407  13.189  16.926  0.00  0.00    +0.000 HD
ENDBRANCH  23  25
ENDBRANCH  20  21
ENDBRANCH  19  20
ENDBRANCH  18  19
ENDBRANCH  17  18
ENDBRANCH  16  17
ENDBRANCH  14  16
ENDBRANCH   7  12
BRANCH   1  27
ATOM     27  C   UNL     1       2.903   3.468  20.779  0.00  0.00    +0.000 C 
BRANCH  27  28
ATOM     28  C   UNL     1       1.872   2.373  20.466  0.00  0.00    +0.000 C 
BRANCH  28  29
ATOM     29  C   UNL     1       0.716   2.987  19.665  0.00  0.00    +0.000 C 
BRANCH  29  30
ATOM     30  N   UNL     1       0.430   2.208  18.467  0.00  0.00    +0.000 NA
ATOM     31  H   UNL     1      -0.510   1.767  18.591  0.00  0.00    +0.000 HD
ATOM     32  H   UNL     1       1.131   1.435  18.390  0.00  0.00    +0.000 HD
ENDBRANCH  29  30
ENDBRANCH  28  29
ENDBRANCH  27  28
ENDBRANCH   1  27
TORSDOF 12
ENDMDL
