MODEL 1
REMARK VINA RESULT:      -8.8      0.000      0.000
REMARK  Name = 
REMARK  4 active torsions:
REMARK  status: ('A' for Active; 'I' for Inactive)
REMARK    1  A    between atoms: C_1  and  C_2
REMARK    2  A    between atoms: C_3  and  C_4
REMARK    3  A    between atoms: N_6  and  C_7
REMARK    4  A    between atoms: C_7  and  C_8
REMARK                            x       y       z     vdW  Elec       q    Type
REMARK                         _______ _______ _______ _____ _____    ______ ____
ROOT
ATOM      1  C   UNL     1       6.102   6.794  17.557  0.00  0.00    +0.000 C 
ATOM      2  C   UNL     1       4.987   5.993  18.118  0.00  0.00    +0.000 C 
ATOM      3  C   UNL     1       3.673   6.202  18.313  0.00  0.00    +0.000 C 
ATOM      4  C   UNL     1       3.034   4.994  18.928  0.00  0.00    +0.000 C 
ATOM      5  C   UNL     1       1.962   4.379  18.004  0.00  0.00    +0.000 C 
ATOM      6  C   UNL     1       1.715   2.873  18.110  0.00  0.00    +0.000 C 
ATOM      7  C   UNL     1       1.644   2.272  19.509  0.00  0.00    +0.000 C 
ATOM      8  C   UNL     1       1.060   3.194  20.571  0.00  0.00    +0.000 C 
ATOM      9  C   UNL     1       2.127   4.084  21.202  0.00  0.00    +0.000 C 
ATOM     10  C   UNL     1       2.528   5.292  20.358  0.00  0.00    +0.000 C 
ATOM     11  O   UNL     1       4.124   4.067  19.040  0.00  0.00    +0.000 OA
ATOM     12  C   UNL     1       5.273   4.634  18.594  0.00  0.00    +0.000 C 
ATOM     13  O   UNL     1       6.362   4.095  18.586  0.00  0.00    +0.000 OA
ENDROOT
BRANCH   3  14
ATOM     14  C   UNL     1       2.996   7.469  17.935  0.00  0.00    +0.000 C 
ATOM     15  O   UNL     1       3.170   7.979  16.831  0.00  0.00    +0.000 OA
ATOM     16  N   UNL     1       2.177   8.056  18.865  0.00  0.00    +0.000 N 
ATOM     17  H   UNL     1       2.012   7.666  19.775  0.00  0.00    +0.000 HD
BRANCH  16  18
ATOM     18  C   UNL     1       1.486   9.292  18.557  0.00  0.00    +0.000 C 
BRANCH  18  19
ATOM     19  C   UNL     1       0.714   9.812  19.744  0.00  0.00    +0.000 A 
ATOM     20  C   UNL     1       0.505   9.007  20.872  0.00  0.00    +0.000 A 
ATOM     21  C   UNL     1      -0.212   9.496  21.968  0.00  0.00    +0.000 A 
ATOM     22  C   UNL     1      -0.736  10.787  21.936  0.00  0.00    +0.000 A 
ATOM     23 CL   UNL     1      -1.623  11.383  23.283  0.00  0.00    +0.000 Cl
ATOM     24  C   UNL     1      -0.543  11.598  20.821  0.00  0.00    +0.000 A 
ATOM     25  C   UNL     1       0.179  11.110  19.727  0.00  0.00    +0.000 A 
ENDBRANCH  18  19
ENDBRANCH  16  18
ENDBRANCH   3  14
TORSDOF 3
ENDMDL
MODEL 2
REMARK VINA RESULT:      -8.6      1.653      3.596
REMARK  Name = 
REMARK  4 active torsions:
REMARK  status: ('A' for Active; 'I' for Inactive)
REMARK    1  A    between atoms: C_1  and  C_2
REMARK    2  A    between atoms: C_3  and  C_4
REMARK    3  A    between atoms: N_6  and  C_7
REMARK    4  A    between atoms: C_7  and  C_8
REMARK                            x       y       z     vdW  Elec       q    Type
REMARK                         _______ _______ _______ _____ _____    ______ ____
ROOT
ATOM      1  C   UNL     1       1.984   3.806  20.559  0.00  0.00    +0.000 C 
ATOM      2  C   UNL     1       3.127   4.039  19.645  0.00  0.00    +0.000 C 
ATOM      3  C   UNL     1       3.408   4.942  18.689  0.00  0.00    +0.000 C 
ATOM      4  C   UNL     1       4.757   4.675  18.093  0.00  0.00    +0.000 C 
ATOM      5  C   UNL     1       5.732   5.847  18.334  0.00  0.00    +0.000 C 
ATOM      6  C   UNL     1       7.223   5.519  18.430  0.00  0.00    +0.000 C 
ATOM      7  C   UNL     1       7.790   4.533  17.415  0.00  0.00    +0.000 C 
ATOM      8  C   UNL     1       7.129   4.578  16.043  0.00  0.00    +0.000 C 
ATOM      9  C   UNL     1       5.904   3.671  15.972  0.00  0.00    +0.000 C 
ATOM     10  C   UNL     1       4.644   4.252  16.611  0.00  0.00    +0.000 C 
ATOM     11  O   UNL     1       5.223   3.537  18.833  0.00  0.00    +0.000 OA
ATOM     12  C   UNL     1       4.283   3.138  19.726  0.00  0.00    +0.000 C 
ATOM     13  O   UNL     1       4.390   2.188  20.476  0.00  0.00    +0.000 OA
ENDROOT
BRANCH   3  14
ATOM     14  C   UNL     1       2.479   6.042  18.324  0.00  0.00    +0.000 C 
ATOM     15  O   UNL     1       1.453   5.823  17.683  0.00  0.00    +0.000 OA
ATOM     16  N   UNL     1       2.809   7.312  18.720  0.00  0.00    +0.000 N 
ATOM     17  H   UNL     1       3.637   7.527  19.245  0.00  0.00    +0.000 HD
BRANCH  16  18
ATOM     18  C   UNL     1       1.943   8.429  18.397  0.00  0.00    +0.000 C 
BRANCH  18  19
ATOM     19  C   UNL     1       1.207   8.936  19.612  0.00  0.00    +0.000 A 
ATOM     20  C   UNL     1       1.401   8.343  20.867  0.00  0.00    +0.000 A 
ATOM     21  C   UNL     1       0.715   8.819  21.988  0.00  0.00    +0.000 A 
ATOM     22  C   UNL     1      -0.176   9.883  21.858  0.00  0.00    +0.000 A 
ATOM     23 CL   UNL     1      -1.023  10.462  23.239  0.00  0.00    +0.000 Cl
ATOM     24  C   UNL     1      -0.384  10.480  20.618  0.00  0.00    +0.000 A 
ATOM     25  C   UNL     1       0.305  10.006  19.498  0.00  0.00    +0.000 A 
ENDBRANCH  18  19
ENDBRANCH  16  18
ENDBRANCH   3  14
TORSDOF 3
ENDMDL
MODEL 3
REMARK VINA RESULT:      -8.5      0.584      1.138
REMARK  Name = 
REMARK  4 active torsions:
REMARK  status: ('A' for Active; 'I' for Inactive)
REMARK    1  A    between atoms: C_1  and  C_2
REMARK    2  A    between atoms: C_3  and  C_4
REMARK    3  A    between atoms: N_6  and  C_7
REMARK    4  A    between atoms: C_7  and  C_8
REMARK                            x       y       z     vdW  Elec       q    Type
REMARK                         _______ _______ _______ _____ _____    ______ ____
ROOT
ATOM      1  C   UNL     1       6.517   6.926  17.504  0.00  0.00    +0.000 C 
ATOM      2  C   UNL     1       5.442   6.016  17.967  0.00  0.00    +0.000 C 
ATOM      3  C   UNL     1       4.105   6.108  18.081  0.00  0.00    +0.000 C 
ATOM      4  C   UNL     1       3.534   4.830  18.618  0.00  0.00    +0.000 C 
ATOM      5  C   UNL     1       2.579   4.160  17.607  0.00  0.00    +0.000 C 
ATOM      6  C   UNL     1       2.456   2.636  17.653  0.00  0.00    +0.000 C 
ATOM      7  C   UNL     1       2.349   1.983  19.026  0.00  0.00    +0.000 C 
ATOM      8  C   UNL     1       1.621   2.815  20.074  0.00  0.00    +0.000 C 
ATOM      9  C   UNL     1       2.567   3.768  20.800  0.00  0.00    +0.000 C 
ATOM     10  C   UNL     1       2.916   5.034  20.019  0.00  0.00    +0.000 C 
ATOM     11  O   UNL     1       4.690   3.994  18.773  0.00  0.00    +0.000 OA
ATOM     12  C   UNL     1       5.812   4.670  18.421  0.00  0.00    +0.000 C 
ATOM     13  O   UNL     1       6.941   4.224  18.469  0.00  0.00    +0.000 OA
ENDROOT
BRANCH   3  14
ATOM     14  C   UNL     1       3.347   7.326  17.697  0.00  0.00    +0.000 C 
ATOM     15  O   UNL     1       3.480   7.834  16.586  0.00  0.00    +0.000 OA
ATOM     16  N   UNL     1       2.501   7.870  18.628  0.00  0.00    +0.000 N 
ATOM     17  H   UNL     1       2.368   7.480  19.544  0.00  0.00    +0.000 HD
BRANCH  16  18
ATOM     18  C   UNL     1       1.732   9.058  18.315  0.00  0.00    +0.000 C 
BRANCH  18  19
ATOM     19  C   UNL     1       0.947   9.547  19.506  0.00  0.00    +0.000 A 
ATOM     20  C   UNL     1       0.189  10.724  19.432  0.00  0.00    +0.000 A 
ATOM     21  C   UNL     1      -0.536  11.171  20.540  0.00  0.00    +0.000 A 
ATOM     22  C   UNL     1      -0.497  10.450  21.733  0.00  0.00    +0.000 A 
ATOM     23 CL   UNL     1      -1.385  11.006  23.097  0.00  0.00    +0.000 Cl
ATOM     24  C   UNL     1       0.255   9.282  21.825  0.00  0.00    +0.000 A 
ATOM     25  C   UNL     1       0.976   8.833  20.715  0.00  0.00    +0.000 A 
ENDBRANCH  18  19
ENDBRANCH  16  18
ENDBRANCH   3  14
TORSDOF 3
ENDMDL
MODEL 4
REMARK VINA RESULT:      -8.0      0.929      1.024
REMARK  Name = 
REMARK  4 active torsions:
REMARK  status: ('A' for Active; 'I' for Inactive)
REMARK    1  A    between atoms: C_1  and  C_2
REMARK    2  A    between atoms: C_3  and  C_4
REMARK    3  A    between atoms: N_6  and  C_7
REMARK    4  A    between atoms: C_7  and  C_8
REMARK                            x       y       z     vdW  Elec       q    Type
REMARK                         _______ _______ _______ _____ _____    ______ ____
ROOT
ATOM      1  C   UNL     1       6.398   6.719  17.604  0.00  0.00    +0.000 C 
ATOM      2  C   UNL     1       5.184   6.029  18.104  0.00  0.00    +0.000 C 
ATOM      3  C   UNL     1       3.869   6.309  18.109  0.00  0.00    +0.000 C 
ATOM      4  C   UNL     1       3.099   5.203  18.765  0.00  0.00    +0.000 C 
ATOM      5  C   UNL     1       2.115   4.530  17.785  0.00  0.00    +0.000 C 
ATOM      6  C   UNL     1       1.779   3.056  18.020  0.00  0.00    +0.000 C 
ATOM      7  C   UNL     1       1.510   2.619  19.454  0.00  0.00    +0.000 C 
ATOM      8  C   UNL     1       0.850   3.676  20.331  0.00  0.00    +0.000 C 
ATOM      9  C   UNL     1       1.879   4.589  20.992  0.00  0.00    +0.000 C 
ATOM     10  C   UNL     1       2.441   5.679  20.080  0.00  0.00    +0.000 C 
ATOM     11  O   UNL     1       4.118   4.253  19.110  0.00  0.00    +0.000 OA
ATOM     12  C   UNL     1       5.339   4.722  18.753  0.00  0.00    +0.000 C 
ATOM     13  O   UNL     1       6.392   4.144  18.940  0.00  0.00    +0.000 OA
ENDROOT
BRANCH   3  14
ATOM     14  C   UNL     1       3.309   7.550  17.517  0.00  0.00    +0.000 C 
ATOM     15  O   UNL     1       3.559   7.871  16.357  0.00  0.00    +0.000 OA
ATOM     16  N   UNL     1       2.510   8.332  18.311  0.00  0.00    +0.000 N 
ATOM     17  H   UNL     1       2.285   8.099  19.262  0.00  0.00    +0.000 HD
BRANCH  16  18
ATOM     18  C   UNL     1       1.932   9.555  17.792  0.00  0.00    +0.000 C 
BRANCH  18  19
ATOM     19  C   UNL     1       0.953  10.167  18.763  0.00  0.00    +0.000 A 
ATOM     20  C   UNL     1       1.384  10.655  20.004  0.00  0.00    +0.000 A 
ATOM     21  C   UNL     1       0.471  11.221  20.899  0.00  0.00    +0.000 A 
ATOM     22  C   UNL     1      -0.880  11.291  20.562  0.00  0.00    +0.000 A 
ATOM     23 CL   UNL     1      -2.002  11.982  21.667  0.00  0.00    +0.000 Cl
ATOM     24  C   UNL     1      -1.325  10.806  19.336  0.00  0.00    +0.000 A 
ATOM     25  C   UNL     1      -0.411  10.244  18.439  0.00  0.00    +0.000 A 
ENDBRANCH  18  19
ENDBRANCH  16  18
ENDBRANCH   3  14
TORSDOF 3
ENDMDL
MODEL 5
REMARK VINA RESULT:      -8.0      1.299      3.425
REMARK  Name = 
REMARK  4 active torsions:
REMARK  status: ('A' for Active; 'I' for Inactive)
REMARK    1  A    between atoms: C_1  and  C_2
REMARK    2  A    between atoms: C_3  and  C_4
REMARK    3  A    between atoms: N_6  and  C_7
REMARK    4  A    between atoms: C_7  and  C_8
REMARK                            x       y       z     vdW  Elec       q    Type
REMARK                         _______ _______ _______ _____ _____    ______ ____
ROOT
ATOM      1  C   UNL     1       1.776   5.156  20.329  0.00  0.00    +0.000 C 
ATOM      2  C   UNL     1       2.991   5.097  19.482  0.00  0.00    +0.000 C 
ATOM      3  C   UNL     1       3.547   5.907  18.563  0.00  0.00    +0.000 C 
ATOM      4  C   UNL     1       4.815   5.308  18.033  0.00  0.00    +0.000 C 
ATOM      5  C   UNL     1       6.041   6.188  18.353  0.00  0.00    +0.000 C 
ATOM      6  C   UNL     1       7.391   5.487  18.519  0.00  0.00    +0.000 C 
ATOM      7  C   UNL     1       7.744   4.399  17.512  0.00  0.00    +0.000 C 
ATOM      8  C   UNL     1       7.196   4.625  16.108  0.00  0.00    +0.000 C 
ATOM      9  C   UNL     1       5.785   4.064  15.951  0.00  0.00    +0.000 C 
ATOM     10  C   UNL     1       4.682   4.943  16.537  0.00  0.00    +0.000 C 
ATOM     11  O   UNL     1       4.931   4.081  18.768  0.00  0.00    +0.000 OA
ATOM     12  C   UNL     1       3.871   3.928  19.601  0.00  0.00    +0.000 C 
ATOM     13  O   UNL     1       3.688   2.975  20.332  0.00  0.00    +0.000 OA
ENDROOT
BRANCH   3  14
ATOM     14  C   UNL     1       2.953   7.212  18.177  0.00  0.00    +0.000 C 
ATOM     15  O   UNL     1       3.165   7.706  17.072  0.00  0.00    +0.000 OA
ATOM     16  N   UNL     1       2.166   7.852  19.100  0.00  0.00    +0.000 N 
ATOM     17  H   UNL     1       1.971   7.476  20.010  0.00  0.00    +0.000 HD
BRANCH  16  18
ATOM     18  C   UNL     1       1.555   9.128  18.784  0.00  0.00    +0.000 C 
BRANCH  18  19
ATOM     19  C   UNL     1       0.742   9.660  19.937  0.00  0.00    +0.000 A 
ATOM     20  C   UNL     1       0.675   8.962  21.151  0.00  0.00    +0.000 A 
ATOM     21  C   UNL     1      -0.080   9.461  22.215  0.00  0.00    +0.000 A 
ATOM     22  C   UNL     1      -0.784  10.656  22.067  0.00  0.00    +0.000 A 
ATOM     23 CL   UNL     1      -1.718  11.265  23.377  0.00  0.00    +0.000 Cl
ATOM     24  C   UNL     1      -0.732  11.359  20.868  0.00  0.00    +0.000 A 
ATOM     25  C   UNL     1       0.027  10.862  19.805  0.00  0.00    +0.000 A 
ENDBRANCH  18  19
ENDBRANCH  16  18
ENDBRANCH   3  14
TORSDOF 3
ENDMDL
MODEL 6
REMARK VINA RESULT:      -8.0      1.783      4.016
REMARK  Name = 
REMARK  4 active torsions:
REMARK  status: ('A' for Active; 'I' for Inactive)
REMARK    1  A    between atoms: C_1  and  C_2
REMARK    2  A    between atoms: C_3  and  C_4
REMARK    3  A    between atoms: N_6  and  C_7
REMARK    4  A    between atoms: C_7  and  C_8
REMARK                            x       y       z     vdW  Elec       q    Type
REMARK                         _______ _______ _______ _____ _____    ______ ____
ROOT
ATOM      1  C   UNL     1       1.489   2.665  19.270  0.00  0.00    +0.000 C 
ATOM      2  C   UNL     1       2.607   3.548  18.860  0.00  0.00    +0.000 C 
ATOM      3  C   UNL     1       3.015   4.783  19.203  0.00  0.00    +0.000 C 
ATOM      4  C   UNL     1       4.248   5.160  18.439  0.00  0.00    +0.000 C 
ATOM      5  C   UNL     1       5.453   5.392  19.376  0.00  0.00    +0.000 C 
ATOM      6  C   UNL     1       6.849   5.111  18.816  0.00  0.00    +0.000 C 
ATOM      7  C   UNL     1       7.149   5.599  17.404  0.00  0.00    +0.000 C 
ATOM      8  C   UNL     1       6.440   6.889  17.010  0.00  0.00    +0.000 C 
ATOM      9  C   UNL     1       5.054   6.622  16.431  0.00  0.00    +0.000 C 
ATOM     10  C   UNL     1       3.975   6.334  17.473  0.00  0.00    +0.000 C 
ATOM     11  O   UNL     1       4.510   3.995  17.643  0.00  0.00    +0.000 OA
ATOM     12  C   UNL     1       3.557   3.054  17.856  0.00  0.00    +0.000 C 
ATOM     13  O   UNL     1       3.506   1.973  17.304  0.00  0.00    +0.000 OA
ENDROOT
BRANCH   3  14
ATOM     14  C   UNL     1       2.313   5.608  20.218  0.00  0.00    +0.000 C 
ATOM     15  O   UNL     1       1.818   5.099  21.221  0.00  0.00    +0.000 OA
ATOM     16  N   UNL     1       2.227   6.958  19.994  0.00  0.00    +0.000 N 
ATOM     17  H   UNL     1       2.621   7.407  19.187  0.00  0.00    +0.000 HD
BRANCH  16  18
ATOM     18  C   UNL     1       1.556   7.818  20.948  0.00  0.00    +0.000 C 
BRANCH  18  19
ATOM     19  C   UNL     1       0.948   9.026  20.280  0.00  0.00    +0.000 A 
ATOM     20  C   UNL     1       1.293   9.369  18.965  0.00  0.00    +0.000 A 
ATOM     21  C   UNL     1       0.725  10.490  18.353  0.00  0.00    +0.000 A 
ATOM     22  C   UNL     1      -0.181  11.282  19.057  0.00  0.00    +0.000 A 
ATOM     23 CL   UNL     1      -0.873  12.665  18.303  0.00  0.00    +0.000 Cl
ATOM     24  C   UNL     1      -0.531  10.959  20.365  0.00  0.00    +0.000 A 
ATOM     25  C   UNL     1       0.034   9.835  20.975  0.00  0.00    +0.000 A 
ENDBRANCH  18  19
ENDBRANCH  16  18
ENDBRANCH   3  14
TORSDOF 3
ENDMDL
MODEL 7
REMARK VINA RESULT:      -8.0      1.759      3.965
REMARK  Name = 
REMARK  4 active torsions:
REMARK  status: ('A' for Active; 'I' for Inactive)
REMARK    1  A    between atoms: C_1  and  C_2
REMARK    2  A    between atoms: C_3  and  C_4
REMARK    3  A    between atoms: N_6  and  C_7
REMARK    4  A    between atoms: C_7  and  C_8
REMARK                            x       y       z     vdW  Elec       q    Type
REMARK                         _______ _______ _______ _____ _____    ______ ____
ROOT
ATOM      1  C   UNL     1       1.149   2.887  19.143  0.00  0.00    +0.000 C 
ATOM      2  C   UNL     1       2.346   3.671  18.755  0.00  0.00    +0.000 C 
ATOM      3  C   UNL     1       2.886   4.837  19.152  0.00  0.00    +0.000 C 
ATOM      4  C   UNL     1       4.139   5.125  18.382  0.00  0.00    +0.000 C 
ATOM      5  C   UNL     1       5.376   5.183  19.304  0.00  0.00    +0.000 C 
ATOM      6  C   UNL     1       6.727   4.789  18.701  0.00  0.00    +0.000 C 
ATOM      7  C   UNL     1       7.053   5.317  17.310  0.00  0.00    +0.000 C 
ATOM      8  C   UNL     1       6.476   6.692  16.996  0.00  0.00    +0.000 C 
ATOM      9  C   UNL     1       5.061   6.600  16.434  0.00  0.00    +0.000 C 
ATOM     10  C   UNL     1       3.974   6.370  17.482  0.00  0.00    +0.000 C 
ATOM     11  O   UNL     1       4.267   3.983  17.522  0.00  0.00    +0.000 OA
ATOM     12  C   UNL     1       3.224   3.135  17.708  0.00  0.00    +0.000 C 
ATOM     13  O   UNL     1       3.053   2.095  17.103  0.00  0.00    +0.000 OA
ENDROOT
BRANCH   3  14
ATOM     14  C   UNL     1       2.288   5.676  20.221  0.00  0.00    +0.000 C 
ATOM     15  O   UNL     1       1.944   5.188  21.295  0.00  0.00    +0.000 OA
ATOM     16  N   UNL     1       2.126   7.014  19.967  0.00  0.00    +0.000 N 
ATOM     17  H   UNL     1       2.397   7.445  19.102  0.00  0.00    +0.000 HD
BRANCH  16  18
ATOM     18  C   UNL     1       1.550   7.886  20.971  0.00  0.00    +0.000 C 
BRANCH  18  19
ATOM     19  C   UNL     1       0.915   9.107  20.353  0.00  0.00    +0.000 A 
ATOM     20  C   UNL     1       0.050   9.921  21.098  0.00  0.00    +0.000 A 
ATOM     21  C   UNL     1      -0.535  11.050  20.519  0.00  0.00    +0.000 A 
ATOM     22  C   UNL     1      -0.268  11.365  19.187  0.00  0.00    +0.000 A 
ATOM     23 CL   UNL     1      -0.994  12.753  18.475  0.00  0.00    +0.000 Cl
ATOM     24  C   UNL     1       0.584  10.565  18.432  0.00  0.00    +0.000 A 
ATOM     25  C   UNL     1       1.173   9.438  19.012  0.00  0.00    +0.000 A 
ENDBRANCH  18  19
ENDBRANCH  16  18
ENDBRANCH   3  14
TORSDOF 3
ENDMDL
MODEL 8
REMARK VINA RESULT:      -8.0      1.272      3.559
REMARK  Name = 
REMARK  4 active torsions:
REMARK  status: ('A' for Active; 'I' for Inactive)
REMARK    1  A    between atoms: C_1  and  C_2
REMARK    2  A    between atoms: C_3  and  C_4
REMARK    3  A    between atoms: N_6  and  C_7
REMARK    4  A    between atoms: C_7  and  C_8
REMARK                            x       y       z     vdW  Elec       q    Type
REMARK                         _______ _______ _______ _____ _____    ______ ____
ROOT
ATOM      1  C   UNL     1       1.826   5.357  20.306  0.00  0.00    +0.000 C 
ATOM      2  C   UNL     1       3.008   5.266  19.415  0.00  0.00    +0.000 C 
ATOM      3  C   UNL     1       3.542   6.052  18.464  0.00  0.00    +0.000 C 
ATOM      4  C   UNL     1       4.779   5.425  17.896  0.00  0.00    +0.000 C 
ATOM      5  C   UNL     1       6.031   6.289  18.157  0.00  0.00    +0.000 C 
ATOM      6  C   UNL     1       7.375   5.570  18.283  0.00  0.00    +0.000 C 
ATOM      7  C   UNL     1       7.672   4.461  17.282  0.00  0.00    +0.000 C 
ATOM      8  C   UNL     1       7.075   4.674  15.896  0.00  0.00    +0.000 C 
ATOM      9  C   UNL     1       5.652   4.133  15.800  0.00  0.00    +0.000 C 
ATOM     10  C   UNL     1       4.585   5.039  16.413  0.00  0.00    +0.000 C 
ATOM     11  O   UNL     1       4.904   4.208  18.647  0.00  0.00    +0.000 OA
ATOM     12  C   UNL     1       3.874   4.085  19.521  0.00  0.00    +0.000 C 
ATOM     13  O   UNL     1       3.703   3.147  20.273  0.00  0.00    +0.000 OA
ENDROOT
BRANCH   3  14
ATOM     14  C   UNL     1       2.954   7.360  18.079  0.00  0.00    +0.000 C 
ATOM     15  O   UNL     1       3.199   7.873  16.989  0.00  0.00    +0.000 OA
ATOM     16  N   UNL     1       2.135   7.983  18.986  0.00  0.00    +0.000 N 
ATOM     17  H   UNL     1       1.913   7.592  19.884  0.00  0.00    +0.000 HD
BRANCH  16  18
ATOM     18  C   UNL     1       1.529   9.261  18.670  0.00  0.00    +0.000 C 
BRANCH  18  19
ATOM     19  C   UNL     1       0.722   9.798  19.826  0.00  0.00    +0.000 A 
ATOM     20  C   UNL     1       0.182  11.091  19.784  0.00  0.00    +0.000 A 
ATOM     21  C   UNL     1      -0.564  11.582  20.859  0.00  0.00    +0.000 A 
ATOM     22  C   UNL     1      -0.763  10.788  21.987  0.00  0.00    +0.000 A 
ATOM     23 CL   UNL     1      -1.677  11.398  23.311  0.00  0.00    +0.000 Cl
ATOM     24  C   UNL     1      -0.230   9.504  22.047  0.00  0.00    +0.000 A 
ATOM     25  C   UNL     1       0.513   9.011  20.970  0.00  0.00    +0.000 A 
ENDBRANCH  18  19
ENDBRANCH  16  18
ENDBRANCH   3  14
TORSDOF 3
ENDMDL
MODEL 9
REMARK VINA RESULT:      -7.9      2.305      4.128
REMARK  Name = 
REMARK  4 active torsions:
REMARK  status: ('A' for Active; 'I' for Inactive)
REMARK    1  A    between atoms: C_1  and  C_2
REMARK    2  A    between atoms: C_3  and  C_4
REMARK    3  A    between atoms: N_6  and  C_7
REMARK    4  A    between atoms: C_7  and  C_8
REMARK                            x       y       z     vdW  Elec       q    Type
REMARK                         _______ _______ _______ _____ _____    ______ ____
ROOT
ATOM      1  C   UNL     1       2.579   2.348  21.731  0.00  0.00    +0.000 C 
ATOM      2  C   UNL     1       3.279   3.055  20.632  0.00  0.00    +0.000 C 
ATOM      3  C   UNL     1       3.070   4.198  19.954  0.00  0.00    +0.000 C 
ATOM      4  C   UNL     1       4.146   4.406  18.931  0.00  0.00    +0.000 C 
ATOM      5  C   UNL     1       4.963   5.686  19.212  0.00  0.00    +0.000 C 
ATOM      6  C   UNL     1       6.423   5.709  18.755  0.00  0.00    +0.000 C 
ATOM      7  C   UNL     1       6.731   5.153  17.370  0.00  0.00    +0.000 C 
ATOM      8  C   UNL     1       5.630   5.361  16.338  0.00  0.00    +0.000 C 
ATOM      9  C   UNL     1       4.604   4.232  16.366  0.00  0.00    +0.000 C 
ATOM     10  C   UNL     1       3.581   4.330  17.495  0.00  0.00    +0.000 C 
ATOM     11  O   UNL     1       5.003   3.271  19.119  0.00  0.00    +0.000 OA
ATOM     12  C   UNL     1       4.507   2.462  20.089  0.00  0.00    +0.000 C 
ATOM     13  O   UNL     1       5.008   1.415  20.450  0.00  0.00    +0.000 OA
ENDROOT
BRANCH   3  14
ATOM     14  C   UNL     1       1.924   5.099  20.232  0.00  0.00    +0.000 C 
ATOM     15  O   UNL     1       0.765   4.704  20.131  0.00  0.00    +0.000 OA
ATOM     16  N   UNL     1       2.202   6.391  20.598  0.00  0.00    +0.000 N 
ATOM     17  H   UNL     1       3.137   6.746  20.692  0.00  0.00    +0.000 HD
BRANCH  16  18
ATOM     18  C   UNL     1       1.127   7.319  20.885  0.00  0.00    +0.000 C 
BRANCH  18  19
ATOM     19  C   UNL     1       1.287   8.612  20.125  0.00  0.00    +0.000 A 
ATOM     20  C   UNL     1       1.861   8.627  18.847  0.00  0.00    +0.000 A 
ATOM     21  C   UNL     1       2.006   9.829  18.149  0.00  0.00    +0.000 A 
ATOM     22  C   UNL     1       1.589  11.025  18.731  0.00  0.00    +0.000 A 
ATOM     23 CL   UNL     1       1.775  12.504  17.871  0.00  0.00    +0.000 Cl
ATOM     24  C   UNL     1       1.022  11.029  20.002  0.00  0.00    +0.000 A 
ATOM     25  C   UNL     1       0.873   9.826  20.698  0.00  0.00    +0.000 A 
ENDBRANCH  18  19
ENDBRANCH  16  18
ENDBRANCH   3  14
TORSDOF 3
ENDMDL
