MODEL 1
REMARK VINA RESULT:      -7.8      0.000      0.000
REMARK  Name = 
REMARK  6 active torsions:
REMARK  status: ('A' for Active; 'I' for Inactive)
REMARK    1  A    between atoms: C_1  and  O_2
REMARK    2  A    between atoms: O_2  and  C_3
REMARK    3  A    between atoms: C_8  and  C_9
REMARK    4  A    between atoms: C_11  and  N_12
REMARK    5  A    between atoms: C_13  and  C_14
REMARK    6  A    between atoms: C_19  and  C_20
REMARK                            x       y       z     vdW  Elec       q    Type
REMARK                         _______ _______ _______ _____ _____    ______ ____
ROOT
ATOM      1  C   UNL     1      -1.690  10.609  19.025  0.00  0.00    +0.000 A 
ATOM      2  C   UNL     1      -1.893  11.604  20.069  0.00  0.00    +0.000 A 
ATOM      3  C   UNL     1      -1.136  11.666  21.178  0.00  0.00    +0.000 A 
ATOM      4  C   UNL     1      -0.112  10.674  21.367  0.00  0.00    +0.000 A 
ATOM      5  N   UNL     1       0.744  10.507  22.354  0.00  0.00    +0.000 NA
ATOM      6  C   UNL     1       1.477   9.404  22.006  0.00  0.00    +0.000 A 
ATOM      7  C   UNL     1       1.088   8.863  20.787  0.00  0.00    +0.000 A 
ATOM      8  N   UNL     1       0.035   9.687  20.379  0.00  0.00    +0.000 N 
ATOM      9  C   UNL     1      -0.767   9.651  19.231  0.00  0.00    +0.000 A 
ENDROOT
BRANCH   7  10
ATOM     10  C   UNL     1       1.632   7.687  20.084  0.00  0.00    +0.000 A 
ATOM     11  C   UNL     1       1.554   6.415  20.678  0.00  0.00    +0.000 A 
ATOM     12  C   UNL     1       2.064   5.281  20.032  0.00  0.00    +0.000 A 
ATOM     13  C   UNL     1       2.643   5.411  18.778  0.00  0.00    +0.000 A 
ATOM     14  F   UNL     1       3.116   4.328  18.149  0.00  0.00    +0.000 F 
ATOM     15  C   UNL     1       2.750   6.655  18.175  0.00  0.00    +0.000 A 
ATOM     16  C   UNL     1       2.272   7.790  18.839  0.00  0.00    +0.000 A 
ENDBRANCH   7  10
BRANCH   1  22
ATOM     17  C   UNL     1      -3.676  11.318  17.659  0.00  0.00    +0.000 A 
ATOM     18  C   UNL     1      -4.368  11.322  16.444  0.00  0.00    +0.000 A 
ATOM     19  C   UNL     1      -3.851  10.648  15.338  0.00  0.00    +0.000 A 
ATOM     20  C   UNL     1      -2.629   9.985  15.432  0.00  0.00    +0.000 A 
ATOM     21  C   UNL     1      -1.911  10.006  16.628  0.00  0.00    +0.000 A 
ATOM     22  C   UNL     1      -2.422  10.678  17.745  0.00  0.00    +0.000 A 
BRANCH  17  24
ATOM     23  C   UNL     1      -5.558  12.205  18.769  0.00  0.00    +0.000 C 
ATOM     24  O   UNL     1      -4.153  11.955  18.779  0.00  0.00    +0.000 OA
ENDBRANCH  17  24
ENDBRANCH   1  22
BRANCH   3  25
ATOM     25  N   UNL     1      -1.252  12.631  22.162  0.00  0.00    +0.000 N 
ATOM     26  C   UNL     1      -2.184  12.680  23.188  0.00  0.00    +0.000 C 
ATOM     27  C   UNL     1      -2.107  13.930  24.022  0.00  0.00    +0.000 C 
ATOM     28  O   UNL     1      -3.040  11.835  23.433  0.00  0.00    +0.000 OA
ATOM     29  H   UNL     1      -0.579  13.389  22.080  0.00  0.00    +0.000 HD
ENDBRANCH   3  25
TORSDOF 4
ENDMDL
MODEL 2
REMARK VINA RESULT:      -7.6      4.354      6.865
REMARK  Name = 
REMARK  6 active torsions:
REMARK  status: ('A' for Active; 'I' for Inactive)
REMARK    1  A    between atoms: C_1  and  O_2
REMARK    2  A    between atoms: O_2  and  C_3
REMARK    3  A    between atoms: C_8  and  C_9
REMARK    4  A    between atoms: C_11  and  N_12
REMARK    5  A    between atoms: C_13  and  C_14
REMARK    6  A    between atoms: C_19  and  C_20
REMARK                            x       y       z     vdW  Elec       q    Type
REMARK                         _______ _______ _______ _____ _____    ______ ____
ROOT
ATOM      1  C   UNL     1       0.865  10.256  18.906  0.00  0.00    +0.000 A 
ATOM      2  C   UNL     1      -0.569  10.364  18.674  0.00  0.00    +0.000 A 
ATOM      3  C   UNL     1      -1.197  11.541  18.508  0.00  0.00    +0.000 A 
ATOM      4  C   UNL     1      -0.427  12.751  18.614  0.00  0.00    +0.000 A 
ATOM      5  N   UNL     1      -0.796  14.011  18.506  0.00  0.00    +0.000 NA
ATOM      6  C   UNL     1       0.350  14.735  18.702  0.00  0.00    +0.000 A 
ATOM      7  C   UNL     1       1.459  13.932  18.936  0.00  0.00    +0.000 A 
ATOM      8  N   UNL     1       0.944  12.634  18.895  0.00  0.00    +0.000 N 
ATOM      9  C   UNL     1       1.571  11.392  19.059  0.00  0.00    +0.000 A 
ENDROOT
BRANCH   7  10
ATOM     10  C   UNL     1       2.854  14.337  19.188  0.00  0.00    +0.000 A 
ATOM     11  C   UNL     1       3.721  14.586  18.108  0.00  0.00    +0.000 A 
ATOM     12  C   UNL     1       5.050  14.972  18.321  0.00  0.00    +0.000 A 
ATOM     13  C   UNL     1       5.520  15.125  19.618  0.00  0.00    +0.000 A 
ATOM     14  F   UNL     1       6.785  15.510  19.826  0.00  0.00    +0.000 F 
ATOM     15  C   UNL     1       4.694  14.869  20.702  0.00  0.00    +0.000 A 
ATOM     16  C   UNL     1       3.377  14.449  20.487  0.00  0.00    +0.000 A 
ENDBRANCH   7  10
BRANCH   1  22
ATOM     17  C   UNL     1       1.498   8.106  20.041  0.00  0.00    +0.000 A 
ATOM     18  C   UNL     1       2.196   6.895  20.033  0.00  0.00    +0.000 A 
ATOM     19  C   UNL     1       2.983   6.544  18.936  0.00  0.00    +0.000 A 
ATOM     20  C   UNL     1       3.059   7.391  17.832  0.00  0.00    +0.000 A 
ATOM     21  C   UNL     1       2.337   8.584  17.813  0.00  0.00    +0.000 A 
ATOM     22  C   UNL     1       1.546   8.947  18.910  0.00  0.00    +0.000 A 
BRANCH  17  24
ATOM     23  C   UNL     1       1.453   9.047  22.203  0.00  0.00    +0.000 C 
ATOM     24  O   UNL     1       0.724   8.501  21.106  0.00  0.00    +0.000 OA
ENDBRANCH  17  24
ENDBRANCH   1  22
BRANCH   3  25
ATOM     25  N   UNL     1      -2.542  11.686  18.222  0.00  0.00    +0.000 N 
ATOM     26  C   UNL     1      -3.185  11.403  17.026  0.00  0.00    +0.000 C 
ATOM     27  C   UNL     1      -4.640  11.783  17.011  0.00  0.00    +0.000 C 
ATOM     28  O   UNL     1      -2.671  10.917  16.022  0.00  0.00    +0.000 OA
ATOM     29  H   UNL     1      -3.089  12.068  18.989  0.00  0.00    +0.000 HD
ENDBRANCH   3  25
TORSDOF 4
ENDMDL
MODEL 3
REMARK VINA RESULT:      -7.5      0.917      1.291
REMARK  Name = 
REMARK  6 active torsions:
REMARK  status: ('A' for Active; 'I' for Inactive)
REMARK    1  A    between atoms: C_1  and  O_2
REMARK    2  A    between atoms: O_2  and  C_3
REMARK    3  A    between atoms: C_8  and  C_9
REMARK    4  A    between atoms: C_11  and  N_12
REMARK    5  A    between atoms: C_13  and  C_14
REMARK    6  A    between atoms: C_19  and  C_20
REMARK                            x       y       z     vdW  Elec       q    Type
REMARK                         _______ _______ _______ _____ _____    ______ ____
ROOT
ATOM      1  C   UNL     1      -1.688  10.624  19.241  0.00  0.00    +0.000 A 
ATOM      2  C   UNL     1      -1.928  11.556  20.334  0.00  0.00    +0.000 A 
ATOM      3  C   UNL     1      -1.197  11.565  21.462  0.00  0.00    +0.000 A 
ATOM      4  C   UNL     1      -0.164  10.577  21.618  0.00  0.00    +0.000 A 
ATOM      5  N   UNL     1       0.673  10.365  22.614  0.00  0.00    +0.000 NA
ATOM      6  C   UNL     1       1.428   9.291  22.221  0.00  0.00    +0.000 A 
ATOM      7  C   UNL     1       1.073   8.816  20.965  0.00  0.00    +0.000 A 
ATOM      8  N   UNL     1       0.018   9.648  20.581  0.00  0.00    +0.000 N 
ATOM      9  C   UNL     1      -0.757   9.667  19.415  0.00  0.00    +0.000 A 
ENDROOT
BRANCH   7  10
ATOM     10  C   UNL     1       1.648   7.688  20.211  0.00  0.00    +0.000 A 
ATOM     11  C   UNL     1       2.223   7.908  18.946  0.00  0.00    +0.000 A 
ATOM     12  C   UNL     1       2.776   6.854  18.208  0.00  0.00    +0.000 A 
ATOM     13  C   UNL     1       2.770   5.571  18.737  0.00  0.00    +0.000 A 
ATOM     14  F   UNL     1       3.313   4.564  18.043  0.00  0.00    +0.000 F 
ATOM     15  C   UNL     1       2.194   5.320  19.973  0.00  0.00    +0.000 A 
ATOM     16  C   UNL     1       1.611   6.369  20.691  0.00  0.00    +0.000 A 
ENDBRANCH   7  10
BRANCH   1  22
ATOM     17  C   UNL     1      -3.619  11.446  17.859  0.00  0.00    +0.000 A 
ATOM     18  C   UNL     1      -4.287  11.510  16.633  0.00  0.00    +0.000 A 
ATOM     19  C   UNL     1      -3.777  10.846  15.518  0.00  0.00    +0.000 A 
ATOM     20  C   UNL     1      -2.583  10.133  15.616  0.00  0.00    +0.000 A 
ATOM     21  C   UNL     1      -1.887  10.094  16.825  0.00  0.00    +0.000 A 
ATOM     22  C   UNL     1      -2.393  10.755  17.951  0.00  0.00    +0.000 A 
BRANCH  17  24
ATOM     23  C   UNL     1      -5.494  11.923  19.207  0.00  0.00    +0.000 C 
ATOM     24  O   UNL     1      -4.093  12.071  18.988  0.00  0.00    +0.000 OA
ENDBRANCH  17  24
ENDBRANCH   1  22
BRANCH   3  25
ATOM     25  N   UNL     1      -1.348  12.472  22.495  0.00  0.00    +0.000 N 
ATOM     26  C   UNL     1      -0.864  13.770  22.554  0.00  0.00    +0.000 C 
ATOM     27  C   UNL     1      -1.106  14.452  23.873  0.00  0.00    +0.000 C 
ATOM     28  O   UNL     1      -0.259  14.361  21.664  0.00  0.00    +0.000 OA
ATOM     29  H   UNL     1      -1.855  12.105  23.297  0.00  0.00    +0.000 HD
ENDBRANCH   3  25
TORSDOF 4
ENDMDL
MODEL 4
REMARK VINA RESULT:      -7.4      4.527      6.457
REMARK  Name = 
REMARK  6 active torsions:
REMARK  status: ('A' for Active; 'I' for Inactive)
REMARK    1  A    between atoms: C_1  and  O_2
REMARK    2  A    between atoms: O_2  and  C_3
REMARK    3  A    between atoms: C_8  and  C_9
REMARK    4  A    between atoms: C_11  and  N_12
REMARK    5  A    between atoms: C_13  and  C_14
REMARK    6  A    between atoms: C_19  and  C_20
REMARK                            x       y       z     vdW  Elec       q    Type
REMARK                         _______ _______ _______ _____ _____    ______ ____
ROOT
ATOM      1  C   UNL     1       0.735  10.803  19.187  0.00  0.00    +0.000 A 
ATOM      2  C   UNL     1      -0.702  11.038  19.193  0.00  0.00    +0.000 A 
ATOM      3  C   UNL     1      -1.243  12.266  19.109  0.00  0.00    +0.000 A 
ATOM      4  C   UNL     1      -0.363  13.402  19.063  0.00  0.00    +0.000 A 
ATOM      5  N   UNL     1      -0.633  14.690  18.993  0.00  0.00    +0.000 NA
ATOM      6  C   UNL     1       0.589  15.309  18.983  0.00  0.00    +0.000 A 
ATOM      7  C   UNL     1       1.647  14.411  19.045  0.00  0.00    +0.000 A 
ATOM      8  N   UNL     1       1.020  13.164  19.116  0.00  0.00    +0.000 N 
ATOM      9  C   UNL     1       1.554  11.872  19.198  0.00  0.00    +0.000 A 
ENDROOT
BRANCH   7  10
ATOM     10  C   UNL     1       3.094  14.690  19.056  0.00  0.00    +0.000 A 
ATOM     11  C   UNL     1       3.760  14.902  20.277  0.00  0.00    +0.000 A 
ATOM     12  C   UNL     1       5.134  15.171  20.315  0.00  0.00    +0.000 A 
ATOM     13  C   UNL     1       5.857  15.214  19.131  0.00  0.00    +0.000 A 
ATOM     14  F   UNL     1       7.173  15.453  19.164  0.00  0.00    +0.000 F 
ATOM     15  C   UNL     1       5.224  15.027  17.911  0.00  0.00    +0.000 A 
ATOM     16  C   UNL     1       3.845  14.795  17.874  0.00  0.00    +0.000 A 
ENDBRANCH   7  10
BRANCH   1  22
ATOM     17  C   UNL     1       1.410   8.631  20.254  0.00  0.00    +0.000 A 
ATOM     18  C   UNL     1       1.987   7.362  20.151  0.00  0.00    +0.000 A 
ATOM     19  C   UNL     1       2.494   6.916  18.932  0.00  0.00    +0.000 A 
ATOM     20  C   UNL     1       2.408   7.727  17.801  0.00  0.00    +0.000 A 
ATOM     21  C   UNL     1       1.801   8.980  17.883  0.00  0.00    +0.000 A 
ATOM     22  C   UNL     1       1.290   9.438  19.104  0.00  0.00    +0.000 A 
BRANCH  17  24
ATOM     23  C   UNL     1      -0.310   8.516  21.863  0.00  0.00    +0.000 C 
ATOM     24  O   UNL     1       0.911   9.118  21.439  0.00  0.00    +0.000 OA
ENDBRANCH  17  24
ENDBRANCH   1  22
BRANCH   3  25
ATOM     25  N   UNL     1      -2.599  12.530  19.047  0.00  0.00    +0.000 N 
ATOM     26  C   UNL     1      -3.485  12.645  20.108  0.00  0.00    +0.000 C 
ATOM     27  C   UNL     1      -4.919  12.823  19.689  0.00  0.00    +0.000 C 
ATOM     28  O   UNL     1      -3.201  12.587  21.301  0.00  0.00    +0.000 OA
ATOM     29  H   UNL     1      -2.960  12.620  18.100  0.00  0.00    +0.000 HD
ENDBRANCH   3  25
TORSDOF 4
ENDMDL
MODEL 5
REMARK VINA RESULT:      -7.1      3.399      4.578
REMARK  Name = 
REMARK  6 active torsions:
REMARK  status: ('A' for Active; 'I' for Inactive)
REMARK    1  A    between atoms: C_1  and  O_2
REMARK    2  A    between atoms: O_2  and  C_3
REMARK    3  A    between atoms: C_8  and  C_9
REMARK    4  A    between atoms: C_11  and  N_12
REMARK    5  A    between atoms: C_13  and  C_14
REMARK    6  A    between atoms: C_19  and  C_20
REMARK                            x       y       z     vdW  Elec       q    Type
REMARK                         _______ _______ _______ _____ _____    ______ ____
ROOT
ATOM      1  C   UNL     1       1.125  13.478  20.555  0.00  0.00    +0.000 A 
ATOM      2  C   UNL     1       0.202  13.908  21.595  0.00  0.00    +0.000 A 
ATOM      3  C   UNL     1      -0.492  13.047  22.360  0.00  0.00    +0.000 A 
ATOM      4  C   UNL     1      -0.355  11.639  22.105  0.00  0.00    +0.000 A 
ATOM      5  N   UNL     1      -0.922  10.604  22.692  0.00  0.00    +0.000 NA
ATOM      6  C   UNL     1      -0.428   9.508  22.037  0.00  0.00    +0.000 A 
ATOM      7  C   UNL     1       0.463   9.844  21.025  0.00  0.00    +0.000 A 
ATOM      8  N   UNL     1       0.495  11.241  21.061  0.00  0.00    +0.000 N 
ATOM      9  C   UNL     1       1.209  12.162  20.284  0.00  0.00    +0.000 A 
ENDROOT
BRANCH   7  10
ATOM     10  C   UNL     1       1.196   8.952  20.109  0.00  0.00    +0.000 A 
ATOM     11  C   UNL     1       1.379   9.322  18.764  0.00  0.00    +0.000 A 
ATOM     12  C   UNL     1       2.070   8.493  17.872  0.00  0.00    +0.000 A 
ATOM     13  C   UNL     1       2.597   7.291  18.323  0.00  0.00    +0.000 A 
ATOM     14  F   UNL     1       3.273   6.503  17.478  0.00  0.00    +0.000 F 
ATOM     15  C   UNL     1       2.417   6.891  19.638  0.00  0.00    +0.000 A 
ATOM     16  C   UNL     1       1.695   7.705  20.518  0.00  0.00    +0.000 A 
ENDBRANCH   7  10
BRANCH   1  22
ATOM     17  C   UNL     1       1.481  15.310  18.872  0.00  0.00    +0.000 A 
ATOM     18  C   UNL     1       2.342  16.175  18.192  0.00  0.00    +0.000 A 
ATOM     19  C   UNL     1       3.714  16.142  18.441  0.00  0.00    +0.000 A 
ATOM     20  C   UNL     1       4.231  15.260  19.388  0.00  0.00    +0.000 A 
ATOM     21  C   UNL     1       3.377  14.418  20.100  0.00  0.00    +0.000 A 
ATOM     22  C   UNL     1       1.998  14.442  19.856  0.00  0.00    +0.000 A 
BRANCH  17  24
ATOM     23  C   UNL     1      -0.460  16.582  18.453  0.00  0.00    +0.000 C 
ATOM     24  O   UNL     1       0.125  15.295  18.648  0.00  0.00    +0.000 OA
ENDBRANCH  17  24
ENDBRANCH   1  22
BRANCH   3  25
ATOM     25  N   UNL     1      -1.329  13.410  23.400  0.00  0.00    +0.000 N 
ATOM     26  C   UNL     1      -2.686  13.688  23.331  0.00  0.00    +0.000 C 
ATOM     27  C   UNL     1      -3.277  14.165  24.630  0.00  0.00    +0.000 C 
ATOM     28  O   UNL     1      -3.396  13.604  22.333  0.00  0.00    +0.000 OA
ATOM     29  H   UNL     1      -0.859  13.497  24.298  0.00  0.00    +0.000 HD
ENDBRANCH   3  25
TORSDOF 4
ENDMDL
MODEL 6
REMARK VINA RESULT:      -7.1      3.455      5.027
REMARK  Name = 
REMARK  6 active torsions:
REMARK  status: ('A' for Active; 'I' for Inactive)
REMARK    1  A    between atoms: C_1  and  O_2
REMARK    2  A    between atoms: O_2  and  C_3
REMARK    3  A    between atoms: C_8  and  C_9
REMARK    4  A    between atoms: C_11  and  N_12
REMARK    5  A    between atoms: C_13  and  C_14
REMARK    6  A    between atoms: C_19  and  C_20
REMARK                            x       y       z     vdW  Elec       q    Type
REMARK                         _______ _______ _______ _____ _____    ______ ____
ROOT
ATOM      1  C   UNL     1       1.273  13.046  20.521  0.00  0.00    +0.000 A 
ATOM      2  C   UNL     1       0.273  13.422  21.510  0.00  0.00    +0.000 A 
ATOM      3  C   UNL     1      -0.458  12.522  22.192  0.00  0.00    +0.000 A 
ATOM      4  C   UNL     1      -0.280  11.127  21.893  0.00  0.00    +0.000 A 
ATOM      5  N   UNL     1      -0.869  10.062  22.400  0.00  0.00    +0.000 NA
ATOM      6  C   UNL     1      -0.312   9.000  21.739  0.00  0.00    +0.000 A 
ATOM      7  C   UNL     1       0.641   9.387  20.806  0.00  0.00    +0.000 A 
ATOM      8  N   UNL     1       0.647  10.782  20.897  0.00  0.00    +0.000 N 
ATOM      9  C   UNL     1       1.397  11.743  20.207  0.00  0.00    +0.000 A 
ENDROOT
BRANCH   7  10
ATOM     10  C   UNL     1       1.450   8.542  19.909  0.00  0.00    +0.000 A 
ATOM     11  C   UNL     1       1.714   8.964  18.594  0.00  0.00    +0.000 A 
ATOM     12  C   UNL     1       2.479   8.179  17.721  0.00  0.00    +0.000 A 
ATOM     13  C   UNL     1       2.998   6.971  18.164  0.00  0.00    +0.000 A 
ATOM     14  F   UNL     1       3.745   6.227  17.339  0.00  0.00    +0.000 F 
ATOM     15  C   UNL     1       2.740   6.521  19.450  0.00  0.00    +0.000 A 
ATOM     16  C   UNL     1       1.946   7.290  20.307  0.00  0.00    +0.000 A 
ENDBRANCH   7  10
BRANCH   1  22
ATOM     17  C   UNL     1       3.386  14.405  20.553  0.00  0.00    +0.000 A 
ATOM     18  C   UNL     1       4.195  15.395  19.987  0.00  0.00    +0.000 A 
ATOM     19  C   UNL     1       3.783  16.068  18.838  0.00  0.00    +0.000 A 
ATOM     20  C   UNL     1       2.571  15.740  18.233  0.00  0.00    +0.000 A 
ATOM     21  C   UNL     1       1.773  14.729  18.766  0.00  0.00    +0.000 A 
ATOM     22  C   UNL     1       2.176  14.048  19.922  0.00  0.00    +0.000 A 
BRANCH  17  24
ATOM     23  C   UNL     1       4.778  14.345  22.455  0.00  0.00    +0.000 C 
ATOM     24  O   UNL     1       3.743  13.727  21.694  0.00  0.00    +0.000 OA
ENDBRANCH  17  24
ENDBRANCH   1  22
BRANCH   3  25
ATOM     25  N   UNL     1      -1.371  12.832  23.183  0.00  0.00    +0.000 N 
ATOM     26  C   UNL     1      -2.729  13.071  23.034  0.00  0.00    +0.000 C 
ATOM     27  C   UNL     1      -3.416  13.496  24.302  0.00  0.00    +0.000 C 
ATOM     28  O   UNL     1      -3.370  12.992  21.990  0.00  0.00    +0.000 OA
ATOM     29  H   UNL     1      -0.962  12.910  24.112  0.00  0.00    +0.000 HD
ENDBRANCH   3  25
TORSDOF 4
ENDMDL
MODEL 7
REMARK VINA RESULT:      -7.1      3.175      4.733
REMARK  Name = 
REMARK  6 active torsions:
REMARK  status: ('A' for Active; 'I' for Inactive)
REMARK    1  A    between atoms: C_1  and  O_2
REMARK    2  A    between atoms: O_2  and  C_3
REMARK    3  A    between atoms: C_8  and  C_9
REMARK    4  A    between atoms: C_11  and  N_12
REMARK    5  A    between atoms: C_13  and  C_14
REMARK    6  A    between atoms: C_19  and  C_20
REMARK                            x       y       z     vdW  Elec       q    Type
REMARK                         _______ _______ _______ _____ _____    ______ ____
ROOT
ATOM      1  C   UNL     1       0.290  13.176  20.780  0.00  0.00    +0.000 A 
ATOM      2  C   UNL     1      -0.682  13.327  21.853  0.00  0.00    +0.000 A 
ATOM      3  C   UNL     1      -1.178  12.285  22.544  0.00  0.00    +0.000 A 
ATOM      4  C   UNL     1      -0.767  10.958  22.172  0.00  0.00    +0.000 A 
ATOM      5  N   UNL     1      -1.107   9.787  22.672  0.00  0.00    +0.000 NA
ATOM      6  C   UNL     1      -0.415   8.869  21.927  0.00  0.00    +0.000 A 
ATOM      7  C   UNL     1       0.374   9.457  20.947  0.00  0.00    +0.000 A 
ATOM      8  N   UNL     1       0.128  10.824  21.099  0.00  0.00    +0.000 N 
ATOM      9  C   UNL     1       0.630  11.930  20.401  0.00  0.00    +0.000 A 
ENDROOT
BRANCH   7  10
ATOM     10  C   UNL     1       1.254   8.807  19.959  0.00  0.00    +0.000 A 
ATOM     11  C   UNL     1       1.411   9.370  18.679  0.00  0.00    +0.000 A 
ATOM     12  C   UNL     1       2.240   8.772  17.722  0.00  0.00    +0.000 A 
ATOM     13  C   UNL     1       2.931   7.612  18.043  0.00  0.00    +0.000 A 
ATOM     14  F   UNL     1       3.738   7.047  17.137  0.00  0.00    +0.000 F 
ATOM     15  C   UNL     1       2.782   7.025  19.290  0.00  0.00    +0.000 A 
ATOM     16  C   UNL     1       1.926   7.605  20.232  0.00  0.00    +0.000 A 
ENDBRANCH   7  10
BRANCH   1  22
ATOM     17  C   UNL     1       2.135  14.880  20.695  0.00  0.00    +0.000 A 
ATOM     18  C   UNL     1       2.700  16.022  20.120  0.00  0.00    +0.000 A 
ATOM     19  C   UNL     1       2.059  16.668  19.064  0.00  0.00    +0.000 A 
ATOM     20  C   UNL     1       0.862  16.164  18.560  0.00  0.00    +0.000 A 
ATOM     21  C   UNL     1       0.308  15.004  19.101  0.00  0.00    +0.000 A 
ATOM     22  C   UNL     1       0.942  14.348  20.163  0.00  0.00    +0.000 A 
BRANCH  17  24
ATOM     23  C   UNL     1       4.147  14.169  21.699  0.00  0.00    +0.000 C 
ATOM     24  O   UNL     1       2.722  14.219  21.748  0.00  0.00    +0.000 OA
ENDBRANCH  17  24
ENDBRANCH   1  22
BRANCH   3  25
ATOM     25  N   UNL     1      -2.052  12.388  23.610  0.00  0.00    +0.000 N 
ATOM     26  C   UNL     1      -3.438  12.419  23.564  0.00  0.00    +0.000 C 
ATOM     27  C   UNL     1      -4.088  12.653  24.900  0.00  0.00    +0.000 C 
ATOM     28  O   UNL     1      -4.134  12.304  22.559  0.00  0.00    +0.000 OA
ATOM     29  H   UNL     1      -1.594  12.472  24.515  0.00  0.00    +0.000 HD
ENDBRANCH   3  25
TORSDOF 4
ENDMDL
MODEL 8
REMARK VINA RESULT:      -7.1      4.836      7.408
REMARK  Name = 
REMARK  6 active torsions:
REMARK  status: ('A' for Active; 'I' for Inactive)
REMARK    1  A    between atoms: C_1  and  O_2
REMARK    2  A    between atoms: O_2  and  C_3
REMARK    3  A    between atoms: C_8  and  C_9
REMARK    4  A    between atoms: C_11  and  N_12
REMARK    5  A    between atoms: C_13  and  C_14
REMARK    6  A    between atoms: C_19  and  C_20
REMARK                            x       y       z     vdW  Elec       q    Type
REMARK                         _______ _______ _______ _____ _____    ______ ____
ROOT
ATOM      1  C   UNL     1       2.161   6.467  18.851  0.00  0.00    +0.000 A 
ATOM      2  C   UNL     1       1.430   5.601  19.765  0.00  0.00    +0.000 A 
ATOM      3  C   UNL     1       1.683   4.286  19.889  0.00  0.00    +0.000 A 
ATOM      4  C   UNL     1       2.687   3.699  19.043  0.00  0.00    +0.000 A 
ATOM      5  N   UNL     1       3.111   2.454  18.959  0.00  0.00    +0.000 NA
ATOM      6  C   UNL     1       4.073   2.472  17.984  0.00  0.00    +0.000 A 
ATOM      7  C   UNL     1       4.266   3.737  17.443  0.00  0.00    +0.000 A 
ATOM      8  N   UNL     1       3.344   4.535  18.127  0.00  0.00    +0.000 N 
ATOM      9  C   UNL     1       3.062   5.903  18.025  0.00  0.00    +0.000 A 
ENDROOT
BRANCH   7  10
ATOM     10  C   UNL     1       5.203   4.154  16.384  0.00  0.00    +0.000 A 
ATOM     11  C   UNL     1       6.404   4.802  16.724  0.00  0.00    +0.000 A 
ATOM     12  C   UNL     1       7.311   5.208  15.737  0.00  0.00    +0.000 A 
ATOM     13  C   UNL     1       7.029   4.956  14.402  0.00  0.00    +0.000 A 
ATOM     14  F   UNL     1       7.902   5.327  13.457  0.00  0.00    +0.000 F 
ATOM     15  C   UNL     1       5.845   4.335  14.036  0.00  0.00    +0.000 A 
ATOM     16  C   UNL     1       4.924   3.963  15.021  0.00  0.00    +0.000 A 
ENDBRANCH   7  10
BRANCH   1  22
ATOM     17  C   UNL     1       1.361   8.574  19.962  0.00  0.00    +0.000 A 
ATOM     18  C   UNL     1       1.155   9.956  19.925  0.00  0.00    +0.000 A 
ATOM     19  C   UNL     1       1.503  10.690  18.792  0.00  0.00    +0.000 A 
ATOM     20  C   UNL     1       2.081  10.050  17.696  0.00  0.00    +0.000 A 
ATOM     21  C   UNL     1       2.326   8.678  17.736  0.00  0.00    +0.000 A 
ATOM     22  C   UNL     1       1.978   7.931  18.868  0.00  0.00    +0.000 A 
BRANCH  17  24
ATOM     23  C   UNL     1      -0.112   8.282  21.780  0.00  0.00    +0.000 C 
ATOM     24  O   UNL     1       1.019   7.808  21.050  0.00  0.00    +0.000 OA
ENDBRANCH  17  24
ENDBRANCH   1  22
BRANCH   3  25
ATOM     25  N   UNL     1       1.058   3.442  20.788  0.00  0.00    +0.000 N 
ATOM     26  C   UNL     1       1.627   2.801  21.878  0.00  0.00    +0.000 C 
ATOM     27  C   UNL     1       0.694   1.858  22.587  0.00  0.00    +0.000 C 
ATOM     28  O   UNL     1       2.785   2.920  22.267  0.00  0.00    +0.000 OA
ATOM     29  H   UNL     1       0.075   3.274  20.583  0.00  0.00    +0.000 HD
ENDBRANCH   3  25
TORSDOF 4
ENDMDL
MODEL 9
REMARK VINA RESULT:      -7.1      5.072      6.665
REMARK  Name = 
REMARK  6 active torsions:
REMARK  status: ('A' for Active; 'I' for Inactive)
REMARK    1  A    between atoms: C_1  and  O_2
REMARK    2  A    between atoms: O_2  and  C_3
REMARK    3  A    between atoms: C_8  and  C_9
REMARK    4  A    between atoms: C_11  and  N_12
REMARK    5  A    between atoms: C_13  and  C_14
REMARK    6  A    between atoms: C_19  and  C_20
REMARK                            x       y       z     vdW  Elec       q    Type
REMARK                         _______ _______ _______ _____ _____    ______ ____
ROOT
ATOM      1  C   UNL     1       2.716  14.226  18.988  0.00  0.00    +0.000 A 
ATOM      2  C   UNL     1       1.667  15.233  18.919  0.00  0.00    +0.000 A 
ATOM      3  C   UNL     1       0.357  14.928  18.935  0.00  0.00    +0.000 A 
ATOM      4  C   UNL     1      -0.024  13.542  18.972  0.00  0.00    +0.000 A 
ATOM      5  N   UNL     1      -1.218  12.984  18.983  0.00  0.00    +0.000 NA
ATOM      6  C   UNL     1      -0.979  11.635  19.016  0.00  0.00    +0.000 A 
ATOM      7  C   UNL     1       0.376  11.330  19.027  0.00  0.00    +0.000 A 
ATOM      8  N   UNL     1       0.998  12.580  18.981  0.00  0.00    +0.000 N 
ATOM      9  C   UNL     1       2.355  12.929  18.967  0.00  0.00    +0.000 A 
ENDROOT
BRANCH   7  10
ATOM     10  C   UNL     1       1.022  10.005  19.061  0.00  0.00    +0.000 A 
ATOM     11  C   UNL     1       1.626   9.488  17.901  0.00  0.00    +0.000 A 
ATOM     12  C   UNL     1       2.245   8.232  17.905  0.00  0.00    +0.000 A 
ATOM     13  C   UNL     1       2.278   7.489  19.077  0.00  0.00    +0.000 A 
ATOM     14  F   UNL     1       2.884   6.295  19.090  0.00  0.00    +0.000 F 
ATOM     15  C   UNL     1       1.675   7.965  20.231  0.00  0.00    +0.000 A 
ATOM     16  C   UNL     1       1.026   9.204  20.214  0.00  0.00    +0.000 A 
ENDBRANCH   7  10
BRANCH   1  22
ATOM     17  C   UNL     1       4.675  14.890  20.414  0.00  0.00    +0.000 A 
ATOM     18  C   UNL     1       6.008  15.295  20.524  0.00  0.00    +0.000 A 
ATOM     19  C   UNL     1       6.785  15.473  19.380  0.00  0.00    +0.000 A 
ATOM     20  C   UNL     1       6.242  15.225  18.121  0.00  0.00    +0.000 A 
ATOM     21  C   UNL     1       4.924  14.784  18.001  0.00  0.00    +0.000 A 
ATOM     22  C   UNL     1       4.134  14.604  19.143  0.00  0.00    +0.000 A 
BRANCH  17  24
ATOM     23  C   UNL     1       3.792  15.847  22.381  0.00  0.00    +0.000 C 
ATOM     24  O   UNL     1       3.866  14.717  21.513  0.00  0.00    +0.000 OA
ENDBRANCH  17  24
ENDBRANCH   1  22
BRANCH   3  25
ATOM     25  N   UNL     1      -0.671  15.853  18.936  0.00  0.00    +0.000 N 
ATOM     26  C   UNL     1      -0.697  17.084  18.296  0.00  0.00    +0.000 C 
ATOM     27  C   UNL     1      -1.925  17.900  18.594  0.00  0.00    +0.000 C 
ATOM     28  O   UNL     1       0.176  17.541  17.565  0.00  0.00    +0.000 OA
ATOM     29  H   UNL     1      -1.473  15.581  19.499  0.00  0.00    +0.000 HD
ENDBRANCH   3  25
TORSDOF 4
ENDMDL
