MODEL 1
REMARK VINA RESULT:      -8.8      0.000      0.000
REMARK  Name = 
REMARK  5 active torsions:
REMARK  status: ('A' for Active; 'I' for Inactive)
REMARK    1  A    between atoms: C_7  and  C_8
REMARK    2  A    between atoms: C_11  and  C_12
REMARK    3  A    between atoms: C_15  and  O_16
REMARK    4  A    between atoms: O_16  and  C_17
REMARK    5  A    between atoms: C_17  and  C_18
REMARK                            x       y       z     vdW  Elec       q    Type
REMARK                         _______ _______ _______ _____ _____    ______ ____
ROOT
ATOM      1  C   UNL     1       0.409  10.090  19.490  0.00  0.00    +0.000 A 
ATOM      2  C   UNL     1       0.837   9.078  20.346  0.00  0.00    +0.000 A 
ATOM      3  C   UNL     1       1.712   8.097  19.881  0.00  0.00    +0.000 A 
ATOM      4  C   UNL     1       2.165   8.081  18.549  0.00  0.00    +0.000 A 
ATOM      5  C   UNL     1       1.729   9.119  17.707  0.00  0.00    +0.000 A 
ATOM      6  C   UNL     1       0.867  10.118  18.173  0.00  0.00    +0.000 A 
ENDROOT
BRANCH   1  13
ATOM      7  O   UNL     1      -4.790  11.657  17.416  0.00  0.00    +0.000 OA
ATOM      8  C   UNL     1      -3.845  11.693  18.183  0.00  0.00    +0.000 C 
ATOM      9  N   UNL     1      -3.699  12.552  19.223  0.00  0.00    +0.000 N 
ATOM     10  C   UNL     1      -2.561  12.475  19.967  0.00  0.00    +0.000 C 
ATOM     11  O   UNL     1      -2.293  13.199  20.911  0.00  0.00    +0.000 OA
ATOM     12  C   UNL     1      -1.698  11.388  19.444  0.00  0.00    +0.000 C 
ATOM     13  C   UNL     1      -0.505  11.113  19.985  0.00  0.00    +0.000 C 
ATOM     14  S   UNL     1      -2.458  10.629  18.095  0.00  0.00    +0.000 S 
ATOM     15  H   UNL     1      -4.402  13.245  19.418  0.00  0.00    +0.000 HD
ENDBRANCH   1  13
BRANCH   4  16
ATOM     16  C   UNL     1       3.040   6.992  18.061  0.00  0.00    +0.000 A 
ATOM     17  C   UNL     1       2.576   5.667  18.044  0.00  0.00    +0.000 A 
ATOM     18  C   UNL     1       3.371   4.619  17.588  0.00  0.00    +0.000 A 
ATOM     19  C   UNL     1       4.637   4.876  17.073  0.00  0.00    +0.000 A 
ATOM     20  C   UNL     1       5.136   6.175  17.101  0.00  0.00    +0.000 A 
ATOM     21  C   UNL     1       4.345   7.222  17.593  0.00  0.00    +0.000 A 
BRANCH  19  22
ATOM     22  O   UNL     1       5.447   3.926  16.513  0.00  0.00    +0.000 OA
BRANCH  22  23
ATOM     23  C   UNL     1       6.716   4.424  16.080  0.00  0.00    +0.000 C 
BRANCH  23  24
ATOM     24  C   UNL     1       6.785   4.370  14.577  0.00  0.00    +0.000 A 
ATOM     25  C   UNL     1       5.965   3.492  13.861  0.00  0.00    +0.000 A 
ATOM     26  C   UNL     1       6.043   3.440  12.470  0.00  0.00    +0.000 A 
ATOM     27  C   UNL     1       6.939   4.266  11.789  0.00  0.00    +0.000 A 
ATOM     28  C   UNL     1       7.753   5.148  12.496  0.00  0.00    +0.000 A 
ATOM     29  C   UNL     1       7.677   5.201  13.887  0.00  0.00    +0.000 A 
ENDBRANCH  23  24
ENDBRANCH  22  23
ENDBRANCH  19  22
ENDBRANCH   4  16
TORSDOF 5
ENDMDL
MODEL 2
REMARK VINA RESULT:      -8.8      4.083     11.484
REMARK  Name = 
REMARK  5 active torsions:
REMARK  status: ('A' for Active; 'I' for Inactive)
REMARK    1  A    between atoms: C_7  and  C_8
REMARK    2  A    between atoms: C_11  and  C_12
REMARK    3  A    between atoms: C_15  and  O_16
REMARK    4  A    between atoms: O_16  and  C_17
REMARK    5  A    between atoms: C_17  and  C_18
REMARK                            x       y       z     vdW  Elec       q    Type
REMARK                         _______ _______ _______ _____ _____    ______ ____
ROOT
ATOM      1  C   UNL     1       3.047   6.675  18.095  0.00  0.00    +0.000 A 
ATOM      2  C   UNL     1       2.693   7.977  17.745  0.00  0.00    +0.000 A 
ATOM      3  C   UNL     1       2.003   8.778  18.654  0.00  0.00    +0.000 A 
ATOM      4  C   UNL     1       1.624   8.301  19.923  0.00  0.00    +0.000 A 
ATOM      5  C   UNL     1       2.002   6.989  20.257  0.00  0.00    +0.000 A 
ATOM      6  C   UNL     1       2.713   6.186  19.358  0.00  0.00    +0.000 A 
ENDROOT
BRANCH   1  13
ATOM      7  O   UNL     1       8.393   4.434  18.512  0.00  0.00    +0.000 OA
ATOM      8  C   UNL     1       7.315   4.640  17.986  0.00  0.00    +0.000 C 
ATOM      9  N   UNL     1       6.938   4.214  16.754  0.00  0.00    +0.000 N 
ATOM     10  C   UNL     1       5.701   4.559  16.303  0.00  0.00    +0.000 C 
ATOM     11  O   UNL     1       5.247   4.262  15.210  0.00  0.00    +0.000 OA
ATOM     12  C   UNL     1       5.001   5.360  17.338  0.00  0.00    +0.000 C 
ATOM     13  C   UNL     1       3.770   5.845  17.139  0.00  0.00    +0.000 C 
ATOM     14  S   UNL     1       6.012   5.549  18.721  0.00  0.00    +0.000 S 
ATOM     15  H   UNL     1       7.571   3.680  16.181  0.00  0.00    +0.000 HD
ENDBRANCH   1  13
BRANCH   4  16
ATOM     16  C   UNL     1       0.835   9.147  20.844  0.00  0.00    +0.000 A 
ATOM     17  C   UNL     1       0.689   8.780  22.192  0.00  0.00    +0.000 A 
ATOM     18  C   UNL     1      -0.044   9.554  23.087  0.00  0.00    +0.000 A 
ATOM     19  C   UNL     1      -0.602  10.758  22.673  0.00  0.00    +0.000 A 
ATOM     20  C   UNL     1      -0.499  11.137  21.337  0.00  0.00    +0.000 A 
ATOM     21  C   UNL     1       0.210  10.337  20.431  0.00  0.00    +0.000 A 
BRANCH  19  22
ATOM     22  O   UNL     1      -1.252  11.631  23.502  0.00  0.00    +0.000 OA
BRANCH  22  23
ATOM     23  C   UNL     1      -1.759  12.795  22.844  0.00  0.00    +0.000 C 
BRANCH  23  24
ATOM     24  C   UNL     1      -3.263  12.792  22.917  0.00  0.00    +0.000 A 
ATOM     25  C   UNL     1      -3.912  12.728  24.153  0.00  0.00    +0.000 A 
ATOM     26  C   UNL     1      -5.305  12.714  24.212  0.00  0.00    +0.000 A 
ATOM     27  C   UNL     1      -6.054  12.764  23.035  0.00  0.00    +0.000 A 
ATOM     28  C   UNL     1      -5.413  12.835  21.801  0.00  0.00    +0.000 A 
ATOM     29  C   UNL     1      -4.021  12.849  21.740  0.00  0.00    +0.000 A 
ENDBRANCH  23  24
ENDBRANCH  22  23
ENDBRANCH  19  22
ENDBRANCH   4  16
TORSDOF 5
ENDMDL
MODEL 3
REMARK VINA RESULT:      -8.5      3.905     11.560
REMARK  Name = 
REMARK  5 active torsions:
REMARK  status: ('A' for Active; 'I' for Inactive)
REMARK    1  A    between atoms: C_7  and  C_8
REMARK    2  A    between atoms: C_11  and  C_12
REMARK    3  A    between atoms: C_15  and  O_16
REMARK    4  A    between atoms: O_16  and  C_17
REMARK    5  A    between atoms: C_17  and  C_18
REMARK                            x       y       z     vdW  Elec       q    Type
REMARK                         _______ _______ _______ _____ _____    ______ ____
ROOT
ATOM      1  C   UNL     1       2.471   7.672  18.696  0.00  0.00    +0.000 A 
ATOM      2  C   UNL     1       2.206   7.380  20.033  0.00  0.00    +0.000 A 
ATOM      3  C   UNL     1       1.331   8.187  20.760  0.00  0.00    +0.000 A 
ATOM      4  C   UNL     1       0.716   9.316  20.186  0.00  0.00    +0.000 A 
ATOM      5  C   UNL     1       0.990   9.583  18.834  0.00  0.00    +0.000 A 
ATOM      6  C   UNL     1       1.852   8.766  18.093  0.00  0.00    +0.000 A 
ENDROOT
BRANCH   1  13
ATOM      7  O   UNL     1       2.229   1.934  17.799  0.00  0.00    +0.000 OA
ATOM      8  C   UNL     1       2.690   3.056  17.689  0.00  0.00    +0.000 C 
ATOM      9  N   UNL     1       3.838   3.382  17.043  0.00  0.00    +0.000 N 
ATOM     10  C   UNL     1       4.227   4.687  17.040  0.00  0.00    +0.000 C 
ATOM     11  O   UNL     1       5.245   5.111  16.519  0.00  0.00    +0.000 OA
ATOM     12  C   UNL     1       3.232   5.503  17.779  0.00  0.00    +0.000 C 
ATOM     13  C   UNL     1       3.387   6.822  17.943  0.00  0.00    +0.000 C 
ATOM     14  S   UNL     1       1.958   4.497  18.359  0.00  0.00    +0.000 S 
ATOM     15  H   UNL     1       4.398   2.671  16.603  0.00  0.00    +0.000 HD
ENDBRANCH   1  13
BRANCH   4  16
ATOM     16  C   UNL     1      -0.157  10.194  20.996  0.00  0.00    +0.000 A 
ATOM     17  C   UNL     1      -0.845  11.259  20.392  0.00  0.00    +0.000 A 
ATOM     18  C   UNL     1      -1.677  12.102  21.123  0.00  0.00    +0.000 A 
ATOM     19  C   UNL     1      -1.896  11.866  22.475  0.00  0.00    +0.000 A 
ATOM     20  C   UNL     1      -1.207  10.835  23.110  0.00  0.00    +0.000 A 
ATOM     21  C   UNL     1      -0.344  10.010  22.377  0.00  0.00    +0.000 A 
BRANCH  19  22
ATOM     22  O   UNL     1      -2.770  12.578  23.249  0.00  0.00    +0.000 OA
BRANCH  22  23
ATOM     23  C   UNL     1      -3.603  13.478  22.512  0.00  0.00    +0.000 C 
BRANCH  23  24
ATOM     24  C   UNL     1      -5.036  13.031  22.620  0.00  0.00    +0.000 A 
ATOM     25  C   UNL     1      -5.677  13.001  23.862  0.00  0.00    +0.000 A 
ATOM     26  C   UNL     1      -7.002  12.574  23.956  0.00  0.00    +0.000 A 
ATOM     27  C   UNL     1      -7.690  12.178  22.808  0.00  0.00    +0.000 A 
ATOM     28  C   UNL     1      -7.059  12.213  21.566  0.00  0.00    +0.000 A 
ATOM     29  C   UNL     1      -5.736  12.638  21.471  0.00  0.00    +0.000 A 
ENDBRANCH  23  24
ENDBRANCH  22  23
ENDBRANCH  19  22
ENDBRANCH   4  16
TORSDOF 5
ENDMDL
MODEL 4
REMARK VINA RESULT:      -8.5      3.884     11.548
REMARK  Name = 
REMARK  5 active torsions:
REMARK  status: ('A' for Active; 'I' for Inactive)
REMARK    1  A    between atoms: C_7  and  C_8
REMARK    2  A    between atoms: C_11  and  C_12
REMARK    3  A    between atoms: C_15  and  O_16
REMARK    4  A    between atoms: O_16  and  C_17
REMARK    5  A    between atoms: C_17  and  C_18
REMARK                            x       y       z     vdW  Elec       q    Type
REMARK                         _______ _______ _______ _____ _____    ______ ____
ROOT
ATOM      1  C   UNL     1       2.536   7.731  18.740  0.00  0.00    +0.000 A 
ATOM      2  C   UNL     1       2.242   7.420  20.066  0.00  0.00    +0.000 A 
ATOM      3  C   UNL     1       1.333   8.202  20.778  0.00  0.00    +0.000 A 
ATOM      4  C   UNL     1       0.712   9.326  20.201  0.00  0.00    +0.000 A 
ATOM      5  C   UNL     1       1.017   9.613  18.860  0.00  0.00    +0.000 A 
ATOM      6  C   UNL     1       1.912   8.820  18.132  0.00  0.00    +0.000 A 
ENDROOT
BRANCH   1  13
ATOM      7  O   UNL     1       2.227   2.075  17.436  0.00  0.00    +0.000 OA
ATOM      8  C   UNL     1       2.723   3.188  17.439  0.00  0.00    +0.000 C 
ATOM      9  N   UNL     1       3.924   3.523  16.905  0.00  0.00    +0.000 N 
ATOM     10  C   UNL     1       4.343   4.813  17.021  0.00  0.00    +0.000 C 
ATOM     11  O   UNL     1       5.408   5.242  16.608  0.00  0.00    +0.000 OA
ATOM     12  C   UNL     1       3.314   5.607  17.736  0.00  0.00    +0.000 C 
ATOM     13  C   UNL     1       3.487   6.907  18.001  0.00  0.00    +0.000 C 
ATOM     14  S   UNL     1       1.975   4.602  18.148  0.00  0.00    +0.000 S 
ATOM     15  H   UNL     1       4.499   2.827  16.460  0.00  0.00    +0.000 HD
ENDBRANCH   1  13
BRANCH   4  16
ATOM     16  C   UNL     1      -0.197  10.179  20.998  0.00  0.00    +0.000 A 
ATOM     17  C   UNL     1      -0.370   9.938  22.370  0.00  0.00    +0.000 A 
ATOM     18  C   UNL     1      -1.215  10.722  23.151  0.00  0.00    +0.000 A 
ATOM     19  C   UNL     1      -1.865  11.817  22.591  0.00  0.00    +0.000 A 
ATOM     20  C   UNL     1      -1.735  12.066  21.227  0.00  0.00    +0.000 A 
ATOM     21  C   UNL     1      -0.912  11.252  20.439  0.00  0.00    +0.000 A 
BRANCH  19  22
ATOM     22  O   UNL     1      -2.633  12.700  23.299  0.00  0.00    +0.000 OA
BRANCH  22  23
ATOM     23  C   UNL     1      -3.495  13.505  22.489  0.00  0.00    +0.000 C 
BRANCH  23  24
ATOM     24  C   UNL     1      -4.921  13.072  22.698  0.00  0.00    +0.000 A 
ATOM     25  C   UNL     1      -5.730  12.744  21.605  0.00  0.00    +0.000 A 
ATOM     26  C   UNL     1      -7.054  12.356  21.806  0.00  0.00    +0.000 A 
ATOM     27  C   UNL     1      -7.574  12.291  23.100  0.00  0.00    +0.000 A 
ATOM     28  C   UNL     1      -6.771  12.608  24.193  0.00  0.00    +0.000 A 
ATOM     29  C   UNL     1      -5.448  12.998  23.995  0.00  0.00    +0.000 A 
ENDBRANCH  23  24
ENDBRANCH  22  23
ENDBRANCH  19  22
ENDBRANCH   4  16
TORSDOF 5
ENDMDL
MODEL 5
REMARK VINA RESULT:      -8.5      4.140     11.630
REMARK  Name = 
REMARK  5 active torsions:
REMARK  status: ('A' for Active; 'I' for Inactive)
REMARK    1  A    between atoms: C_7  and  C_8
REMARK    2  A    between atoms: C_11  and  C_12
REMARK    3  A    between atoms: C_15  and  O_16
REMARK    4  A    between atoms: O_16  and  C_17
REMARK    5  A    between atoms: C_17  and  C_18
REMARK                            x       y       z     vdW  Elec       q    Type
REMARK                         _______ _______ _______ _____ _____    ______ ____
ROOT
ATOM      1  C   UNL     1       3.110   6.594  18.119  0.00  0.00    +0.000 A 
ATOM      2  C   UNL     1       2.655   6.174  19.367  0.00  0.00    +0.000 A 
ATOM      3  C   UNL     1       1.918   7.045  20.168  0.00  0.00    +0.000 A 
ATOM      4  C   UNL     1       1.633   8.363  19.761  0.00  0.00    +0.000 A 
ATOM      5  C   UNL     1       2.092   8.760  18.493  0.00  0.00    +0.000 A 
ATOM      6  C   UNL     1       2.816   7.883  17.676  0.00  0.00    +0.000 A 
ENDROOT
BRANCH   1  13
ATOM      7  O   UNL     1       8.557   4.702  18.846  0.00  0.00    +0.000 OA
ATOM      8  C   UNL     1       7.474   4.779  18.295  0.00  0.00    +0.000 C 
ATOM      9  N   UNL     1       7.128   4.167  17.135  0.00  0.00    +0.000 N 
ATOM     10  C   UNL     1       5.878   4.384  16.640  0.00  0.00    +0.000 C 
ATOM     11  O   UNL     1       5.448   3.917  15.598  0.00  0.00    +0.000 OA
ATOM     12  C   UNL     1       5.132   5.285  17.552  0.00  0.00    +0.000 C 
ATOM     13  C   UNL     1       3.880   5.676  17.287  0.00  0.00    +0.000 C 
ATOM     14  S   UNL     1       6.122   5.715  18.897  0.00  0.00    +0.000 S 
ATOM     15  H   UNL     1       7.790   3.591  16.642  0.00  0.00    +0.000 HD
ENDBRANCH   1  13
BRANCH   4  16
ATOM     16  C   UNL     1       0.906   9.289  20.656  0.00  0.00    +0.000 A 
ATOM     17  C   UNL     1       0.757  10.641  20.304  0.00  0.00    +0.000 A 
ATOM     18  C   UNL     1       0.076  11.539  21.120  0.00  0.00    +0.000 A 
ATOM     19  C   UNL     1      -0.535  11.096  22.288  0.00  0.00    +0.000 A 
ATOM     20  C   UNL     1      -0.383   9.769  22.678  0.00  0.00    +0.000 A 
ATOM     21  C   UNL     1       0.333   8.875  21.871  0.00  0.00    +0.000 A 
BRANCH  19  22
ATOM     22  O   UNL     1      -1.307  11.883  23.098  0.00  0.00    +0.000 OA
BRANCH  22  23
ATOM     23  C   UNL     1      -2.114  12.831  22.395  0.00  0.00    +0.000 C 
BRANCH  23  24
ATOM     24  C   UNL     1      -3.506  12.821  22.967  0.00  0.00    +0.000 A 
ATOM     25  C   UNL     1      -3.748  12.278  24.232  0.00  0.00    +0.000 A 
ATOM     26  C   UNL     1      -5.043  12.261  24.750  0.00  0.00    +0.000 A 
ATOM     27  C   UNL     1      -6.100  12.788  24.005  0.00  0.00    +0.000 A 
ATOM     28  C   UNL     1      -5.864  13.337  22.747  0.00  0.00    +0.000 A 
ATOM     29  C   UNL     1      -4.571  13.354  22.228  0.00  0.00    +0.000 A 
ENDBRANCH  23  24
ENDBRANCH  22  23
ENDBRANCH  19  22
ENDBRANCH   4  16
TORSDOF 5
ENDMDL
MODEL 6
REMARK VINA RESULT:      -8.5      0.551      1.362
REMARK  Name = 
REMARK  5 active torsions:
REMARK  status: ('A' for Active; 'I' for Inactive)
REMARK    1  A    between atoms: C_7  and  C_8
REMARK    2  A    between atoms: C_11  and  C_12
REMARK    3  A    between atoms: C_15  and  O_16
REMARK    4  A    between atoms: O_16  and  C_17
REMARK    5  A    between atoms: C_17  and  C_18
REMARK                            x       y       z     vdW  Elec       q    Type
REMARK                         _______ _______ _______ _____ _____    ______ ____
ROOT
ATOM      1  C   UNL     1       0.258   9.964  19.454  0.00  0.00    +0.000 A 
ATOM      2  C   UNL     1       0.635   9.893  18.114  0.00  0.00    +0.000 A 
ATOM      3  C   UNL     1       1.552   8.928  17.700  0.00  0.00    +0.000 A 
ATOM      4  C   UNL     1       2.138   8.026  18.609  0.00  0.00    +0.000 A 
ATOM      5  C   UNL     1       1.734   8.111  19.953  0.00  0.00    +0.000 A 
ATOM      6  C   UNL     1       0.798   9.064  20.371  0.00  0.00    +0.000 A 
ENDROOT
BRANCH   1  13
ATOM      7  O   UNL     1      -4.811  11.434  17.018  0.00  0.00    +0.000 OA
ATOM      8  C   UNL     1      -3.920  11.490  17.847  0.00  0.00    +0.000 C 
ATOM      9  N   UNL     1      -3.859  12.359  18.888  0.00  0.00    +0.000 N 
ATOM     10  C   UNL     1      -2.774  12.305  19.708  0.00  0.00    +0.000 C 
ATOM     11  O   UNL     1      -2.582  13.041  20.662  0.00  0.00    +0.000 OA
ATOM     12  C   UNL     1      -1.860  11.228  19.254  0.00  0.00    +0.000 C 
ATOM     13  C   UNL     1      -0.703  10.976  19.877  0.00  0.00    +0.000 C 
ATOM     14  S   UNL     1      -2.515  10.448  17.862  0.00  0.00    +0.000 S 
ATOM     15  H   UNL     1      -4.585  13.042  19.029  0.00  0.00    +0.000 HD
ENDBRANCH   1  13
BRANCH   4  16
ATOM     16  C   UNL     1       3.159   7.055  18.158  0.00  0.00    +0.000 A 
ATOM     17  C   UNL     1       2.972   5.681  18.376  0.00  0.00    +0.000 A 
ATOM     18  C   UNL     1       3.910   4.739  17.962  0.00  0.00    +0.000 A 
ATOM     19  C   UNL     1       5.039   5.142  17.256  0.00  0.00    +0.000 A 
ATOM     20  C   UNL     1       5.266   6.500  17.047  0.00  0.00    +0.000 A 
ATOM     21  C   UNL     1       4.336   7.447  17.497  0.00  0.00    +0.000 A 
BRANCH  19  22
ATOM     22  O   UNL     1       5.961   4.283  16.724  0.00  0.00    +0.000 OA
BRANCH  22  23
ATOM     23  C   UNL     1       5.470   3.502  15.631  0.00  0.00    +0.000 C 
BRANCH  23  24
ATOM     24  C   UNL     1       6.168   3.922  14.366  0.00  0.00    +0.000 A 
ATOM     25  C   UNL     1       7.179   4.887  14.402  0.00  0.00    +0.000 A 
ATOM     26  C   UNL     1       7.814   5.280  13.223  0.00  0.00    +0.000 A 
ATOM     27  C   UNL     1       7.441   4.708  12.006  0.00  0.00    +0.000 A 
ATOM     28  C   UNL     1       6.440   3.740  11.965  0.00  0.00    +0.000 A 
ATOM     29  C   UNL     1       5.804   3.348  13.141  0.00  0.00    +0.000 A 
ENDBRANCH  23  24
ENDBRANCH  22  23
ENDBRANCH  19  22
ENDBRANCH   4  16
TORSDOF 5
ENDMDL
MODEL 7
REMARK VINA RESULT:      -8.4      0.507      1.028
REMARK  Name = 
REMARK  5 active torsions:
REMARK  status: ('A' for Active; 'I' for Inactive)
REMARK    1  A    between atoms: C_7  and  C_8
REMARK    2  A    between atoms: C_11  and  C_12
REMARK    3  A    between atoms: C_15  and  O_16
REMARK    4  A    between atoms: O_16  and  C_17
REMARK    5  A    between atoms: C_17  and  C_18
REMARK                            x       y       z     vdW  Elec       q    Type
REMARK                         _______ _______ _______ _____ _____    ______ ____
ROOT
ATOM      1  C   UNL     1       0.384  10.481  19.753  0.00  0.00    +0.000 A 
ATOM      2  C   UNL     1       0.618   9.310  20.470  0.00  0.00    +0.000 A 
ATOM      3  C   UNL     1       1.439   8.318  19.934  0.00  0.00    +0.000 A 
ATOM      4  C   UNL     1       2.030   8.454  18.663  0.00  0.00    +0.000 A 
ATOM      5  C   UNL     1       1.789   9.649  17.964  0.00  0.00    +0.000 A 
ATOM      6  C   UNL     1       0.982  10.657  18.505  0.00  0.00    +0.000 A 
ENDROOT
BRANCH   1  13
ATOM      7  O   UNL     1      -4.963  12.083  18.133  0.00  0.00    +0.000 OA
ATOM      8  C   UNL     1      -3.954  12.114  18.815  0.00  0.00    +0.000 C 
ATOM      9  N   UNL     1      -3.712  12.976  19.834  0.00  0.00    +0.000 N 
ATOM     10  C   UNL     1      -2.514  12.892  20.477  0.00  0.00    +0.000 C 
ATOM     11  O   UNL     1      -2.159  13.618  21.391  0.00  0.00    +0.000 OA
ATOM     12  C   UNL     1      -1.708  11.796  19.884  0.00  0.00    +0.000 C 
ATOM     13  C   UNL     1      -0.475  11.513  20.321  0.00  0.00    +0.000 C 
ATOM     14  S   UNL     1      -2.589  11.038  18.610  0.00  0.00    +0.000 S 
ATOM     15  H   UNL     1      -4.390  13.675  20.087  0.00  0.00    +0.000 HD
ENDBRANCH   1  13
BRANCH   4  16
ATOM     16  C   UNL     1       2.843   7.360  18.088  0.00  0.00    +0.000 A 
ATOM     17  C   UNL     1       3.993   7.654  17.337  0.00  0.00    +0.000 A 
ATOM     18  C   UNL     1       4.783   6.651  16.784  0.00  0.00    +0.000 A 
ATOM     19  C   UNL     1       4.480   5.314  17.021  0.00  0.00    +0.000 A 
ATOM     20  C   UNL     1       3.332   4.989  17.739  0.00  0.00    +0.000 A 
ATOM     21  C   UNL     1       2.520   6.003  18.264  0.00  0.00    +0.000 A 
BRANCH  19  22
ATOM     22  O   UNL     1       5.253   4.265  16.604  0.00  0.00    +0.000 OA
BRANCH  22  23
ATOM     23  C   UNL     1       6.579   4.634  16.215  0.00  0.00    +0.000 C 
BRANCH  23  24
ATOM     24  C   UNL     1       6.721   4.481  14.725  0.00  0.00    +0.000 A 
ATOM     25  C   UNL     1       5.915   3.577  14.025  0.00  0.00    +0.000 A 
ATOM     26  C   UNL     1       6.061   3.433  12.646  0.00  0.00    +0.000 A 
ATOM     27  C   UNL     1       7.011   4.192  11.961  0.00  0.00    +0.000 A 
ATOM     28  C   UNL     1       7.811   5.100  12.651  0.00  0.00    +0.000 A 
ATOM     29  C   UNL     1       7.668   5.245  14.029  0.00  0.00    +0.000 A 
ENDBRANCH  23  24
ENDBRANCH  22  23
ENDBRANCH  19  22
ENDBRANCH   4  16
TORSDOF 5
ENDMDL
MODEL 8
REMARK VINA RESULT:      -8.4      3.991     11.573
REMARK  Name = 
REMARK  5 active torsions:
REMARK  status: ('A' for Active; 'I' for Inactive)
REMARK    1  A    between atoms: C_7  and  C_8
REMARK    2  A    between atoms: C_11  and  C_12
REMARK    3  A    between atoms: C_15  and  O_16
REMARK    4  A    between atoms: O_16  and  C_17
REMARK    5  A    between atoms: C_17  and  C_18
REMARK                            x       y       z     vdW  Elec       q    Type
REMARK                         _______ _______ _______ _____ _____    ______ ____
ROOT
ATOM      1  C   UNL     1       2.649   7.358  18.536  0.00  0.00    +0.000 A 
ATOM      2  C   UNL     1       2.082   8.530  18.039  0.00  0.00    +0.000 A 
ATOM      3  C   UNL     1       1.309   9.336  18.874  0.00  0.00    +0.000 A 
ATOM      4  C   UNL     1       1.058   8.988  20.214  0.00  0.00    +0.000 A 
ATOM      5  C   UNL     1       1.649   7.806  20.695  0.00  0.00    +0.000 A 
ATOM      6  C   UNL     1       2.443   7.003  19.868  0.00  0.00    +0.000 A 
ENDROOT
BRANCH   1  13
ATOM      7  O   UNL     1       3.402   1.595  18.651  0.00  0.00    +0.000 OA
ATOM      8  C   UNL     1       3.554   2.726  18.224  0.00  0.00    +0.000 C 
ATOM      9  N   UNL     1       4.353   3.082  17.187  0.00  0.00    +0.000 N 
ATOM     10  C   UNL     1       4.429   4.400  16.856  0.00  0.00    +0.000 C 
ATOM     11  O   UNL     1       5.125   4.858  15.964  0.00  0.00    +0.000 OA
ATOM     12  C   UNL     1       3.551   5.190  17.755  0.00  0.00    +0.000 C 
ATOM     13  C   UNL     1       3.457   6.521  17.656  0.00  0.00    +0.000 C 
ATOM     14  S   UNL     1       2.762   4.144  18.876  0.00  0.00    +0.000 S 
ATOM     15  H   UNL     1       4.895   2.390  16.697  0.00  0.00    +0.000 HD
ENDBRANCH   1  13
BRANCH   4  16
ATOM     16  C   UNL     1       0.180   9.825  21.061  0.00  0.00    +0.000 A 
ATOM     17  C   UNL     1      -0.453  10.955  20.521  0.00  0.00    +0.000 A 
ATOM     18  C   UNL     1      -1.289  11.763  21.288  0.00  0.00    +0.000 A 
ATOM     19  C   UNL     1      -1.567  11.425  22.608  0.00  0.00    +0.000 A 
ATOM     20  C   UNL     1      -0.933  10.325  23.181  0.00  0.00    +0.000 A 
ATOM     21  C   UNL     1      -0.065   9.535  22.415  0.00  0.00    +0.000 A 
BRANCH  19  22
ATOM     22  O   UNL     1      -2.450  12.100  23.405  0.00  0.00    +0.000 OA
BRANCH  22  23
ATOM     23  C   UNL     1      -3.113  13.187  22.753  0.00  0.00    +0.000 C 
BRANCH  23  24
ATOM     24  C   UNL     1      -4.595  12.926  22.734  0.00  0.00    +0.000 A 
ATOM     25  C   UNL     1      -5.249  12.648  21.530  0.00  0.00    +0.000 A 
ATOM     26  C   UNL     1      -6.625  12.419  21.518  0.00  0.00    +0.000 A 
ATOM     27  C   UNL     1      -7.351  12.466  22.710  0.00  0.00    +0.000 A 
ATOM     28  C   UNL     1      -6.703  12.736  23.913  0.00  0.00    +0.000 A 
ATOM     29  C   UNL     1      -5.329  12.966  23.927  0.00  0.00    +0.000 A 
ENDBRANCH  23  24
ENDBRANCH  22  23
ENDBRANCH  19  22
ENDBRANCH   4  16
TORSDOF 5
ENDMDL
MODEL 9
REMARK VINA RESULT:      -8.4      4.256     11.625
REMARK  Name = 
REMARK  5 active torsions:
REMARK  status: ('A' for Active; 'I' for Inactive)
REMARK    1  A    between atoms: C_7  and  C_8
REMARK    2  A    between atoms: C_11  and  C_12
REMARK    3  A    between atoms: C_15  and  O_16
REMARK    4  A    between atoms: O_16  and  C_17
REMARK    5  A    between atoms: C_17  and  C_18
REMARK                            x       y       z     vdW  Elec       q    Type
REMARK                         _______ _______ _______ _____ _____    ______ ____
ROOT
ATOM      1  C   UNL     1       2.767   6.528  18.478  0.00  0.00    +0.000 A 
ATOM      2  C   UNL     1       2.329   6.193  19.758  0.00  0.00    +0.000 A 
ATOM      3  C   UNL     1       1.628   7.128  20.519  0.00  0.00    +0.000 A 
ATOM      4  C   UNL     1       1.365   8.425  20.040  0.00  0.00    +0.000 A 
ATOM      5  C   UNL     1       1.808   8.736  18.742  0.00  0.00    +0.000 A 
ATOM      6  C   UNL     1       2.494   7.796  17.965  0.00  0.00    +0.000 A 
ENDROOT
BRANCH   1  13
ATOM      7  O   UNL     1       8.330   4.899  18.917  0.00  0.00    +0.000 OA
ATOM      8  C   UNL     1       7.200   4.879  18.461  0.00  0.00    +0.000 C 
ATOM      9  N   UNL     1       6.781   4.128  17.412  0.00  0.00    +0.000 N 
ATOM     10  C   UNL     1       5.485   4.248  17.011  0.00  0.00    +0.000 C 
ATOM     11  O   UNL     1       4.986   3.651  16.072  0.00  0.00    +0.000 OA
ATOM     12  C   UNL     1       4.785   5.225  17.881  0.00  0.00    +0.000 C 
ATOM     13  C   UNL     1       3.500   5.544  17.688  0.00  0.00    +0.000 C 
ATOM     14  S   UNL     1       5.869   5.837  19.073  0.00  0.00    +0.000 S 
ATOM     15  H   UNL     1       7.421   3.519  16.929  0.00  0.00    +0.000 HD
ENDBRANCH   1  13
BRANCH   4  16
ATOM     16  C   UNL     1       0.678   9.421  20.892  0.00  0.00    +0.000 A 
ATOM     17  C   UNL     1       0.056   9.020  22.086  0.00  0.00    +0.000 A 
ATOM     18  C   UNL     1      -0.596   9.930  22.913  0.00  0.00    +0.000 A 
ATOM     19  C   UNL     1      -0.591  11.285  22.600  0.00  0.00    +0.000 A 
ATOM     20  C   UNL     1      -0.007  11.710  21.410  0.00  0.00    +0.000 A 
ATOM     21  C   UNL     1       0.618  10.786  20.563  0.00  0.00    +0.000 A 
BRANCH  19  22
ATOM     22  O   UNL     1      -1.118  12.261  23.401  0.00  0.00    +0.000 OA
BRANCH  22  23
ATOM     23  C   UNL     1      -1.858  13.260  22.694  0.00  0.00    +0.000 C 
BRANCH  23  24
ATOM     24  C   UNL     1      -3.289  13.243  23.161  0.00  0.00    +0.000 A 
ATOM     25  C   UNL     1      -3.706  12.329  24.133  0.00  0.00    +0.000 A 
ATOM     26  C   UNL     1      -5.036  12.312  24.552  0.00  0.00    +0.000 A 
ATOM     27  C   UNL     1      -5.953  13.209  24.002  0.00  0.00    +0.000 A 
ATOM     28  C   UNL     1      -5.542  14.127  23.038  0.00  0.00    +0.000 A 
ATOM     29  C   UNL     1      -4.214  14.145  22.618  0.00  0.00    +0.000 A 
ENDBRANCH  23  24
ENDBRANCH  22  23
ENDBRANCH  19  22
ENDBRANCH   4  16
TORSDOF 5
ENDMDL
