MODEL 1
REMARK VINA RESULT:      -7.4      0.000      0.000
REMARK  Name = 
REMARK  9 active torsions:
REMARK  status: ('A' for Active; 'I' for Inactive)
REMARK    1  A    between atoms: C_2  and  C_23
REMARK    2  A    between atoms: N_3  and  C_4
REMARK    3  A    between atoms: C_4  and  C_5
REMARK    4  A    between atoms: C_5  and  C_6
REMARK    5  A    between atoms: C_6  and  N_7
REMARK    6  A    between atoms: C_11  and  C_13
REMARK    7  A    between atoms: C_14  and  C_15
REMARK    8  A    between atoms: C_26  and  O_27
REMARK    9  A    between atoms: C_28  and  O_29
REMARK                            x       y       z     vdW  Elec       q    Type
REMARK                         _______ _______ _______ _____ _____    ______ ____
ROOT
ATOM      1  C   UNL     1       3.221   3.469  18.197  0.00  0.00    +0.000 C 
ENDROOT
BRANCH   1   2
ATOM      2  N   UNL     1       4.679   3.556  18.402  0.00  0.00    +0.000 NA
ATOM      3  C   UNL     1       5.459   3.570  17.141  0.00  0.00    +0.000 C 
ATOM      4  C   UNL     1       5.417   4.916  16.403  0.00  0.00    +0.000 C 
ATOM      5  N   UNL     1       5.973   5.959  17.262  0.00  0.00    +0.000 N 
ATOM      6  C   UNL     1       7.183   6.520  16.889  0.00  0.00    +0.000 C 
ATOM      7  O   UNL     1       7.761   6.219  15.846  0.00  0.00    +0.000 OA
ATOM      8  C   UNL     1       5.279   6.074  18.551  0.00  0.00    +0.000 C 
ATOM      9  C   UNL     1       5.095   4.697  19.249  0.00  0.00    +0.000 C 
BRANCH   6  10
ATOM     10  C   UNL     1       7.802   7.513  17.802  0.00  0.00    +0.000 C 
ATOM     11  C   UNL     1       7.906   8.786  17.387  0.00  0.00    +0.000 C 
BRANCH  11  12
ATOM     12  C   UNL     1       8.521   9.822  18.212  0.00  0.00    +0.000 A 
ATOM     13  C   UNL     1       8.572  11.138  17.743  0.00  0.00    +0.000 A 
ATOM     14  C   UNL     1       9.163  12.138  18.517  0.00  0.00    +0.000 A 
ATOM     15  C   UNL     1       9.705  11.825  19.764  0.00  0.00    +0.000 A 
ATOM     16  C   UNL     1       9.651  10.514  20.238  0.00  0.00    +0.000 A 
ATOM     17  C   UNL     1       9.060   9.512  19.464  0.00  0.00    +0.000 A 
ENDBRANCH  11  12
ENDBRANCH   6  10
ENDBRANCH   1   2
BRANCH   1  18
ATOM     18  C   UNL     1       2.593   2.451  19.167  0.00  0.00    +0.000 C 
BRANCH  18  19
ATOM     19  C   UNL     1       1.371   2.975  19.914  0.00  0.00    +0.000 C 
BRANCH  19  22
ATOM     20  O   UNL     1       2.430   5.037  21.561  0.00  0.00    +0.000 OA
ATOM     21  C   UNL     1       1.806   5.337  20.550  0.00  0.00    +0.000 C 
ATOM     22  N   UNL     1       1.223   4.409  19.704  0.00  0.00    +0.000 N 
ATOM     23  H   UNL     1       0.954   4.712  18.776  0.00  0.00    +0.000 HD
BRANCH  21  24
ATOM     24  C   UNL     1       1.679   6.767  20.143  0.00  0.00    +0.000 A 
ATOM     25  C   UNL     1       2.143   7.158  18.873  0.00  0.00    +0.000 A 
ATOM     26  C   UNL     1       2.033   8.489  18.449  0.00  0.00    +0.000 A 
ATOM     27  C   UNL     1       1.468   9.423  19.308  0.00  0.00    +0.000 A 
ATOM     28  C   UNL     1       1.027   9.042  20.573  0.00  0.00    +0.000 A 
ATOM     29  C   UNL     1       1.132   7.725  21.004  0.00  0.00    +0.000 A 
BRANCH  27  30
ATOM     30  O   UNL     1       1.324  10.737  18.960  0.00  0.00    +0.000 OA
ATOM     31  H   UNL     1       1.554  11.283  19.732  0.00  0.00    +0.000 HD
ENDBRANCH  27  30
BRANCH  28  32
ATOM     32  O   UNL     1       0.486   9.969  21.417  0.00  0.00    +0.000 OA
ATOM     33  H   UNL     1      -0.377   9.587  21.680  0.00  0.00    +0.000 HD
ENDBRANCH  28  32
ENDBRANCH  21  24
ENDBRANCH  19  22
ENDBRANCH  18  19
ENDBRANCH   1  18
TORSDOF 9
ENDMDL
MODEL 2
REMARK VINA RESULT:      -7.2      3.584      6.398
REMARK  Name = 
REMARK  9 active torsions:
REMARK  status: ('A' for Active; 'I' for Inactive)
REMARK    1  A    between atoms: C_2  and  C_23
REMARK    2  A    between atoms: N_3  and  C_4
REMARK    3  A    between atoms: C_4  and  C_5
REMARK    4  A    between atoms: C_5  and  C_6
REMARK    5  A    between atoms: C_6  and  N_7
REMARK    6  A    between atoms: C_11  and  C_13
REMARK    7  A    between atoms: C_14  and  C_15
REMARK    8  A    between atoms: C_26  and  O_27
REMARK    9  A    between atoms: C_28  and  O_29
REMARK                            x       y       z     vdW  Elec       q    Type
REMARK                         _______ _______ _______ _____ _____    ______ ____
ROOT
ATOM      1  C   UNL     1       2.918   5.880  19.678  0.00  0.00    +0.000 C 
ENDROOT
BRANCH   1   2
ATOM      2  N   UNL     1       3.114   6.142  18.239  0.00  0.00    +0.000 NA
ATOM      3  C   UNL     1       4.279   7.010  17.943  0.00  0.00    +0.000 C 
ATOM      4  C   UNL     1       5.631   6.294  18.063  0.00  0.00    +0.000 C 
ATOM      5  N   UNL     1       5.678   5.180  17.119  0.00  0.00    +0.000 N 
ATOM      6  C   UNL     1       6.550   5.281  16.049  0.00  0.00    +0.000 C 
ATOM      7  O   UNL     1       7.318   6.232  15.907  0.00  0.00    +0.000 OA
ATOM      8  C   UNL     1       4.584   4.218  17.309  0.00  0.00    +0.000 C 
ATOM      9  C   UNL     1       3.197   4.913  17.416  0.00  0.00    +0.000 C 
BRANCH   6  10
ATOM     10  C   UNL     1       6.539   4.200  15.034  0.00  0.00    +0.000 C 
ATOM     11  C   UNL     1       6.311   4.528  13.752  0.00  0.00    +0.000 C 
BRANCH  11  12
ATOM     12  C   UNL     1       6.261   3.525  12.692  0.00  0.00    +0.000 A 
ATOM     13  C   UNL     1       5.023   3.057  12.241  0.00  0.00    +0.000 A 
ATOM     14  C   UNL     1       4.960   2.093  11.234  0.00  0.00    +0.000 A 
ATOM     15  C   UNL     1       6.135   1.592  10.673  0.00  0.00    +0.000 A 
ATOM     16  C   UNL     1       7.373   2.061  11.115  0.00  0.00    +0.000 A 
ATOM     17  C   UNL     1       7.437   3.026  12.124  0.00  0.00    +0.000 A 
ENDBRANCH  11  12
ENDBRANCH   6  10
ENDBRANCH   1   2
BRANCH   1  18
ATOM     18  C   UNL     1       1.674   6.621  20.203  0.00  0.00    +0.000 C 
BRANCH  18  19
ATOM     19  C   UNL     1       1.913   8.094  20.516  0.00  0.00    +0.000 C 
BRANCH  19  22
ATOM     20  O   UNL     1       1.746   9.497  18.049  0.00  0.00    +0.000 OA
ATOM     21  C   UNL     1       0.793   9.522  18.818  0.00  0.00    +0.000 C 
ATOM     22  N   UNL     1       0.790   8.899  20.056  0.00  0.00    +0.000 N 
ATOM     23  H   UNL     1      -0.101   8.748  20.511  0.00  0.00    +0.000 HD
BRANCH  21  24
ATOM     24  C   UNL     1      -0.473  10.207  18.425  0.00  0.00    +0.000 A 
ATOM     25  C   UNL     1      -1.145   9.783  17.263  0.00  0.00    +0.000 A 
ATOM     26  C   UNL     1      -2.342  10.395  16.866  0.00  0.00    +0.000 A 
ATOM     27  C   UNL     1      -2.851  11.436  17.632  0.00  0.00    +0.000 A 
ATOM     28  C   UNL     1      -2.176  11.869  18.770  0.00  0.00    +0.000 A 
ATOM     29  C   UNL     1      -0.990  11.271  19.173  0.00  0.00    +0.000 A 
BRANCH  27  30
ATOM     30  O   UNL     1      -4.016  12.075  17.307  0.00  0.00    +0.000 OA
ATOM     31  H   UNL     1      -4.067  12.896  17.827  0.00  0.00    +0.000 HD
ENDBRANCH  27  30
BRANCH  28  32
ATOM     32  O   UNL     1      -2.676  12.903  19.510  0.00  0.00    +0.000 OA
ATOM     33  H   UNL     1      -2.358  13.708  19.053  0.00  0.00    +0.000 HD
ENDBRANCH  28  32
ENDBRANCH  21  24
ENDBRANCH  19  22
ENDBRANCH  18  19
ENDBRANCH   1  18
TORSDOF 9
ENDMDL
MODEL 3
REMARK VINA RESULT:      -7.2      4.967      9.672
REMARK  Name = 
REMARK  9 active torsions:
REMARK  status: ('A' for Active; 'I' for Inactive)
REMARK    1  A    between atoms: C_2  and  C_23
REMARK    2  A    between atoms: N_3  and  C_4
REMARK    3  A    between atoms: C_4  and  C_5
REMARK    4  A    between atoms: C_5  and  C_6
REMARK    5  A    between atoms: C_6  and  N_7
REMARK    6  A    between atoms: C_11  and  C_13
REMARK    7  A    between atoms: C_14  and  C_15
REMARK    8  A    between atoms: C_26  and  O_27
REMARK    9  A    between atoms: C_28  and  O_29
REMARK                            x       y       z     vdW  Elec       q    Type
REMARK                         _______ _______ _______ _____ _____    ______ ____
ROOT
ATOM      1  C   UNL     1       0.895  10.123  18.117  0.00  0.00    +0.000 C 
ENDROOT
BRANCH   1   2
ATOM      2  N   UNL     1      -0.282   9.871  18.971  0.00  0.00    +0.000 NA
ATOM      3  C   UNL     1       0.048   9.234  20.268  0.00  0.00    +0.000 C 
ATOM      4  C   UNL     1       0.665  10.197  21.292  0.00  0.00    +0.000 C 
ATOM      5  N   UNL     1      -0.277  11.277  21.574  0.00  0.00    +0.000 N 
ATOM      6  C   UNL     1      -0.848  11.319  22.835  0.00  0.00    +0.000 C 
ATOM      7  O   UNL     1      -0.544  10.529  23.727  0.00  0.00    +0.000 OA
ATOM      8  C   UNL     1      -0.681  12.018  20.371  0.00  0.00    +0.000 C 
ATOM      9  C   UNL     1      -1.112  11.074  19.213  0.00  0.00    +0.000 C 
BRANCH   6  10
ATOM     10  C   UNL     1      -1.876  12.355  23.102  0.00  0.00    +0.000 C 
ATOM     11  C   UNL     1      -1.494  13.498  23.693  0.00  0.00    +0.000 C 
BRANCH  11  12
ATOM     12  C   UNL     1      -2.444  14.560  24.012  0.00  0.00    +0.000 A 
ATOM     13  C   UNL     1      -3.771  14.452  23.585  0.00  0.00    +0.000 A 
ATOM     14  C   UNL     1      -4.688  15.463  23.875  0.00  0.00    +0.000 A 
ATOM     15  C   UNL     1      -4.282  16.587  24.594  0.00  0.00    +0.000 A 
ATOM     16  C   UNL     1      -2.960  16.697  25.027  0.00  0.00    +0.000 A 
ATOM     17  C   UNL     1      -2.041  15.686  24.737  0.00  0.00    +0.000 A 
ENDBRANCH  11  12
ENDBRANCH   6  10
ENDBRANCH   1   2
BRANCH   1  18
ATOM     18  C   UNL     1       1.460   8.803  17.562  0.00  0.00    +0.000 C 
BRANCH  18  19
ATOM     19  C   UNL     1       2.923   8.556  17.912  0.00  0.00    +0.000 C 
BRANCH  19  22
ATOM     20  O   UNL     1       2.447   6.718  20.029  0.00  0.00    +0.000 OA
ATOM     21  C   UNL     1       2.916   6.309  18.974  0.00  0.00    +0.000 C 
ATOM     22  N   UNL     1       3.215   7.129  17.898  0.00  0.00    +0.000 N 
ATOM     23  H   UNL     1       3.352   6.697  16.993  0.00  0.00    +0.000 HD
BRANCH  21  24
ATOM     24  C   UNL     1       3.151   4.849  18.773  0.00  0.00    +0.000 A 
ATOM     25  C   UNL     1       2.395   4.164  17.803  0.00  0.00    +0.000 A 
ATOM     26  C   UNL     1       2.594   2.796  17.577  0.00  0.00    +0.000 A 
ATOM     27  C   UNL     1       3.543   2.121  18.333  0.00  0.00    +0.000 A 
ATOM     28  C   UNL     1       4.277   2.793  19.307  0.00  0.00    +0.000 A 
ATOM     29  C   UNL     1       4.089   4.149  19.540  0.00  0.00    +0.000 A 
BRANCH  27  30
ATOM     30  O   UNL     1       3.793   0.787  18.164  0.00  0.00    +0.000 OA
ATOM     31  H   UNL     1       4.375   0.682  17.391  0.00  0.00    +0.000 HD
ENDBRANCH  27  30
BRANCH  28  32
ATOM     32  O   UNL     1       5.198   2.118  20.057  0.00  0.00    +0.000 OA
ATOM     33  H   UNL     1       5.753   2.821  20.454  0.00  0.00    +0.000 HD
ENDBRANCH  28  32
ENDBRANCH  21  24
ENDBRANCH  19  22
ENDBRANCH  18  19
ENDBRANCH   1  18
TORSDOF 9
ENDMDL
MODEL 4
REMARK VINA RESULT:      -7.2      4.035      6.244
REMARK  Name = 
REMARK  9 active torsions:
REMARK  status: ('A' for Active; 'I' for Inactive)
REMARK    1  A    between atoms: C_2  and  C_23
REMARK    2  A    between atoms: N_3  and  C_4
REMARK    3  A    between atoms: C_4  and  C_5
REMARK    4  A    between atoms: C_5  and  C_6
REMARK    5  A    between atoms: C_6  and  N_7
REMARK    6  A    between atoms: C_11  and  C_13
REMARK    7  A    between atoms: C_14  and  C_15
REMARK    8  A    between atoms: C_26  and  O_27
REMARK    9  A    between atoms: C_28  and  O_29
REMARK                            x       y       z     vdW  Elec       q    Type
REMARK                         _______ _______ _______ _____ _____    ______ ____
ROOT
ATOM      1  C   UNL     1       0.912   6.922  20.442  0.00  0.00    +0.000 C 
ENDROOT
BRANCH   1   2
ATOM      2  N   UNL     1       2.271   6.346  20.464  0.00  0.00    +0.000 NA
ATOM      3  C   UNL     1       2.290   4.865  20.519  0.00  0.00    +0.000 C 
ATOM      4  C   UNL     1       1.956   4.192  19.180  0.00  0.00    +0.000 C 
ATOM      5  N   UNL     1       2.936   4.596  18.175  0.00  0.00    +0.000 N 
ATOM      6  C   UNL     1       3.813   3.631  17.709  0.00  0.00    +0.000 C 
ATOM      7  O   UNL     1       3.753   2.454  18.062  0.00  0.00    +0.000 OA
ATOM      8  C   UNL     1       3.012   6.052  17.996  0.00  0.00    +0.000 C 
ATOM      9  C   UNL     1       3.131   6.807  19.349  0.00  0.00    +0.000 C 
BRANCH   6  10
ATOM     10  C   UNL     1       4.872   4.050  16.759  0.00  0.00    +0.000 C 
ATOM     11  C   UNL     1       4.707   3.775  15.455  0.00  0.00    +0.000 C 
BRANCH  11  12
ATOM     12  C   UNL     1       5.709   4.133  14.455  0.00  0.00    +0.000 A 
ATOM     13  C   UNL     1       5.656   3.549  13.185  0.00  0.00    +0.000 A 
ATOM     14  C   UNL     1       6.611   3.876  12.221  0.00  0.00    +0.000 A 
ATOM     15  C   UNL     1       7.623   4.788  12.522  0.00  0.00    +0.000 A 
ATOM     16  C   UNL     1       7.676   5.377  13.786  0.00  0.00    +0.000 A 
ATOM     17  C   UNL     1       6.721   5.050  14.752  0.00  0.00    +0.000 A 
ENDBRANCH  11  12
ENDBRANCH   6  10
ENDBRANCH   1   2
BRANCH   1  18
ATOM     18  C   UNL     1       0.825   8.151  21.366  0.00  0.00    +0.000 C 
BRANCH  18  19
ATOM     19  C   UNL     1       1.103   9.477  20.666  0.00  0.00    +0.000 C 
BRANCH  19  22
ATOM     20  O   UNL     1       0.696   9.655  17.858  0.00  0.00    +0.000 OA
ATOM     21  C   UNL     1      -0.210   9.979  18.617  0.00  0.00    +0.000 C 
ATOM     22  N   UNL     1      -0.098   9.959  19.997  0.00  0.00    +0.000 N 
ATOM     23  H   UNL     1      -0.948   9.990  20.545  0.00  0.00    +0.000 HD
BRANCH  21  24
ATOM     24  C   UNL     1      -1.541  10.378  18.072  0.00  0.00    +0.000 A 
ATOM     25  C   UNL     1      -1.974   9.818  16.855  0.00  0.00    +0.000 A 
ATOM     26  C   UNL     1      -3.222  10.160  16.315  0.00  0.00    +0.000 A 
ATOM     27  C   UNL     1      -4.021  11.069  16.995  0.00  0.00    +0.000 A 
ATOM     28  C   UNL     1      -3.585  11.639  18.188  0.00  0.00    +0.000 A 
ATOM     29  C   UNL     1      -2.350  11.308  18.732  0.00  0.00    +0.000 A 
BRANCH  27  30
ATOM     30  O   UNL     1      -5.251  11.445  16.530  0.00  0.00    +0.000 OA
ATOM     31  H   UNL     1      -5.927  10.940  17.013  0.00  0.00    +0.000 HD
ENDBRANCH  27  30
BRANCH  28  32
ATOM     32  O   UNL     1      -4.371  12.544  18.843  0.00  0.00    +0.000 OA
ATOM     33  H   UNL     1      -5.270  12.156  18.812  0.00  0.00    +0.000 HD
ENDBRANCH  28  32
ENDBRANCH  21  24
ENDBRANCH  19  22
ENDBRANCH  18  19
ENDBRANCH   1  18
TORSDOF 9
ENDMDL
MODEL 5
REMARK VINA RESULT:      -7.1      5.466     10.596
REMARK  Name = 
REMARK  9 active torsions:
REMARK  status: ('A' for Active; 'I' for Inactive)
REMARK    1  A    between atoms: C_2  and  C_23
REMARK    2  A    between atoms: N_3  and  C_4
REMARK    3  A    between atoms: C_4  and  C_5
REMARK    4  A    between atoms: C_5  and  C_6
REMARK    5  A    between atoms: C_6  and  N_7
REMARK    6  A    between atoms: C_11  and  C_13
REMARK    7  A    between atoms: C_14  and  C_15
REMARK    8  A    between atoms: C_26  and  O_27
REMARK    9  A    between atoms: C_28  and  O_29
REMARK                            x       y       z     vdW  Elec       q    Type
REMARK                         _______ _______ _______ _____ _____    ______ ____
ROOT
ATOM      1  C   UNL     1      -0.088  10.421  18.006  0.00  0.00    +0.000 C 
ENDROOT
BRANCH   1   2
ATOM      2  N   UNL     1      -1.105  10.138  19.038  0.00  0.00    +0.000 NA
ATOM      3  C   UNL     1      -0.536   9.899  20.385  0.00  0.00    +0.000 C 
ATOM      4  C   UNL     1      -0.075  11.178  21.099  0.00  0.00    +0.000 C 
ATOM      5  N   UNL     1      -1.213  12.078  21.268  0.00  0.00    +0.000 N 
ATOM      6  C   UNL     1      -1.677  12.292  22.555  0.00  0.00    +0.000 C 
ATOM      7  O   UNL     1      -1.130  11.809  23.546  0.00  0.00    +0.000 OA
ATOM      8  C   UNL     1      -1.870  12.422  20.000  0.00  0.00    +0.000 C 
ATOM      9  C   UNL     1      -2.165  11.169  19.128  0.00  0.00    +0.000 C 
BRANCH   6  10
ATOM     10  C   UNL     1      -2.889  13.129  22.731  0.00  0.00    +0.000 C 
ATOM     11  C   UNL     1      -3.939  12.605  23.383  0.00  0.00    +0.000 C 
BRANCH  11  12
ATOM     12  C   UNL     1      -5.179  13.351  23.581  0.00  0.00    +0.000 A 
ATOM     13  C   UNL     1      -5.207  14.725  23.324  0.00  0.00    +0.000 A 
ATOM     14  C   UNL     1      -6.382  15.453  23.516  0.00  0.00    +0.000 A 
ATOM     15  C   UNL     1      -7.535  14.809  23.967  0.00  0.00    +0.000 A 
ATOM     16  C   UNL     1      -7.513  13.437  24.220  0.00  0.00    +0.000 A 
ATOM     17  C   UNL     1      -6.337  12.708  24.028  0.00  0.00    +0.000 A 
ENDBRANCH  11  12
ENDBRANCH   6  10
ENDBRANCH   1   2
BRANCH   1  18
ATOM     18  C   UNL     1       0.714   9.152  17.666  0.00  0.00    +0.000 C 
BRANCH  18  19
ATOM     19  C   UNL     1       2.177   9.207  18.092  0.00  0.00    +0.000 C 
BRANCH  19  22
ATOM     20  O   UNL     1       1.931   7.521  20.368  0.00  0.00    +0.000 OA
ATOM     21  C   UNL     1       2.516   7.106  19.375  0.00  0.00    +0.000 C 
ATOM     22  N   UNL     1       2.717   7.862  18.231  0.00  0.00    +0.000 N 
ATOM     23  H   UNL     1       2.973   7.379  17.380  0.00  0.00    +0.000 HD
BRANCH  21  24
ATOM     24  C   UNL     1       3.016   5.701  19.330  0.00  0.00    +0.000 A 
ATOM     25  C   UNL     1       2.124   4.651  19.620  0.00  0.00    +0.000 A 
ATOM     26  C   UNL     1       2.553   3.317  19.578  0.00  0.00    +0.000 A 
ATOM     27  C   UNL     1       3.877   3.047  19.257  0.00  0.00    +0.000 A 
ATOM     28  C   UNL     1       4.765   4.086  18.990  0.00  0.00    +0.000 A 
ATOM     29  C   UNL     1       4.351   5.411  19.028  0.00  0.00    +0.000 A 
BRANCH  27  30
ATOM     30  O   UNL     1       4.363   1.770  19.193  0.00  0.00    +0.000 OA
ATOM     31  H   UNL     1       4.710   1.620  18.296  0.00  0.00    +0.000 HD
ENDBRANCH  27  30
BRANCH  28  32
ATOM     32  O   UNL     1       6.069   3.812  18.689  0.00  0.00    +0.000 OA
ATOM     33  H   UNL     1       6.482   3.609  19.553  0.00  0.00    +0.000 HD
ENDBRANCH  28  32
ENDBRANCH  21  24
ENDBRANCH  19  22
ENDBRANCH  18  19
ENDBRANCH   1  18
TORSDOF 9
ENDMDL
MODEL 6
REMARK VINA RESULT:      -7.0      4.066      6.460
REMARK  Name = 
REMARK  9 active torsions:
REMARK  status: ('A' for Active; 'I' for Inactive)
REMARK    1  A    between atoms: C_2  and  C_23
REMARK    2  A    between atoms: N_3  and  C_4
REMARK    3  A    between atoms: C_4  and  C_5
REMARK    4  A    between atoms: C_5  and  C_6
REMARK    5  A    between atoms: C_6  and  N_7
REMARK    6  A    between atoms: C_11  and  C_13
REMARK    7  A    between atoms: C_14  and  C_15
REMARK    8  A    between atoms: C_26  and  O_27
REMARK    9  A    between atoms: C_28  and  O_29
REMARK                            x       y       z     vdW  Elec       q    Type
REMARK                         _______ _______ _______ _____ _____    ______ ____
ROOT
ATOM      1  C   UNL     1       1.084   7.523  20.506  0.00  0.00    +0.000 C 
ENDROOT
BRANCH   1   2
ATOM      2  N   UNL     1       2.416   6.968  20.194  0.00  0.00    +0.000 NA
ATOM      3  C   UNL     1       2.590   5.560  20.622  0.00  0.00    +0.000 C 
ATOM      4  C   UNL     1       1.883   4.545  19.713  0.00  0.00    +0.000 C 
ATOM      5  N   UNL     1       2.418   4.650  18.358  0.00  0.00    +0.000 N 
ATOM      6  C   UNL     1       3.169   3.589  17.881  0.00  0.00    +0.000 C 
ATOM      7  O   UNL     1       3.343   2.555  18.525  0.00  0.00    +0.000 OA
ATOM      8  C   UNL     1       2.293   5.999  17.792  0.00  0.00    +0.000 C 
ATOM      9  C   UNL     1       2.796   7.099  18.769  0.00  0.00    +0.000 C 
BRANCH   6  10
ATOM     10  C   UNL     1       3.795   3.723  16.542  0.00  0.00    +0.000 C 
ATOM     11  C   UNL     1       5.110   3.985  16.474  0.00  0.00    +0.000 C 
BRANCH  11  12
ATOM     12  C   UNL     1       5.802   4.154  15.200  0.00  0.00    +0.000 A 
ATOM     13  C   UNL     1       6.918   4.993  15.125  0.00  0.00    +0.000 A 
ATOM     14  C   UNL     1       7.585   5.170  13.912  0.00  0.00    +0.000 A 
ATOM     15  C   UNL     1       7.139   4.508  12.768  0.00  0.00    +0.000 A 
ATOM     16  C   UNL     1       6.030   3.665  12.839  0.00  0.00    +0.000 A 
ATOM     17  C   UNL     1       5.361   3.487  14.053  0.00  0.00    +0.000 A 
ENDBRANCH  11  12
ENDBRANCH   6  10
ENDBRANCH   1   2
BRANCH   1  18
ATOM     18  C   UNL     1       1.175   8.549  21.651  0.00  0.00    +0.000 C 
BRANCH  18  19
ATOM     19  C   UNL     1       0.808   9.972  21.243  0.00  0.00    +0.000 C 
BRANCH  19  22
ATOM     20  O   UNL     1      -0.946  12.095  20.536  0.00  0.00    +0.000 OA
ATOM     21  C   UNL     1      -0.971  11.056  19.888  0.00  0.00    +0.000 C 
ATOM     22  N   UNL     1      -0.182   9.954  20.174  0.00  0.00    +0.000 N 
ATOM     23  H   UNL     1      -0.072   9.247  19.458  0.00  0.00    +0.000 HD
BRANCH  21  24
ATOM     24  C   UNL     1      -1.850  10.940  18.687  0.00  0.00    +0.000 A 
ATOM     25  C   UNL     1      -1.472  10.069  17.648  0.00  0.00    +0.000 A 
ATOM     26  C   UNL     1      -2.276   9.924  16.509  0.00  0.00    +0.000 A 
ATOM     27  C   UNL     1      -3.447  10.664  16.415  0.00  0.00    +0.000 A 
ATOM     28  C   UNL     1      -3.811  11.542  17.433  0.00  0.00    +0.000 A 
ATOM     29  C   UNL     1      -3.023  11.693  18.566  0.00  0.00    +0.000 A 
BRANCH  27  30
ATOM     30  O   UNL     1      -4.281  10.570  15.335  0.00  0.00    +0.000 OA
ATOM     31  H   UNL     1      -4.582  11.466  15.104  0.00  0.00    +0.000 HD
ENDBRANCH  27  30
BRANCH  28  32
ATOM     32  O   UNL     1      -4.958  12.276  17.326  0.00  0.00    +0.000 OA
ATOM     33  H   UNL     1      -5.071  12.416  16.364  0.00  0.00    +0.000 HD
ENDBRANCH  28  32
ENDBRANCH  21  24
ENDBRANCH  19  22
ENDBRANCH  18  19
ENDBRANCH   1  18
TORSDOF 9
ENDMDL
MODEL 7
REMARK VINA RESULT:      -7.0      1.381      1.894
REMARK  Name = 
REMARK  9 active torsions:
REMARK  status: ('A' for Active; 'I' for Inactive)
REMARK    1  A    between atoms: C_2  and  C_23
REMARK    2  A    between atoms: N_3  and  C_4
REMARK    3  A    between atoms: C_4  and  C_5
REMARK    4  A    between atoms: C_5  and  C_6
REMARK    5  A    between atoms: C_6  and  N_7
REMARK    6  A    between atoms: C_11  and  C_13
REMARK    7  A    between atoms: C_14  and  C_15
REMARK    8  A    between atoms: C_26  and  O_27
REMARK    9  A    between atoms: C_28  and  O_29
REMARK                            x       y       z     vdW  Elec       q    Type
REMARK                         _______ _______ _______ _____ _____    ______ ____
ROOT
ATOM      1  C   UNL     1       3.492   4.637  17.315  0.00  0.00    +0.000 C 
ENDROOT
BRANCH   1   2
ATOM      2  N   UNL     1       3.984   5.727  18.180  0.00  0.00    +0.000 NA
ATOM      3  C   UNL     1       5.094   5.323  19.076  0.00  0.00    +0.000 C 
ATOM      4  C   UNL     1       6.447   5.192  18.364  0.00  0.00    +0.000 C 
ATOM      5  N   UNL     1       6.816   6.478  17.778  0.00  0.00    +0.000 N 
ATOM      6  C   UNL     1       7.895   7.149  18.329  0.00  0.00    +0.000 C 
ATOM      7  O   UNL     1       8.578   6.675  19.236  0.00  0.00    +0.000 OA
ATOM      8  C   UNL     1       5.808   6.997  16.844  0.00  0.00    +0.000 C 
ATOM      9  C   UNL     1       4.372   6.948  17.437  0.00  0.00    +0.000 C 
BRANCH   6  10
ATOM     10  C   UNL     1       8.221   8.498  17.805  0.00  0.00    +0.000 C 
ATOM     11  C   UNL     1       8.827   9.373  18.623  0.00  0.00    +0.000 C 
BRANCH  11  12
ATOM     12  C   UNL     1       9.164  10.728  18.195  0.00  0.00    +0.000 A 
ATOM     13  C   UNL     1      10.505  11.124  18.148  0.00  0.00    +0.000 A 
ATOM     14  C   UNL     1      10.842  12.418  17.748  0.00  0.00    +0.000 A 
ATOM     15  C   UNL     1       9.840  13.321  17.394  0.00  0.00    +0.000 A 
ATOM     16  C   UNL     1       8.501  12.929  17.435  0.00  0.00    +0.000 A 
ATOM     17  C   UNL     1       8.163  11.634  17.835  0.00  0.00    +0.000 A 
ENDBRANCH  11  12
ENDBRANCH   6  10
ENDBRANCH   1   2
BRANCH   1  18
ATOM     18  C   UNL     1       3.097   3.409  18.155  0.00  0.00    +0.000 C 
BRANCH  18  19
ATOM     19  C   UNL     1       1.778   3.565  18.904  0.00  0.00    +0.000 C 
BRANCH  19  22
ATOM     20  O   UNL     1       2.119   4.974  21.350  0.00  0.00    +0.000 OA
ATOM     21  C   UNL     1       1.719   5.577  20.361  0.00  0.00    +0.000 C 
ATOM     22  N   UNL     1       1.489   4.974  19.135  0.00  0.00    +0.000 N 
ATOM     23  H   UNL     1       1.411   5.567  18.319  0.00  0.00    +0.000 HD
BRANCH  21  24
ATOM     24  C   UNL     1       1.499   7.051  20.419  0.00  0.00    +0.000 A 
ATOM     25  C   UNL     1       1.567   7.798  19.227  0.00  0.00    +0.000 A 
ATOM     26  C   UNL     1       1.356   9.183  19.239  0.00  0.00    +0.000 A 
ATOM     27  C   UNL     1       1.088   9.812  20.448  0.00  0.00    +0.000 A 
ATOM     28  C   UNL     1       1.040   9.078  21.630  0.00  0.00    +0.000 A 
ATOM     29  C   UNL     1       1.248   7.705  21.631  0.00  0.00    +0.000 A 
BRANCH  27  30
ATOM     30  O   UNL     1       0.867  11.159  20.533  0.00  0.00    +0.000 OA
ATOM     31  H   UNL     1       1.708  11.592  20.759  0.00  0.00    +0.000 HD
ENDBRANCH  27  30
BRANCH  28  32
ATOM     32  O   UNL     1       0.791   9.706  22.817  0.00  0.00    +0.000 OA
ATOM     33  H   UNL     1       1.005  10.647  22.646  0.00  0.00    +0.000 HD
ENDBRANCH  28  32
ENDBRANCH  21  24
ENDBRANCH  19  22
ENDBRANCH  18  19
ENDBRANCH   1  18
TORSDOF 9
ENDMDL
MODEL 8
REMARK VINA RESULT:      -6.9      4.740      8.329
REMARK  Name = 
REMARK  9 active torsions:
REMARK  status: ('A' for Active; 'I' for Inactive)
REMARK    1  A    between atoms: C_2  and  C_23
REMARK    2  A    between atoms: N_3  and  C_4
REMARK    3  A    between atoms: C_4  and  C_5
REMARK    4  A    between atoms: C_5  and  C_6
REMARK    5  A    between atoms: C_6  and  N_7
REMARK    6  A    between atoms: C_11  and  C_13
REMARK    7  A    between atoms: C_14  and  C_15
REMARK    8  A    between atoms: C_26  and  O_27
REMARK    9  A    between atoms: C_28  and  O_29
REMARK                            x       y       z     vdW  Elec       q    Type
REMARK                         _______ _______ _______ _____ _____    ______ ____
ROOT
ATOM      1  C   UNL     1       1.542   8.463  20.310  0.00  0.00    +0.000 C 
ENDROOT
BRANCH   1   2
ATOM      2  N   UNL     1       0.457   9.271  19.720  0.00  0.00    +0.000 NA
ATOM      3  C   UNL     1      -0.392   9.955  20.724  0.00  0.00    +0.000 C 
ATOM      4  C   UNL     1       0.269  11.187  21.358  0.00  0.00    +0.000 C 
ATOM      5  N   UNL     1       0.573  12.166  20.317  0.00  0.00    +0.000 N 
ATOM      6  C   UNL     1      -0.148  13.348  20.317  0.00  0.00    +0.000 C 
ATOM      7  O   UNL     1      -0.975  13.621  21.187  0.00  0.00    +0.000 OA
ATOM      8  C   UNL     1       1.433  11.629  19.254  0.00  0.00    +0.000 C 
ATOM      9  C   UNL     1       0.927  10.259  18.720  0.00  0.00    +0.000 C 
BRANCH   6  10
ATOM     10  C   UNL     1       0.085  14.309  19.211  0.00  0.00    +0.000 C 
ATOM     11  C   UNL     1       0.198  15.613  19.509  0.00  0.00    +0.000 C 
BRANCH  11  12
ATOM     12  C   UNL     1       0.407  16.628  18.481  0.00  0.00    +0.000 A 
ATOM     13  C   UNL     1       1.703  16.895  18.027  0.00  0.00    +0.000 A 
ATOM     14  C   UNL     1       1.919  17.867  17.050  0.00  0.00    +0.000 A 
ATOM     15  C   UNL     1       0.840  18.577  16.521  0.00  0.00    +0.000 A 
ATOM     16  C   UNL     1      -0.455  18.310  16.966  0.00  0.00    +0.000 A 
ATOM     17  C   UNL     1      -0.673  17.337  17.945  0.00  0.00    +0.000 A 
ENDBRANCH  11  12
ENDBRANCH   6  10
ENDBRANCH   1   2
BRANCH   1  18
ATOM     18  C   UNL     1       1.065   7.024  20.581  0.00  0.00    +0.000 C 
BRANCH  18  19
ATOM     19  C   UNL     1       2.189   6.048  20.911  0.00  0.00    +0.000 C 
BRANCH  19  22
ATOM     20  O   UNL     1       3.736   3.874  19.929  0.00  0.00    +0.000 OA
ATOM     21  C   UNL     1       3.915   4.994  19.467  0.00  0.00    +0.000 C 
ATOM     22  N   UNL     1       3.237   6.121  19.902  0.00  0.00    +0.000 N 
ATOM     23  H   UNL     1       3.250   6.943  19.311  0.00  0.00    +0.000 HD
BRANCH  21  24
ATOM     24  C   UNL     1       4.872   5.198  18.340  0.00  0.00    +0.000 A 
ATOM     25  C   UNL     1       6.136   4.581  18.400  0.00  0.00    +0.000 A 
ATOM     26  C   UNL     1       7.059   4.741  17.357  0.00  0.00    +0.000 A 
ATOM     27  C   UNL     1       6.711   5.527  16.266  0.00  0.00    +0.000 A 
ATOM     28  C   UNL     1       5.469   6.154  16.216  0.00  0.00    +0.000 A 
ATOM     29  C   UNL     1       4.547   6.004  17.243  0.00  0.00    +0.000 A 
BRANCH  27  30
ATOM     30  O   UNL     1       7.559   5.722  15.211  0.00  0.00    +0.000 OA
ATOM     31  H   UNL     1       7.655   4.879  14.737  0.00  0.00    +0.000 HD
ENDBRANCH  27  30
BRANCH  28  32
ATOM     32  O   UNL     1       5.140   6.937  15.146  0.00  0.00    +0.000 OA
ATOM     33  H   UNL     1       5.945   6.940  14.588  0.00  0.00    +0.000 HD
ENDBRANCH  28  32
ENDBRANCH  21  24
ENDBRANCH  19  22
ENDBRANCH  18  19
ENDBRANCH   1  18
TORSDOF 9
ENDMDL
MODEL 9
REMARK VINA RESULT:      -6.9      6.116      9.298
REMARK  Name = 
REMARK  9 active torsions:
REMARK  status: ('A' for Active; 'I' for Inactive)
REMARK    1  A    between atoms: C_2  and  C_23
REMARK    2  A    between atoms: N_3  and  C_4
REMARK    3  A    between atoms: C_4  and  C_5
REMARK    4  A    between atoms: C_5  and  C_6
REMARK    5  A    between atoms: C_6  and  N_7
REMARK    6  A    between atoms: C_11  and  C_13
REMARK    7  A    between atoms: C_14  and  C_15
REMARK    8  A    between atoms: C_26  and  O_27
REMARK    9  A    between atoms: C_28  and  O_29
REMARK                            x       y       z     vdW  Elec       q    Type
REMARK                         _______ _______ _______ _____ _____    ______ ____
ROOT
ATOM      1  C   UNL     1      -3.919  11.478  17.977  0.00  0.00    +0.000 C 
ENDROOT
BRANCH   1   2
ATOM      2  N   UNL     1      -2.661  11.552  17.208  0.00  0.00    +0.000 NA
ATOM      3  C   UNL     1      -1.575  12.276  17.910  0.00  0.00    +0.000 C 
ATOM      4  C   UNL     1      -0.915  11.464  19.033  0.00  0.00    +0.000 C 
ATOM      5  N   UNL     1      -0.329  10.248  18.475  0.00  0.00    +0.000 N 
ATOM      6  C   UNL     1       1.052  10.147  18.464  0.00  0.00    +0.000 C 
ATOM      7  O   UNL     1       1.784  11.005  18.957  0.00  0.00    +0.000 OA
ATOM      8  C   UNL     1      -1.304   9.412  17.761  0.00  0.00    +0.000 C 
ATOM      9  C   UNL     1      -2.161  10.233  16.756  0.00  0.00    +0.000 C 
BRANCH   6  10
ATOM     10  C   UNL     1       1.661   8.960  17.815  0.00  0.00    +0.000 C 
ATOM     11  C   UNL     1       2.345   8.093  18.579  0.00  0.00    +0.000 C 
BRANCH  11  12
ATOM     12  C   UNL     1       2.993   6.911  18.020  0.00  0.00    +0.000 A 
ATOM     13  C   UNL     1       4.178   7.053  17.291  0.00  0.00    +0.000 A 
ATOM     14  C   UNL     1       4.805   5.932  16.744  0.00  0.00    +0.000 A 
ATOM     15  C   UNL     1       4.250   4.665  16.924  0.00  0.00    +0.000 A 
ATOM     16  C   UNL     1       3.072   4.518  17.656  0.00  0.00    +0.000 A 
ATOM     17  C   UNL     1       2.443   5.639  18.204  0.00  0.00    +0.000 A 
ENDBRANCH  11  12
ENDBRANCH   6  10
ENDBRANCH   1   2
BRANCH   1  18
ATOM     18  C   UNL     1      -5.129  11.789  17.077  0.00  0.00    +0.000 C 
BRANCH  18  19
ATOM     19  C   UNL     1      -6.019  12.912  17.598  0.00  0.00    +0.000 C 
BRANCH  19  22
ATOM     20  O   UNL     1      -7.266  12.102  20.022  0.00  0.00    +0.000 OA
ATOM     21  C   UNL     1      -6.275  12.821  20.068  0.00  0.00    +0.000 C 
ATOM     22  N   UNL     1      -5.618  13.295  18.944  0.00  0.00    +0.000 N 
ATOM     23  H   UNL     1      -4.681  13.660  19.058  0.00  0.00    +0.000 HD
BRANCH  21  24
ATOM     24  C   UNL     1      -5.678  13.194  21.384  0.00  0.00    +0.000 A 
ATOM     25  C   UNL     1      -4.413  12.683  21.728  0.00  0.00    +0.000 A 
ATOM     26  C   UNL     1      -3.814  13.018  22.950  0.00  0.00    +0.000 A 
ATOM     27  C   UNL     1      -4.495  13.855  23.824  0.00  0.00    +0.000 A 
ATOM     28  C   UNL     1      -5.756  14.345  23.494  0.00  0.00    +0.000 A 
ATOM     29  C   UNL     1      -6.359  14.019  22.286  0.00  0.00    +0.000 A 
BRANCH  27  30
ATOM     30  O   UNL     1      -3.970  14.227  25.031  0.00  0.00    +0.000 OA
ATOM     31  H   UNL     1      -3.053  13.905  25.077  0.00  0.00    +0.000 HD
ENDBRANCH  27  30
BRANCH  28  32
ATOM     32  O   UNL     1      -6.425  15.156  24.365  0.00  0.00    +0.000 OA
ATOM     33  H   UNL     1      -7.313  15.264  23.967  0.00  0.00    +0.000 HD
ENDBRANCH  28  32
ENDBRANCH  21  24
ENDBRANCH  19  22
ENDBRANCH  18  19
ENDBRANCH   1  18
TORSDOF 9
ENDMDL
