MODEL 1
REMARK VINA RESULT:      -6.8      0.000      0.000
REMARK  Name = 
REMARK  5 active torsions:
REMARK  status: ('A' for Active; 'I' for Inactive)
REMARK    1  A    between atoms: C_1  and  C_2
REMARK    2  A    between atoms: C_4  and  O_5
REMARK    3  A    between atoms: C_6  and  C_7
REMARK    4  A    between atoms: N_8  and  N_9
REMARK    5  A    between atoms: N_9  and  C_10
REMARK                            x       y       z     vdW  Elec       q    Type
REMARK                         _______ _______ _______ _____ _____    ______ ____
ROOT
ATOM      1  C   UNL     1       6.230   4.740  17.795  0.00  0.00    +0.000 C 
ATOM      2  N   UNL     1       5.787   4.284  16.668  0.00  0.00    +0.000 NA
ENDROOT
BRANCH   1   7
ATOM      3  C   UNL     1       9.002   9.758  18.384  0.00  0.00    +0.000 C 
ATOM      4  C   UNL     1       8.208   8.506  18.191  0.00  0.00    +0.000 A 
ATOM      5  C   UNL     1       7.220   8.373  17.299  0.00  0.00    +0.000 A 
ATOM      6  C   UNL     1       6.542   7.111  17.184  0.00  0.00    +0.000 A 
ATOM      7  C   UNL     1       6.904   6.056  17.936  0.00  0.00    +0.000 A 
ATOM      8  C   UNL     1       7.945   6.223  18.966  0.00  0.00    +0.000 A 
ATOM      9  O   UNL     1       8.236   5.310  19.735  0.00  0.00    +0.000 OA
ATOM     10  O   UNL     1       8.577   7.439  19.040  0.00  0.00    +0.000 OA
BRANCH   6  11
ATOM     11  O   UNL     1       5.509   7.069  16.276  0.00  0.00    +0.000 OA
ATOM     12  H   UNL     1       4.928   7.841  16.378  0.00  0.00    +0.000 HD
ENDBRANCH   6  11
ENDBRANCH   1   7
BRANCH   2  13
ATOM     13  N   UNL     1       5.172   3.068  16.708  0.00  0.00    +0.000 N 
ATOM     14  H   UNL     1       5.762   2.248  16.849  0.00  0.00    +0.000 HD
BRANCH  13  15
ATOM     15  C   UNL     1       3.985   3.028  17.478  0.00  0.00    +0.000 A 
ATOM     16  C   UNL     1       3.828   2.097  18.518  0.00  0.00    +0.000 A 
ATOM     17  C   UNL     1       2.669   2.070  19.295  0.00  0.00    +0.000 A 
ATOM     18  C   UNL     1       1.654   2.985  19.043  0.00  0.00    +0.000 A 
ATOM     19 CL   UNL     1       0.216   2.949  19.988  0.00  0.00    +0.000 Cl
ATOM     20  C   UNL     1       1.797   3.936  18.034  0.00  0.00    +0.000 A 
ATOM     21  C   UNL     1       2.966   3.966  17.264  0.00  0.00    +0.000 A 
ENDBRANCH  13  15
ENDBRANCH   2  13
TORSDOF 4
ENDMDL
MODEL 2
REMARK VINA RESULT:      -6.8      0.072      1.109
REMARK  Name = 
REMARK  5 active torsions:
REMARK  status: ('A' for Active; 'I' for Inactive)
REMARK    1  A    between atoms: C_1  and  C_2
REMARK    2  A    between atoms: C_4  and  O_5
REMARK    3  A    between atoms: C_6  and  C_7
REMARK    4  A    between atoms: N_8  and  N_9
REMARK    5  A    between atoms: N_9  and  C_10
REMARK                            x       y       z     vdW  Elec       q    Type
REMARK                         _______ _______ _______ _____ _____    ______ ____
ROOT
ATOM      1  C   UNL     1       6.210   4.734  17.780  0.00  0.00    +0.000 C 
ATOM      2  N   UNL     1       5.841   4.249  16.639  0.00  0.00    +0.000 NA
ENDROOT
BRANCH   1   7
ATOM      3  C   UNL     1       9.038   9.717  18.399  0.00  0.00    +0.000 C 
ATOM      4  C   UNL     1       8.230   8.476  18.198  0.00  0.00    +0.000 A 
ATOM      5  C   UNL     1       7.246   8.356  17.300  0.00  0.00    +0.000 A 
ATOM      6  C   UNL     1       6.554   7.103  17.177  0.00  0.00    +0.000 A 
ATOM      7  C   UNL     1       6.898   6.042  17.928  0.00  0.00    +0.000 A 
ATOM      8  C   UNL     1       7.935   6.194  18.966  0.00  0.00    +0.000 A 
ATOM      9  O   UNL     1       8.210   5.275  19.734  0.00  0.00    +0.000 OA
ATOM     10  O   UNL     1       8.580   7.401  19.046  0.00  0.00    +0.000 OA
BRANCH   6  11
ATOM     11  O   UNL     1       5.526   7.075  16.263  0.00  0.00    +0.000 OA
ATOM     12  H   UNL     1       5.237   7.976  16.040  0.00  0.00    +0.000 HD
ENDBRANCH   6  11
ENDBRANCH   1   7
BRANCH   2  13
ATOM     13  N   UNL     1       5.199   3.047  16.672  0.00  0.00    +0.000 N 
ATOM     14  H   UNL     1       5.771   2.214  16.807  0.00  0.00    +0.000 HD
BRANCH  13  15
ATOM     15  C   UNL     1       4.012   3.028  17.444  0.00  0.00    +0.000 A 
ATOM     16  C   UNL     1       2.948   3.899  17.157  0.00  0.00    +0.000 A 
ATOM     17  C   UNL     1       1.768   3.867  17.901  0.00  0.00    +0.000 A 
ATOM     18  C   UNL     1       1.636   2.951  18.938  0.00  0.00    +0.000 A 
ATOM     19 CL   UNL     1       0.189   2.915  19.869  0.00  0.00    +0.000 Cl
ATOM     20  C   UNL     1       2.668   2.058  19.225  0.00  0.00    +0.000 A 
ATOM     21  C   UNL     1       3.846   2.088  18.469  0.00  0.00    +0.000 A 
ENDBRANCH  13  15
ENDBRANCH   2  13
TORSDOF 4
ENDMDL
MODEL 3
REMARK VINA RESULT:      -6.7      4.131      7.694
REMARK  Name = 
REMARK  5 active torsions:
REMARK  status: ('A' for Active; 'I' for Inactive)
REMARK    1  A    between atoms: C_1  and  C_2
REMARK    2  A    between atoms: C_4  and  O_5
REMARK    3  A    between atoms: C_6  and  C_7
REMARK    4  A    between atoms: N_8  and  N_9
REMARK    5  A    between atoms: N_9  and  C_10
REMARK                            x       y       z     vdW  Elec       q    Type
REMARK                         _______ _______ _______ _____ _____    ______ ____
ROOT
ATOM      1  C   UNL     1       7.771   7.381  17.583  0.00  0.00    +0.000 C 
ATOM      2  N   UNL     1       7.579   8.648  17.761  0.00  0.00    +0.000 NA
ENDROOT
BRANCH   1   7
ATOM      3  C   UNL     1       3.827   3.401  18.935  0.00  0.00    +0.000 C 
ATOM      4  C   UNL     1       4.816   4.430  18.491  0.00  0.00    +0.000 A 
ATOM      5  C   UNL     1       4.667   5.198  17.406  0.00  0.00    +0.000 A 
ATOM      6  C   UNL     1       5.673   6.175  17.091  0.00  0.00    +0.000 A 
ATOM      7  C   UNL     1       6.746   6.349  17.884  0.00  0.00    +0.000 A 
ATOM      8  C   UNL     1       6.946   5.454  19.040  0.00  0.00    +0.000 A 
ATOM      9  O   UNL     1       7.959   5.520  19.731  0.00  0.00    +0.000 OA
ATOM     10  O   UNL     1       5.959   4.542  19.315  0.00  0.00    +0.000 OA
BRANCH   6  11
ATOM     11  O   UNL     1       5.467   6.893  15.936  0.00  0.00    +0.000 OA
ATOM     12  H   UNL     1       5.833   7.789  16.017  0.00  0.00    +0.000 HD
ENDBRANCH   6  11
ENDBRANCH   1   7
BRANCH   2  13
ATOM     13  N   UNL     1       8.609   9.470  17.415  0.00  0.00    +0.000 N 
ATOM     14  H   UNL     1       8.642   9.799  16.450  0.00  0.00    +0.000 HD
BRANCH  13  15
ATOM     15  C   UNL     1       8.896  10.491  18.353  0.00  0.00    +0.000 A 
ATOM     16  C   UNL     1       9.278  10.178  19.668  0.00  0.00    +0.000 A 
ATOM     17  C   UNL     1       9.584  11.181  20.589  0.00  0.00    +0.000 A 
ATOM     18  C   UNL     1       9.520  12.513  20.197  0.00  0.00    +0.000 A 
ATOM     19 CL   UNL     1       9.882  13.756  21.332  0.00  0.00    +0.000 Cl
ATOM     20  C   UNL     1       9.169  12.848  18.890  0.00  0.00    +0.000 A 
ATOM     21  C   UNL     1       8.872  11.837  17.968  0.00  0.00    +0.000 A 
ENDBRANCH  13  15
ENDBRANCH   2  13
TORSDOF 4
ENDMDL
MODEL 4
REMARK VINA RESULT:      -6.7      4.134      7.773
REMARK  Name = 
REMARK  5 active torsions:
REMARK  status: ('A' for Active; 'I' for Inactive)
REMARK    1  A    between atoms: C_1  and  C_2
REMARK    2  A    between atoms: C_4  and  O_5
REMARK    3  A    between atoms: C_6  and  C_7
REMARK    4  A    between atoms: N_8  and  N_9
REMARK    5  A    between atoms: N_9  and  C_10
REMARK                            x       y       z     vdW  Elec       q    Type
REMARK                         _______ _______ _______ _____ _____    ______ ____
ROOT
ATOM      1  C   UNL     1       7.743   7.394  17.516  0.00  0.00    +0.000 C 
ATOM      2  N   UNL     1       7.598   8.647  17.803  0.00  0.00    +0.000 NA
ENDROOT
BRANCH   1   7
ATOM      3  C   UNL     1       3.867   3.395  18.996  0.00  0.00    +0.000 C 
ATOM      4  C   UNL     1       4.835   4.429  18.521  0.00  0.00    +0.000 A 
ATOM      5  C   UNL     1       4.646   5.197  17.443  0.00  0.00    +0.000 A 
ATOM      6  C   UNL     1       5.636   6.179  17.095  0.00  0.00    +0.000 A 
ATOM      7  C   UNL     1       6.734   6.357  17.851  0.00  0.00    +0.000 A 
ATOM      8  C   UNL     1       6.977   5.462  18.998  0.00  0.00    +0.000 A 
ATOM      9  O   UNL     1       8.013   5.532  19.654  0.00  0.00    +0.000 OA
ATOM     10  O   UNL     1       6.005   4.545  19.305  0.00  0.00    +0.000 OA
BRANCH   6  11
ATOM     11  O   UNL     1       5.388   6.897  15.948  0.00  0.00    +0.000 OA
ATOM     12  H   UNL     1       4.570   6.594  15.521  0.00  0.00    +0.000 HD
ENDBRANCH   6  11
ENDBRANCH   1   7
BRANCH   2  13
ATOM     13  N   UNL     1       8.604   9.478  17.408  0.00  0.00    +0.000 N 
ATOM     14  H   UNL     1       8.578   9.822  16.449  0.00  0.00    +0.000 HD
BRANCH  13  15
ATOM     15  C   UNL     1       8.943  10.486  18.343  0.00  0.00    +0.000 A 
ATOM     16  C   UNL     1       8.918  11.844  17.983  0.00  0.00    +0.000 A 
ATOM     17  C   UNL     1       9.229  12.842  18.908  0.00  0.00    +0.000 A 
ATOM     18  C   UNL     1       9.561  12.489  20.211  0.00  0.00    +0.000 A 
ATOM     19 CL   UNL     1       9.959  13.713  21.353  0.00  0.00    +0.000 Cl
ATOM     20  C   UNL     1       9.567  11.150  20.599  0.00  0.00    +0.000 A 
ATOM     21  C   UNL     1       9.244  10.154  19.670  0.00  0.00    +0.000 A 
ENDBRANCH  13  15
ENDBRANCH   2  13
TORSDOF 4
ENDMDL
MODEL 5
REMARK VINA RESULT:      -6.6      6.778      7.675
REMARK  Name = 
REMARK  5 active torsions:
REMARK  status: ('A' for Active; 'I' for Inactive)
REMARK    1  A    between atoms: C_1  and  C_2
REMARK    2  A    between atoms: C_4  and  O_5
REMARK    3  A    between atoms: C_6  and  C_7
REMARK    4  A    between atoms: N_8  and  N_9
REMARK    5  A    between atoms: N_9  and  C_10
REMARK                            x       y       z     vdW  Elec       q    Type
REMARK                         _______ _______ _______ _____ _____    ______ ____
ROOT
ATOM      1  C   UNL     1       1.357   9.043  21.371  0.00  0.00    +0.000 C 
ATOM      2  N   UNL     1       1.379   8.304  20.309  0.00  0.00    +0.000 NA
ENDROOT
BRANCH   1   7
ATOM      3  C   UNL     1      -2.715  12.919  22.639  0.00  0.00    +0.000 C 
ATOM      4  C   UNL     1      -1.695  11.910  22.218  0.00  0.00    +0.000 A 
ATOM      5  C   UNL     1      -1.326  11.698  20.950  0.00  0.00    +0.000 A 
ATOM      6  C   UNL     1      -0.315  10.718  20.667  0.00  0.00    +0.000 A 
ATOM      7  C   UNL     1       0.286  10.032  21.656  0.00  0.00    +0.000 A 
ATOM      8  C   UNL     1      -0.171  10.215  23.046  0.00  0.00    +0.000 A 
ATOM      9  O   UNL     1       0.287   9.538  23.963  0.00  0.00    +0.000 OA
ATOM     10  O   UNL     1      -1.130  11.167  23.279  0.00  0.00    +0.000 OA
BRANCH   6  11
ATOM     11  O   UNL     1      -0.023  10.528  19.335  0.00  0.00    +0.000 OA
ATOM     12  H   UNL     1      -0.031  11.373  18.857  0.00  0.00    +0.000 HD
ENDBRANCH   6  11
ENDBRANCH   1   7
BRANCH   2  13
ATOM     13  N   UNL     1       2.418   7.428  20.204  0.00  0.00    +0.000 N 
ATOM     14  H   UNL     1       3.114   7.434  20.949  0.00  0.00    +0.000 HD
BRANCH  13  15
ATOM     15  C   UNL     1       2.054   6.119  19.805  0.00  0.00    +0.000 A 
ATOM     16  C   UNL     1       2.248   5.685  18.483  0.00  0.00    +0.000 A 
ATOM     17  C   UNL     1       1.912   4.388  18.092  0.00  0.00    +0.000 A 
ATOM     18  C   UNL     1       1.385   3.505  19.028  0.00  0.00    +0.000 A 
ATOM     19 CL   UNL     1       0.955   1.909  18.549  0.00  0.00    +0.000 Cl
ATOM     20  C   UNL     1       1.207   3.905  20.351  0.00  0.00    +0.000 A 
ATOM     21  C   UNL     1       1.555   5.203  20.741  0.00  0.00    +0.000 A 
ENDBRANCH  13  15
ENDBRANCH   2  13
TORSDOF 4
ENDMDL
MODEL 6
REMARK VINA RESULT:      -6.6      6.940      8.135
REMARK  Name = 
REMARK  5 active torsions:
REMARK  status: ('A' for Active; 'I' for Inactive)
REMARK    1  A    between atoms: C_1  and  C_2
REMARK    2  A    between atoms: C_4  and  O_5
REMARK    3  A    between atoms: C_6  and  C_7
REMARK    4  A    between atoms: N_8  and  N_9
REMARK    5  A    between atoms: N_9  and  C_10
REMARK                            x       y       z     vdW  Elec       q    Type
REMARK                         _______ _______ _______ _____ _____    ______ ____
ROOT
ATOM      1  C   UNL     1       1.164   9.492  21.025  0.00  0.00    +0.000 C 
ATOM      2  N   UNL     1       1.090   8.202  20.964  0.00  0.00    +0.000 NA
ENDROOT
BRANCH   1   7
ATOM      3  C   UNL     1      -3.288  12.817  22.554  0.00  0.00    +0.000 C 
ATOM      4  C   UNL     1      -2.105  11.955  22.252  0.00  0.00    +0.000 A 
ATOM      5  C   UNL     1      -1.476  11.199  23.158  0.00  0.00    +0.000 A 
ATOM      6  C   UNL     1      -0.363  10.388  22.746  0.00  0.00    +0.000 A 
ATOM      7  C   UNL     1       0.037  10.355  21.462  0.00  0.00    +0.000 A 
ATOM      8  C   UNL     1      -0.612  11.242  20.478  0.00  0.00    +0.000 A 
ATOM      9  O   UNL     1      -0.213  11.310  19.318  0.00  0.00    +0.000 OA
ATOM     10  O   UNL     1      -1.677  11.993  20.906  0.00  0.00    +0.000 OA
BRANCH   6  11
ATOM     11  O   UNL     1       0.258   9.674  23.745  0.00  0.00    +0.000 OA
ATOM     12  H   UNL     1       0.433   8.763  23.460  0.00  0.00    +0.000 HD
ENDBRANCH   6  11
ENDBRANCH   1   7
BRANCH   2  13
ATOM     13  N   UNL     1       2.218   7.550  20.565  0.00  0.00    +0.000 N 
ATOM     14  H   UNL     1       3.028   7.592  21.184  0.00  0.00    +0.000 HD
BRANCH  13  15
ATOM     15  C   UNL     1       2.001   6.256  20.035  0.00  0.00    +0.000 A 
ATOM     16  C   UNL     1       2.365   5.944  18.714  0.00  0.00    +0.000 A 
ATOM     17  C   UNL     1       2.174   4.663  18.195  0.00  0.00    +0.000 A 
ATOM     18  C   UNL     1       1.622   3.673  19.000  0.00  0.00    +0.000 A 
ATOM     19 CL   UNL     1       1.370   2.095  18.362  0.00  0.00    +0.000 Cl
ATOM     20  C   UNL     1       1.277   3.951  20.322  0.00  0.00    +0.000 A 
ATOM     21  C   UNL     1       1.480   5.235  20.841  0.00  0.00    +0.000 A 
ENDBRANCH  13  15
ENDBRANCH   2  13
TORSDOF 4
ENDMDL
MODEL 7
REMARK VINA RESULT:      -6.5      5.253      7.049
REMARK  Name = 
REMARK  5 active torsions:
REMARK  status: ('A' for Active; 'I' for Inactive)
REMARK    1  A    between atoms: C_1  and  C_2
REMARK    2  A    between atoms: C_4  and  O_5
REMARK    3  A    between atoms: C_6  and  C_7
REMARK    4  A    between atoms: N_8  and  N_9
REMARK    5  A    between atoms: N_9  and  C_10
REMARK                            x       y       z     vdW  Elec       q    Type
REMARK                         _______ _______ _______ _____ _____    ______ ____
ROOT
ATOM      1  C   UNL     1       2.453   6.534  18.300  0.00  0.00    +0.000 C 
ATOM      2  N   UNL     1       2.270   7.307  19.321  0.00  0.00    +0.000 NA
ENDROOT
BRANCH   1   7
ATOM      3  C   UNL     1       3.955   0.977  18.576  0.00  0.00    +0.000 C 
ATOM      4  C   UNL     1       3.618   2.433  18.587  0.00  0.00    +0.000 A 
ATOM      5  C   UNL     1       4.343   3.367  19.211  0.00  0.00    +0.000 A 
ATOM      6  C   UNL     1       3.936   4.743  19.131  0.00  0.00    +0.000 A 
ATOM      7  C   UNL     1       2.857   5.109  18.416  0.00  0.00    +0.000 A 
ATOM      8  C   UNL     1       2.019   4.072  17.786  0.00  0.00    +0.000 A 
ATOM      9  O   UNL     1       0.976   4.359  17.205  0.00  0.00    +0.000 OA
ATOM     10  O   UNL     1       2.445   2.771  17.875  0.00  0.00    +0.000 OA
BRANCH   6  11
ATOM     11  O   UNL     1       4.708   5.637  19.838  0.00  0.00    +0.000 OA
ATOM     12  H   UNL     1       5.196   6.222  19.236  0.00  0.00    +0.000 HD
ENDBRANCH   6  11
ENDBRANCH   1   7
BRANCH   2  13
ATOM     13  N   UNL     1       1.878   8.583  19.050  0.00  0.00    +0.000 N 
ATOM     14  H   UNL     1       1.558   8.785  18.103  0.00  0.00    +0.000 HD
BRANCH  13  15
ATOM     15  C   UNL     1       1.060   9.177  20.042  0.00  0.00    +0.000 A 
ATOM     16  C   UNL     1       0.883   8.568  21.295  0.00  0.00    +0.000 A 
ATOM     17  C   UNL     1       0.097   9.161  22.283  0.00  0.00    +0.000 A 
ATOM     18  C   UNL     1      -0.517  10.382  22.029  0.00  0.00    +0.000 A 
ATOM     19 CL   UNL     1      -1.500  11.114  23.238  0.00  0.00    +0.000 Cl
ATOM     20  C   UNL     1      -0.335  11.020  20.802  0.00  0.00    +0.000 A 
ATOM     21  C   UNL     1       0.463  10.425  19.818  0.00  0.00    +0.000 A 
ENDBRANCH  13  15
ENDBRANCH   2  13
TORSDOF 4
ENDMDL
MODEL 8
REMARK VINA RESULT:      -6.5      5.244      7.129
REMARK  Name = 
REMARK  5 active torsions:
REMARK  status: ('A' for Active; 'I' for Inactive)
REMARK    1  A    between atoms: C_1  and  C_2
REMARK    2  A    between atoms: C_4  and  O_5
REMARK    3  A    between atoms: C_6  and  C_7
REMARK    4  A    between atoms: N_8  and  N_9
REMARK    5  A    between atoms: N_9  and  C_10
REMARK                            x       y       z     vdW  Elec       q    Type
REMARK                         _______ _______ _______ _____ _____    ______ ____
ROOT
ATOM      1  C   UNL     1       2.429   6.517  18.282  0.00  0.00    +0.000 C 
ATOM      2  N   UNL     1       2.276   7.307  19.295  0.00  0.00    +0.000 NA
ENDROOT
BRANCH   1   7
ATOM      3  C   UNL     1       3.969   0.972  18.605  0.00  0.00    +0.000 C 
ATOM      4  C   UNL     1       3.621   2.426  18.604  0.00  0.00    +0.000 A 
ATOM      5  C   UNL     1       4.335   3.370  19.227  0.00  0.00    +0.000 A 
ATOM      6  C   UNL     1       3.919   4.742  19.135  0.00  0.00    +0.000 A 
ATOM      7  C   UNL     1       2.842   5.096  18.410  0.00  0.00    +0.000 A 
ATOM      8  C   UNL     1       2.016   4.048  17.782  0.00  0.00    +0.000 A 
ATOM      9  O   UNL     1       0.974   4.324  17.193  0.00  0.00    +0.000 OA
ATOM     10  O   UNL     1       2.451   2.751  17.883  0.00  0.00    +0.000 OA
BRANCH   6  11
ATOM     11  O   UNL     1       4.681   5.646  19.840  0.00  0.00    +0.000 OA
ATOM     12  H   UNL     1       4.121   6.201  20.407  0.00  0.00    +0.000 HD
ENDBRANCH   6  11
ENDBRANCH   1   7
BRANCH   2  13
ATOM     13  N   UNL     1       1.871   8.577  19.014  0.00  0.00    +0.000 N 
ATOM     14  H   UNL     1       1.515   8.759  18.075  0.00  0.00    +0.000 HD
BRANCH  13  15
ATOM     15  C   UNL     1       1.089   9.189  20.024  0.00  0.00    +0.000 A 
ATOM     16  C   UNL     1       0.493  10.444  19.817  0.00  0.00    +0.000 A 
ATOM     17  C   UNL     1      -0.297  11.039  20.802  0.00  0.00    +0.000 A 
ATOM     18  C   UNL     1      -0.507  10.376  22.005  0.00  0.00    +0.000 A 
ATOM     19 CL   UNL     1      -1.469  11.110  23.230  0.00  0.00    +0.000 Cl
ATOM     20  C   UNL     1       0.052   9.118  22.223  0.00  0.00    +0.000 A 
ATOM     21  C   UNL     1       0.836   8.521  21.229  0.00  0.00    +0.000 A 
ENDBRANCH  13  15
ENDBRANCH   2  13
TORSDOF 4
ENDMDL
MODEL 9
REMARK VINA RESULT:      -6.5      6.880      7.762
REMARK  Name = 
REMARK  5 active torsions:
REMARK  status: ('A' for Active; 'I' for Inactive)
REMARK    1  A    between atoms: C_1  and  C_2
REMARK    2  A    between atoms: C_4  and  O_5
REMARK    3  A    between atoms: C_6  and  C_7
REMARK    4  A    between atoms: N_8  and  N_9
REMARK    5  A    between atoms: N_9  and  C_10
REMARK                            x       y       z     vdW  Elec       q    Type
REMARK                         _______ _______ _______ _____ _____    ______ ____
ROOT
ATOM      1  C   UNL     1       1.308   9.267  21.309  0.00  0.00    +0.000 C 
ATOM      2  N   UNL     1       1.183   8.207  20.578  0.00  0.00    +0.000 NA
ENDROOT
BRANCH   1   7
ATOM      3  C   UNL     1      -2.971  12.901  22.615  0.00  0.00    +0.000 C 
ATOM      4  C   UNL     1      -1.896  11.956  22.184  0.00  0.00    +0.000 A 
ATOM      5  C   UNL     1      -1.491  11.806  20.918  0.00  0.00    +0.000 A 
ATOM      6  C   UNL     1      -0.428  10.885  20.624  0.00  0.00    +0.000 A 
ATOM      7  C   UNL     1       0.185  10.194  21.603  0.00  0.00    +0.000 A 
ATOM      8  C   UNL     1      -0.310  10.307  22.988  0.00  0.00    +0.000 A 
ATOM      9  O   UNL     1       0.161   9.621  23.892  0.00  0.00    +0.000 OA
ATOM     10  O   UNL     1      -1.318  11.204  23.231  0.00  0.00    +0.000 OA
BRANCH   6  11
ATOM     11  O   UNL     1      -0.100  10.756  19.294  0.00  0.00    +0.000 OA
ATOM     12  H   UNL     1       0.832  10.501  19.191  0.00  0.00    +0.000 HD
ENDBRANCH   6  11
ENDBRANCH   1   7
BRANCH   2  13
ATOM     13  N   UNL     1       2.303   7.447  20.421  0.00  0.00    +0.000 N 
ATOM     14  H   UNL     1       3.004   7.485  21.160  0.00  0.00    +0.000 HD
BRANCH  13  15
ATOM     15  C   UNL     1       2.066   6.129  19.958  0.00  0.00    +0.000 A 
ATOM     16  C   UNL     1       1.514   5.154  20.804  0.00  0.00    +0.000 A 
ATOM     17  C   UNL     1       1.258   3.861  20.346  0.00  0.00    +0.000 A 
ATOM     18  C   UNL     1       1.545   3.533  19.026  0.00  0.00    +0.000 A 
ATOM     19 CL   UNL     1       1.245   1.936  18.457  0.00  0.00    +0.000 Cl
ATOM     20  C   UNL     1       2.069   4.492  18.159  0.00  0.00    +0.000 A 
ATOM     21  C   UNL     1       2.314   5.790  18.622  0.00  0.00    +0.000 A 
ENDBRANCH  13  15
ENDBRANCH   2  13
TORSDOF 4
ENDMDL
