MODEL 1
REMARK VINA RESULT:      -8.3      0.000      0.000
REMARK  Name = 
REMARK  11 active torsions:
REMARK  status: ('A' for Active; 'I' for Inactive)
REMARK    1  A    between atoms: C_1  and  C_2
REMARK    2  A    between atoms: C_2  and  C_3
REMARK    3  A    between atoms: C_2  and  C_4
REMARK    4  A    between atoms: C_2  and  O_5
REMARK    5  A    between atoms: O_5  and  C_6
REMARK    6  A    between atoms: N_8  and  C_9
REMARK    7  A    between atoms: C_9  and  C_10
REMARK    8  A    between atoms: C_9  and  C_17
REMARK    9  A    between atoms: C_10  and  C_11
REMARK   10  A    between atoms: C_17  and  O_19
REMARK   11  A    between atoms: O_19  and  C_20
REMARK                            x       y       z     vdW  Elec       q    Type
REMARK                         _______ _______ _______ _____ _____    ______ ____
ROOT
ATOM      1  C   UNL     1       2.586   7.141  18.516  0.00  0.00    +0.000 C 
ENDROOT
BRANCH   1   4
ATOM      2  C   UNL     1       4.494   6.107  17.343  0.00  0.00    +0.000 C 
ATOM      3  O   UNL     1       3.847   5.122  17.026  0.00  0.00    +0.000 OA
ATOM      4  N   UNL     1       3.975   7.141  18.061  0.00  0.00    +0.000 N 
ATOM      5  H   UNL     1       4.560   7.958  18.202  0.00  0.00    +0.000 HD
BRANCH   2   6
ATOM      6  O   UNL     1       5.800   6.325  17.077  0.00  0.00    +0.000 OA
BRANCH   6   8
ATOM      7  C   UNL     1       7.548   4.589  17.247  0.00  0.00    +0.000 C 
ATOM      8  C   UNL     1       6.810   5.740  17.945  0.00  0.00    +0.000 C 
ATOM      9  C   UNL     1       6.211   5.297  19.289  0.00  0.00    +0.000 C 
ATOM     10  C   UNL     1       7.823   6.863  18.220  0.00  0.00    +0.000 C 
ENDBRANCH   6   8
ENDBRANCH   2   6
ENDBRANCH   1   4
BRANCH   1  11
ATOM     11  C   UNL     1       1.934   8.508  18.257  0.00  0.00    +0.000 C 
ATOM     12  O   UNL     1       2.068   9.175  17.237  0.00  0.00    +0.000 OA
BRANCH  11  13
ATOM     13  O   UNL     1       1.061   8.791  19.309  0.00  0.00    +0.000 OA
BRANCH  13  14
ATOM     14  C   UNL     1       0.334   9.970  19.484  0.00  0.00    +0.000 A 
ATOM     15  C   UNL     1       0.539  10.613  20.711  0.00  0.00    +0.000 A 
ATOM     16  C   UNL     1      -0.271  11.698  21.090  0.00  0.00    +0.000 A 
ATOM     17  C   UNL     1      -1.283  12.157  20.241  0.00  0.00    +0.000 A 
ATOM     18  C   UNL     1      -1.431  11.528  19.022  0.00  0.00    +0.000 A 
ATOM     19  O   UNL     1      -2.370  11.850  18.056  0.00  0.00    +0.000 OA
ATOM     20  C   UNL     1      -2.088  10.921  17.044  0.00  0.00    +0.000 A 
ATOM     21  O   UNL     1      -2.692  10.872  15.985  0.00  0.00    +0.000 OA
ATOM     22  N   UNL     1      -1.059  10.095  17.409  0.00  0.00    +0.000 N 
ATOM     23  C   UNL     1      -0.636  10.466  18.652  0.00  0.00    +0.000 A 
ATOM     24  H   UNL     1      -0.665   9.358  16.833  0.00  0.00    +0.000 HD
ENDBRANCH  13  14
ENDBRANCH  11  13
ENDBRANCH   1  11
BRANCH   1  25
ATOM     25  C   UNL     1       2.400   6.653  19.977  0.00  0.00    +0.000 C 
BRANCH  25  26
ATOM     26  C   UNL     1       1.979   5.204  20.060  0.00  0.00    +0.000 A 
ATOM     27  C   UNL     1       2.206   4.448  21.219  0.00  0.00    +0.000 A 
ATOM     28  C   UNL     1       1.981   3.074  21.220  0.00  0.00    +0.000 A 
ATOM     29  C   UNL     1       1.493   2.448  20.075  0.00  0.00    +0.000 A 
ATOM     30  C   UNL     1       1.200   3.202  18.941  0.00  0.00    +0.000 A 
ATOM     31  C   UNL     1       1.434   4.574  18.936  0.00  0.00    +0.000 A 
ENDBRANCH  25  26
ENDBRANCH   1  25
TORSDOF 8
ENDMDL
MODEL 2
REMARK VINA RESULT:      -8.0      1.402      3.905
REMARK  Name = 
REMARK  11 active torsions:
REMARK  status: ('A' for Active; 'I' for Inactive)
REMARK    1  A    between atoms: C_1  and  C_2
REMARK    2  A    between atoms: C_2  and  C_3
REMARK    3  A    between atoms: C_2  and  C_4
REMARK    4  A    between atoms: C_2  and  O_5
REMARK    5  A    between atoms: O_5  and  C_6
REMARK    6  A    between atoms: N_8  and  C_9
REMARK    7  A    between atoms: C_9  and  C_10
REMARK    8  A    between atoms: C_9  and  C_17
REMARK    9  A    between atoms: C_10  and  C_11
REMARK   10  A    between atoms: C_17  and  O_19
REMARK   11  A    between atoms: O_19  and  C_20
REMARK                            x       y       z     vdW  Elec       q    Type
REMARK                         _______ _______ _______ _____ _____    ______ ____
ROOT
ATOM      1  C   UNL     1       3.197   7.456  17.983  0.00  0.00    +0.000 C 
ENDROOT
BRANCH   1   4
ATOM      2  C   UNL     1       2.830   5.354  19.222  0.00  0.00    +0.000 C 
ATOM      3  O   UNL     1       3.916   5.416  19.775  0.00  0.00    +0.000 OA
ATOM      4  N   UNL     1       2.387   6.293  18.340  0.00  0.00    +0.000 N 
ATOM      5  H   UNL     1       1.436   6.207  17.997  0.00  0.00    +0.000 HD
BRANCH   2   6
ATOM      6  O   UNL     1       1.921   4.364  19.355  0.00  0.00    +0.000 OA
BRANCH   6   8
ATOM      7  C   UNL     1       3.229   2.277  19.515  0.00  0.00    +0.000 C 
ATOM      8  C   UNL     1       2.177   3.075  18.733  0.00  0.00    +0.000 C 
ATOM      9  C   UNL     1       2.565   3.229  17.255  0.00  0.00    +0.000 C 
ATOM     10  C   UNL     1       0.846   2.309  18.801  0.00  0.00    +0.000 C 
ENDBRANCH   6   8
ENDBRANCH   2   6
ENDBRANCH   1   4
BRANCH   1  11
ATOM     11  C   UNL     1       2.365   8.743  18.081  0.00  0.00    +0.000 C 
ATOM     12  O   UNL     1       2.345   9.639  17.244  0.00  0.00    +0.000 OA
BRANCH  11  13
ATOM     13  O   UNL     1       1.538   8.655  19.202  0.00  0.00    +0.000 OA
BRANCH  13  14
ATOM     14  C   UNL     1       0.726   9.670  19.711  0.00  0.00    +0.000 A 
ATOM     15  C   UNL     1       0.905   9.943  21.072  0.00  0.00    +0.000 A 
ATOM     16  C   UNL     1       0.021  10.803  21.749  0.00  0.00    +0.000 A 
ATOM     17  C   UNL     1      -1.041  11.406  21.067  0.00  0.00    +0.000 A 
ATOM     18  C   UNL     1      -1.164  11.147  19.717  0.00  0.00    +0.000 A 
ATOM     19  O   UNL     1      -2.145  11.660  18.885  0.00  0.00    +0.000 OA
ATOM     20  C   UNL     1      -1.812  11.091  17.646  0.00  0.00    +0.000 A 
ATOM     21  O   UNL     1      -2.432  11.304  16.617  0.00  0.00    +0.000 OA
ATOM     22  N   UNL     1      -0.714  10.280  17.758  0.00  0.00    +0.000 N 
ATOM     23  C   UNL     1      -0.297  10.306  19.057  0.00  0.00    +0.000 A 
ATOM     24  H   UNL     1      -0.276   9.776  16.993  0.00  0.00    +0.000 HD
ENDBRANCH  13  14
ENDBRANCH  11  13
ENDBRANCH   1  11
BRANCH   1  25
ATOM     25  C   UNL     1       3.935   7.318  16.624  0.00  0.00    +0.000 C 
BRANCH  25  26
ATOM     26  C   UNL     1       5.172   6.455  16.715  0.00  0.00    +0.000 A 
ATOM     27  C   UNL     1       5.225   5.197  16.099  0.00  0.00    +0.000 A 
ATOM     28  C   UNL     1       6.295   4.339  16.341  0.00  0.00    +0.000 A 
ATOM     29  C   UNL     1       7.337   4.743  17.171  0.00  0.00    +0.000 A 
ATOM     30  C   UNL     1       7.326   6.017  17.734  0.00  0.00    +0.000 A 
ATOM     31  C   UNL     1       6.252   6.872  17.501  0.00  0.00    +0.000 A 
ENDBRANCH  25  26
ENDBRANCH   1  25
TORSDOF 8
ENDMDL
MODEL 3
REMARK VINA RESULT:      -8.0      1.505      4.272
REMARK  Name = 
REMARK  11 active torsions:
REMARK  status: ('A' for Active; 'I' for Inactive)
REMARK    1  A    between atoms: C_1  and  C_2
REMARK    2  A    between atoms: C_2  and  C_3
REMARK    3  A    between atoms: C_2  and  C_4
REMARK    4  A    between atoms: C_2  and  O_5
REMARK    5  A    between atoms: O_5  and  C_6
REMARK    6  A    between atoms: N_8  and  C_9
REMARK    7  A    between atoms: C_9  and  C_10
REMARK    8  A    between atoms: C_9  and  C_17
REMARK    9  A    between atoms: C_10  and  C_11
REMARK   10  A    between atoms: C_17  and  O_19
REMARK   11  A    between atoms: O_19  and  C_20
REMARK                            x       y       z     vdW  Elec       q    Type
REMARK                         _______ _______ _______ _____ _____    ______ ____
ROOT
ATOM      1  C   UNL     1       3.482   7.192  17.979  0.00  0.00    +0.000 C 
ENDROOT
BRANCH   1   4
ATOM      2  C   UNL     1       3.340   4.957  19.015  0.00  0.00    +0.000 C 
ATOM      3  O   UNL     1       4.248   5.192  19.796  0.00  0.00    +0.000 OA
ATOM      4  N   UNL     1       2.892   5.860  18.098  0.00  0.00    +0.000 N 
ATOM      5  H   UNL     1       2.075   5.611  17.551  0.00  0.00    +0.000 HD
BRANCH   2   6
ATOM      6  O   UNL     1       2.663   3.794  18.902  0.00  0.00    +0.000 OA
BRANCH   6   8
ATOM      7  C   UNL     1       2.544   2.721  21.121  0.00  0.00    +0.000 C 
ATOM      8  C   UNL     1       1.770   3.383  19.974  0.00  0.00    +0.000 C 
ATOM      9  C   UNL     1       0.642   2.479  19.454  0.00  0.00    +0.000 C 
ATOM     10  C   UNL     1       1.138   4.679  20.507  0.00  0.00    +0.000 C 
ENDBRANCH   6   8
ENDBRANCH   2   6
ENDBRANCH   1   4
BRANCH   1  11
ATOM     11  C   UNL     1       2.411   8.276  18.176  0.00  0.00    +0.000 C 
ATOM     12  O   UNL     1       2.170   9.185  17.390  0.00  0.00    +0.000 OA
BRANCH  11  13
ATOM     13  O   UNL     1       1.673   7.969  19.321  0.00  0.00    +0.000 OA
BRANCH  13  14
ATOM     14  C   UNL     1       1.078   8.886  20.189  0.00  0.00    +0.000 A 
ATOM     15  C   UNL     1       1.313   8.651  21.549  0.00  0.00    +0.000 A 
ATOM     16  C   UNL     1       0.618   9.381  22.529  0.00  0.00    +0.000 A 
ATOM     17  C   UNL     1      -0.309  10.360  22.158  0.00  0.00    +0.000 A 
ATOM     18  C   UNL     1      -0.487  10.595  20.810  0.00  0.00    +0.000 A 
ATOM     19  O   UNL     1      -1.352  11.527  20.261  0.00  0.00    +0.000 OA
ATOM     20  C   UNL     1      -1.143  11.354  18.885  0.00  0.00    +0.000 A 
ATOM     21  O   UNL     1      -1.714  12.008  18.027  0.00  0.00    +0.000 OA
ATOM     22  N   UNL     1      -0.225  10.366  18.649  0.00  0.00    +0.000 N 
ATOM     23  C   UNL     1       0.196   9.880  19.852  0.00  0.00    +0.000 A 
ATOM     24  H   UNL     1       0.103  10.076  17.733  0.00  0.00    +0.000 HD
ENDBRANCH  13  14
ENDBRANCH  11  13
ENDBRANCH   1  11
BRANCH   1  25
ATOM     25  C   UNL     1       4.317   7.399  16.687  0.00  0.00    +0.000 C 
BRANCH  25  26
ATOM     26  C   UNL     1       5.485   6.447  16.586  0.00  0.00    +0.000 A 
ATOM     27  C   UNL     1       5.545   5.477  15.575  0.00  0.00    +0.000 A 
ATOM     28  C   UNL     1       6.530   4.492  15.600  0.00  0.00    +0.000 A 
ATOM     29  C   UNL     1       7.483   4.488  16.615  0.00  0.00    +0.000 A 
ATOM     30  C   UNL     1       7.472   5.487  17.586  0.00  0.00    +0.000 A 
ATOM     31  C   UNL     1       6.482   6.466  17.567  0.00  0.00    +0.000 A 
ENDBRANCH  25  26
ENDBRANCH   1  25
TORSDOF 8
ENDMDL
MODEL 4
REMARK VINA RESULT:      -7.9      0.645      1.109
REMARK  Name = 
REMARK  11 active torsions:
REMARK  status: ('A' for Active; 'I' for Inactive)
REMARK    1  A    between atoms: C_1  and  C_2
REMARK    2  A    between atoms: C_2  and  C_3
REMARK    3  A    between atoms: C_2  and  C_4
REMARK    4  A    between atoms: C_2  and  O_5
REMARK    5  A    between atoms: O_5  and  C_6
REMARK    6  A    between atoms: N_8  and  C_9
REMARK    7  A    between atoms: C_9  and  C_10
REMARK    8  A    between atoms: C_9  and  C_17
REMARK    9  A    between atoms: C_10  and  C_11
REMARK   10  A    between atoms: C_17  and  O_19
REMARK   11  A    between atoms: O_19  and  C_20
REMARK                            x       y       z     vdW  Elec       q    Type
REMARK                         _______ _______ _______ _____ _____    ______ ____
ROOT
ATOM      1  C   UNL     1       2.689   7.477  18.185  0.00  0.00    +0.000 C 
ENDROOT
BRANCH   1   4
ATOM      2  C   UNL     1       4.718   6.437  17.243  0.00  0.00    +0.000 C 
ATOM      3  O   UNL     1       4.092   5.512  16.752  0.00  0.00    +0.000 OA
ATOM      4  N   UNL     1       4.131   7.441  17.953  0.00  0.00    +0.000 N 
ATOM      5  H   UNL     1       4.717   8.214  18.248  0.00  0.00    +0.000 HD
BRANCH   2   6
ATOM      6  O   UNL     1       6.057   6.608  17.202  0.00  0.00    +0.000 OA
BRANCH   6   8
ATOM      7  C   UNL     1       7.541   4.637  17.305  0.00  0.00    +0.000 C 
ATOM      8  C   UNL     1       6.904   5.804  18.070  0.00  0.00    +0.000 C 
ATOM      9  C   UNL     1       6.140   5.319  19.311  0.00  0.00    +0.000 C 
ATOM     10  C   UNL     1       8.028   6.743  18.537  0.00  0.00    +0.000 C 
ENDBRANCH   6   8
ENDBRANCH   2   6
ENDBRANCH   1   4
BRANCH   1  11
ATOM     11  C   UNL     1       2.122   8.863  17.837  0.00  0.00    +0.000 C 
ATOM     12  O   UNL     1       2.754   9.778  17.322  0.00  0.00    +0.000 OA
BRANCH  11  13
ATOM     13  O   UNL     1       0.746   8.852  18.073  0.00  0.00    +0.000 OA
BRANCH  13  14
ATOM     14  C   UNL     1      -0.016   9.917  18.559  0.00  0.00    +0.000 A 
ATOM     15  C   UNL     1       0.345  10.367  19.835  0.00  0.00    +0.000 A 
ATOM     16  C   UNL     1      -0.458  11.299  20.515  0.00  0.00    +0.000 A 
ATOM     17  C   UNL     1      -1.623  11.796  19.922  0.00  0.00    +0.000 A 
ATOM     18  C   UNL     1      -1.928  11.362  18.648  0.00  0.00    +0.000 A 
ATOM     19  O   UNL     1      -3.031  11.752  17.906  0.00  0.00    +0.000 OA
ATOM     20  C   UNL     1      -2.860  11.029  16.716  0.00  0.00    +0.000 A 
ATOM     21  O   UNL     1      -3.624  11.098  15.768  0.00  0.00    +0.000 OA
ATOM     22  N   UNL     1      -1.734  10.251  16.772  0.00  0.00    +0.000 N 
ATOM     23  C   UNL     1      -1.139  10.451  17.983  0.00  0.00    +0.000 A 
ATOM     24  H   UNL     1      -1.394   9.656  16.023  0.00  0.00    +0.000 HD
ENDBRANCH  13  14
ENDBRANCH  11  13
ENDBRANCH   1  11
BRANCH   1  25
ATOM     25  C   UNL     1       2.263   6.991  19.596  0.00  0.00    +0.000 C 
BRANCH  25  26
ATOM     26  C   UNL     1       2.014   5.502  19.650  0.00  0.00    +0.000 A 
ATOM     27  C   UNL     1       1.658   4.784  18.500  0.00  0.00    +0.000 A 
ATOM     28  C   UNL     1       1.255   3.454  18.595  0.00  0.00    +0.000 A 
ATOM     29  C   UNL     1       1.238   2.819  19.834  0.00  0.00    +0.000 A 
ATOM     30  C   UNL     1       1.655   3.505  20.973  0.00  0.00    +0.000 A 
ATOM     31  C   UNL     1       2.048   4.837  20.881  0.00  0.00    +0.000 A 
ENDBRANCH  25  26
ENDBRANCH   1  25
TORSDOF 8
ENDMDL
MODEL 5
REMARK VINA RESULT:      -7.9      0.821      1.190
REMARK  Name = 
REMARK  11 active torsions:
REMARK  status: ('A' for Active; 'I' for Inactive)
REMARK    1  A    between atoms: C_1  and  C_2
REMARK    2  A    between atoms: C_2  and  C_3
REMARK    3  A    between atoms: C_2  and  C_4
REMARK    4  A    between atoms: C_2  and  O_5
REMARK    5  A    between atoms: O_5  and  C_6
REMARK    6  A    between atoms: N_8  and  C_9
REMARK    7  A    between atoms: C_9  and  C_10
REMARK    8  A    between atoms: C_9  and  C_17
REMARK    9  A    between atoms: C_10  and  C_11
REMARK   10  A    between atoms: C_17  and  O_19
REMARK   11  A    between atoms: O_19  and  C_20
REMARK                            x       y       z     vdW  Elec       q    Type
REMARK                         _______ _______ _______ _____ _____    ______ ____
ROOT
ATOM      1  C   UNL     1       2.368   6.843  18.908  0.00  0.00    +0.000 C 
ENDROOT
BRANCH   1   4
ATOM      2  C   UNL     1       4.233   5.540  17.954  0.00  0.00    +0.000 C 
ATOM      3  O   UNL     1       3.483   4.766  17.381  0.00  0.00    +0.000 OA
ATOM      4  N   UNL     1       3.792   6.580  18.716  0.00  0.00    +0.000 N 
ATOM      5  H   UNL     1       4.486   7.224  19.081  0.00  0.00    +0.000 HD
BRANCH   2   6
ATOM      6  O   UNL     1       5.582   5.486  17.963  0.00  0.00    +0.000 OA
BRANCH   6   8
ATOM      7  C   UNL     1       7.394   6.958  17.163  0.00  0.00    +0.000 C 
ATOM      8  C   UNL     1       6.320   5.929  16.790  0.00  0.00    +0.000 C 
ATOM      9  C   UNL     1       5.378   6.461  15.699  0.00  0.00    +0.000 C 
ATOM     10  C   UNL     1       7.024   4.676  16.245  0.00  0.00    +0.000 C 
ENDBRANCH   6   8
ENDBRANCH   2   6
ENDBRANCH   1   4
BRANCH   1  11
ATOM     11  C   UNL     1       2.029   8.290  18.515  0.00  0.00    +0.000 C 
ATOM     12  O   UNL     1       2.260   8.801  17.425  0.00  0.00    +0.000 OA
BRANCH  11  13
ATOM     13  O   UNL     1       1.293   8.871  19.549  0.00  0.00    +0.000 OA
BRANCH  13  14
ATOM     14  C   UNL     1       0.590  10.076  19.486  0.00  0.00    +0.000 A 
ATOM     15  C   UNL     1       0.829  10.955  20.549  0.00  0.00    +0.000 A 
ATOM     16  C   UNL     1       0.046  12.112  20.706  0.00  0.00    +0.000 A 
ATOM     17  C   UNL     1      -0.975  12.406  19.796  0.00  0.00    +0.000 A 
ATOM     18  C   UNL     1      -1.157  11.539  18.738  0.00  0.00    +0.000 A 
ATOM     19  O   UNL     1      -2.109  11.673  17.740  0.00  0.00    +0.000 OA
ATOM     20  C   UNL     1      -1.863  10.548  16.940  0.00  0.00    +0.000 A 
ATOM     21  O   UNL     1      -2.487  10.293  15.924  0.00  0.00    +0.000 OA
ATOM     22  N   UNL     1      -0.840   9.795  17.453  0.00  0.00    +0.000 N 
ATOM     23  C   UNL     1      -0.388  10.407  18.585  0.00  0.00    +0.000 A 
ATOM     24  H   UNL     1      -0.470   8.946  17.037  0.00  0.00    +0.000 HD
ENDBRANCH  13  14
ENDBRANCH  11  13
ENDBRANCH   1  11
BRANCH   1  25
ATOM     25  C   UNL     1       1.840   6.464  20.317  0.00  0.00    +0.000 C 
BRANCH  25  26
ATOM     26  C   UNL     1       1.687   4.972  20.502  0.00  0.00    +0.000 A 
ATOM     27  C   UNL     1       2.375   4.293  21.517  0.00  0.00    +0.000 A 
ATOM     28  C   UNL     1       2.369   2.900  21.563  0.00  0.00    +0.000 A 
ATOM     29  C   UNL     1       1.647   2.176  20.618  0.00  0.00    +0.000 A 
ATOM     30  C   UNL     1       0.905   2.845  19.647  0.00  0.00    +0.000 A 
ATOM     31  C   UNL     1       0.919   4.236  19.594  0.00  0.00    +0.000 A 
ENDBRANCH  25  26
ENDBRANCH   1  25
TORSDOF 8
ENDMDL
MODEL 6
REMARK VINA RESULT:      -7.9      0.482      1.151
REMARK  Name = 
REMARK  11 active torsions:
REMARK  status: ('A' for Active; 'I' for Inactive)
REMARK    1  A    between atoms: C_1  and  C_2
REMARK    2  A    between atoms: C_2  and  C_3
REMARK    3  A    between atoms: C_2  and  C_4
REMARK    4  A    between atoms: C_2  and  O_5
REMARK    5  A    between atoms: O_5  and  C_6
REMARK    6  A    between atoms: N_8  and  C_9
REMARK    7  A    between atoms: C_9  and  C_10
REMARK    8  A    between atoms: C_9  and  C_17
REMARK    9  A    between atoms: C_10  and  C_11
REMARK   10  A    between atoms: C_17  and  O_19
REMARK   11  A    between atoms: O_19  and  C_20
REMARK                            x       y       z     vdW  Elec       q    Type
REMARK                         _______ _______ _______ _____ _____    ______ ____
ROOT
ATOM      1  C   UNL     1       2.580   7.125  18.540  0.00  0.00    +0.000 C 
ENDROOT
BRANCH   1   4
ATOM      2  C   UNL     1       4.400   5.996  17.315  0.00  0.00    +0.000 C 
ATOM      3  O   UNL     1       3.740   4.984  17.141  0.00  0.00    +0.000 OA
ATOM      4  N   UNL     1       3.928   7.089  17.977  0.00  0.00    +0.000 N 
ATOM      5  H   UNL     1       4.513   7.918  17.996  0.00  0.00    +0.000 HD
BRANCH   2   6
ATOM      6  O   UNL     1       5.678   6.194  16.926  0.00  0.00    +0.000 OA
BRANCH   6   8
ATOM      7  C   UNL     1       6.221   5.326  19.172  0.00  0.00    +0.000 C 
ATOM      8  C   UNL     1       6.760   5.815  17.821  0.00  0.00    +0.000 C 
ATOM      9  C   UNL     1       7.775   6.954  17.994  0.00  0.00    +0.000 C 
ATOM     10  C   UNL     1       7.474   4.639  17.135  0.00  0.00    +0.000 C 
ENDBRANCH   6   8
ENDBRANCH   2   6
ENDBRANCH   1   4
BRANCH   1  11
ATOM     11  C   UNL     1       1.941   8.506  18.323  0.00  0.00    +0.000 C 
ATOM     12  O   UNL     1       2.055   9.188  17.311  0.00  0.00    +0.000 OA
BRANCH  11  13
ATOM     13  O   UNL     1       1.104   8.783  19.405  0.00  0.00    +0.000 OA
BRANCH  13  14
ATOM     14  C   UNL     1       0.364   9.952  19.597  0.00  0.00    +0.000 A 
ATOM     15  C   UNL     1       0.534  10.559  20.847  0.00  0.00    +0.000 A 
ATOM     16  C   UNL     1      -0.292  11.627  21.239  0.00  0.00    +0.000 A 
ATOM     17  C   UNL     1      -1.288  12.104  20.380  0.00  0.00    +0.000 A 
ATOM     18  C   UNL     1      -1.401  11.510  19.140  0.00  0.00    +0.000 A 
ATOM     19  O   UNL     1      -2.319  11.855  18.161  0.00  0.00    +0.000 OA
ATOM     20  C   UNL     1      -2.006  10.958  17.129  0.00  0.00    +0.000 A 
ATOM     21  O   UNL     1      -2.584  10.936  16.055  0.00  0.00    +0.000 OA
ATOM     22  N   UNL     1      -0.979  10.128  17.495  0.00  0.00    +0.000 N 
ATOM     23  C   UNL     1      -0.590  10.465  18.758  0.00  0.00    +0.000 A 
ATOM     24  H   UNL     1      -0.566   9.412  16.906  0.00  0.00    +0.000 HD
ENDBRANCH  13  14
ENDBRANCH  11  13
ENDBRANCH   1  11
BRANCH   1  25
ATOM     25  C   UNL     1       2.499   6.649  20.015  0.00  0.00    +0.000 C 
BRANCH  25  26
ATOM     26  C   UNL     1       2.217   5.170  20.138  0.00  0.00    +0.000 A 
ATOM     27  C   UNL     1       0.919   4.664  19.976  0.00  0.00    +0.000 A 
ATOM     28  C   UNL     1       0.641   3.331  20.270  0.00  0.00    +0.000 A 
ATOM     29  C   UNL     1       1.663   2.484  20.694  0.00  0.00    +0.000 A 
ATOM     30  C   UNL     1       2.968   2.962  20.792  0.00  0.00    +0.000 A 
ATOM     31  C   UNL     1       3.245   4.297  20.508  0.00  0.00    +0.000 A 
ENDBRANCH  25  26
ENDBRANCH   1  25
TORSDOF 8
ENDMDL
MODEL 7
REMARK VINA RESULT:      -7.9      1.564      4.225
REMARK  Name = 
REMARK  11 active torsions:
REMARK  status: ('A' for Active; 'I' for Inactive)
REMARK    1  A    between atoms: C_1  and  C_2
REMARK    2  A    between atoms: C_2  and  C_3
REMARK    3  A    between atoms: C_2  and  C_4
REMARK    4  A    between atoms: C_2  and  O_5
REMARK    5  A    between atoms: O_5  and  C_6
REMARK    6  A    between atoms: N_8  and  C_9
REMARK    7  A    between atoms: C_9  and  C_10
REMARK    8  A    between atoms: C_9  and  C_17
REMARK    9  A    between atoms: C_10  and  C_11
REMARK   10  A    between atoms: C_17  and  O_19
REMARK   11  A    between atoms: O_19  and  C_20
REMARK                            x       y       z     vdW  Elec       q    Type
REMARK                         _______ _______ _______ _____ _____    ______ ____
ROOT
ATOM      1  C   UNL     1       3.492   7.179  18.053  0.00  0.00    +0.000 C 
ENDROOT
BRANCH   1   4
ATOM      2  C   UNL     1       3.305   4.923  19.033  0.00  0.00    +0.000 C 
ATOM      3  O   UNL     1       4.126   5.164  19.903  0.00  0.00    +0.000 OA
ATOM      4  N   UNL     1       2.928   5.832  18.091  0.00  0.00    +0.000 N 
ATOM      5  H   UNL     1       2.175   5.574  17.462  0.00  0.00    +0.000 HD
BRANCH   2   6
ATOM      6  O   UNL     1       2.673   3.746  18.834  0.00  0.00    +0.000 OA
BRANCH   6   8
ATOM      7  C   UNL     1       0.579   2.457  19.044  0.00  0.00    +0.000 C 
ATOM      8  C   UNL     1       1.613   3.345  19.747  0.00  0.00    +0.000 C 
ATOM      9  C   UNL     1       0.956   4.561  20.417  0.00  0.00    +0.000 C 
ATOM     10  C   UNL     1       2.301   2.510  20.839  0.00  0.00    +0.000 C 
ENDBRANCH   6   8
ENDBRANCH   2   6
ENDBRANCH   1   4
BRANCH   1  11
ATOM     11  C   UNL     1       2.381   8.233  18.176  0.00  0.00    +0.000 C 
ATOM     12  O   UNL     1       2.143   9.110  17.353  0.00  0.00    +0.000 OA
BRANCH  11  13
ATOM     13  O   UNL     1       1.610   7.937  19.301  0.00  0.00    +0.000 OA
BRANCH  13  14
ATOM     14  C   UNL     1       1.059   8.863  20.190  0.00  0.00    +0.000 A 
ATOM     15  C   UNL     1       1.294   8.593  21.544  0.00  0.00    +0.000 A 
ATOM     16  C   UNL     1       0.637   9.333  22.542  0.00  0.00    +0.000 A 
ATOM     17  C   UNL     1      -0.252  10.357  22.196  0.00  0.00    +0.000 A 
ATOM     18  C   UNL     1      -0.429  10.623  20.854  0.00  0.00    +0.000 A 
ATOM     19  O   UNL     1      -1.260  11.599  20.328  0.00  0.00    +0.000 OA
ATOM     20  C   UNL     1      -1.068  11.443  18.948  0.00  0.00    +0.000 A 
ATOM     21  O   UNL     1      -1.617  12.135  18.107  0.00  0.00    +0.000 OA
ATOM     22  N   UNL     1      -0.193  10.422  18.687  0.00  0.00    +0.000 N 
ATOM     23  C   UNL     1       0.216   9.897  19.877  0.00  0.00    +0.000 A 
ATOM     24  H   UNL     1       0.116  10.136  17.763  0.00  0.00    +0.000 HD
ENDBRANCH  13  14
ENDBRANCH  11  13
ENDBRANCH   1  11
BRANCH   1  25
ATOM     25  C   UNL     1       4.433   7.435  16.845  0.00  0.00    +0.000 C 
BRANCH  25  26
ATOM     26  C   UNL     1       5.358   6.273  16.568  0.00  0.00    +0.000 A 
ATOM     27  C   UNL     1       6.424   5.974  17.427  0.00  0.00    +0.000 A 
ATOM     28  C   UNL     1       7.373   5.019  17.068  0.00  0.00    +0.000 A 
ATOM     29  C   UNL     1       7.246   4.331  15.864  0.00  0.00    +0.000 A 
ATOM     30  C   UNL     1       6.153   4.573  15.036  0.00  0.00    +0.000 A 
ATOM     31  C   UNL     1       5.209   5.534  15.389  0.00  0.00    +0.000 A 
ENDBRANCH  25  26
ENDBRANCH   1  25
TORSDOF 8
ENDMDL
MODEL 8
REMARK VINA RESULT:      -7.8      1.299      1.457
REMARK  Name = 
REMARK  11 active torsions:
REMARK  status: ('A' for Active; 'I' for Inactive)
REMARK    1  A    between atoms: C_1  and  C_2
REMARK    2  A    between atoms: C_2  and  C_3
REMARK    3  A    between atoms: C_2  and  C_4
REMARK    4  A    between atoms: C_2  and  O_5
REMARK    5  A    between atoms: O_5  and  C_6
REMARK    6  A    between atoms: N_8  and  C_9
REMARK    7  A    between atoms: C_9  and  C_10
REMARK    8  A    between atoms: C_9  and  C_17
REMARK    9  A    between atoms: C_10  and  C_11
REMARK   10  A    between atoms: C_17  and  O_19
REMARK   11  A    between atoms: O_19  and  C_20
REMARK                            x       y       z     vdW  Elec       q    Type
REMARK                         _______ _______ _______ _____ _____    ______ ____
ROOT
ATOM      1  C   UNL     1       2.620   7.001  18.501  0.00  0.00    +0.000 C 
ENDROOT
BRANCH   1   4
ATOM      2  C   UNL     1       4.476   5.962  17.251  0.00  0.00    +0.000 C 
ATOM      3  O   UNL     1       3.818   4.973  16.971  0.00  0.00    +0.000 OA
ATOM      4  N   UNL     1       3.987   7.001  17.985  0.00  0.00    +0.000 N 
ATOM      5  H   UNL     1       4.576   7.820  18.094  0.00  0.00    +0.000 HD
BRANCH   2   6
ATOM      6  O   UNL     1       5.768   6.181  16.925  0.00  0.00    +0.000 OA
BRANCH   6   8
ATOM      7  C   UNL     1       7.638   4.596  17.219  0.00  0.00    +0.000 C 
ATOM      8  C   UNL     1       6.815   5.737  17.832  0.00  0.00    +0.000 C 
ATOM      9  C   UNL     1       6.246   5.351  19.206  0.00  0.00    +0.000 C 
ATOM     10  C   UNL     1       7.742   6.949  18.022  0.00  0.00    +0.000 C 
ENDBRANCH   6   8
ENDBRANCH   2   6
ENDBRANCH   1   4
BRANCH   1  11
ATOM     11  C   UNL     1       1.963   8.374  18.288  0.00  0.00    +0.000 C 
ATOM     12  O   UNL     1       2.299   9.196  17.442  0.00  0.00    +0.000 OA
BRANCH  11  13
ATOM     13  O   UNL     1       0.843   8.465  19.116  0.00  0.00    +0.000 OA
BRANCH  13  14
ATOM     14  C   UNL     1       0.574   9.486  20.030  0.00  0.00    +0.000 A 
ATOM     15  C   UNL     1       0.503   9.077  21.367  0.00  0.00    +0.000 A 
ATOM     16  C   UNL     1       0.051   9.965  22.360  0.00  0.00    +0.000 A 
ATOM     17  C   UNL     1      -0.323  11.270  22.026  0.00  0.00    +0.000 A 
ATOM     18  C   UNL     1      -0.202  11.653  20.706  0.00  0.00    +0.000 A 
ATOM     19  O   UNL     1      -0.516  12.902  20.196  0.00  0.00    +0.000 OA
ATOM     20  C   UNL     1      -0.214  12.753  18.834  0.00  0.00    +0.000 A 
ATOM     21  O   UNL     1      -0.338  13.646  18.013  0.00  0.00    +0.000 OA
ATOM     22  N   UNL     1       0.230  11.485  18.566  0.00  0.00    +0.000 N 
ATOM     23  C   UNL     1       0.242  10.783  19.735  0.00  0.00    +0.000 A 
ATOM     24  H   UNL     1       0.527  11.148  17.656  0.00  0.00    +0.000 HD
ENDBRANCH  13  14
ENDBRANCH  11  13
ENDBRANCH   1  11
BRANCH   1  25
ATOM     25  C   UNL     1       2.498   6.497  19.964  0.00  0.00    +0.000 C 
BRANCH  25  26
ATOM     26  C   UNL     1       2.008   5.071  20.052  0.00  0.00    +0.000 A 
ATOM     27  C   UNL     1       2.149   4.327  21.232  0.00  0.00    +0.000 A 
ATOM     28  C   UNL     1       1.862   2.964  21.246  0.00  0.00    +0.000 A 
ATOM     29  C   UNL     1       1.399   2.340  20.090  0.00  0.00    +0.000 A 
ATOM     30  C   UNL     1       1.192   3.084  18.931  0.00  0.00    +0.000 A 
ATOM     31  C   UNL     1       1.488   4.445  18.914  0.00  0.00    +0.000 A 
ENDBRANCH  25  26
ENDBRANCH   1  25
TORSDOF 8
ENDMDL
MODEL 9
REMARK VINA RESULT:      -7.7      1.623      2.392
REMARK  Name = 
REMARK  11 active torsions:
REMARK  status: ('A' for Active; 'I' for Inactive)
REMARK    1  A    between atoms: C_1  and  C_2
REMARK    2  A    between atoms: C_2  and  C_3
REMARK    3  A    between atoms: C_2  and  C_4
REMARK    4  A    between atoms: C_2  and  O_5
REMARK    5  A    between atoms: O_5  and  C_6
REMARK    6  A    between atoms: N_8  and  C_9
REMARK    7  A    between atoms: C_9  and  C_10
REMARK    8  A    between atoms: C_9  and  C_17
REMARK    9  A    between atoms: C_10  and  C_11
REMARK   10  A    between atoms: C_17  and  O_19
REMARK   11  A    between atoms: O_19  and  C_20
REMARK                            x       y       z     vdW  Elec       q    Type
REMARK                         _______ _______ _______ _____ _____    ______ ____
ROOT
ATOM      1  C   UNL     1       2.591   7.158  18.617  0.00  0.00    +0.000 C 
ENDROOT
BRANCH   1   4
ATOM      2  C   UNL     1       4.660   6.363  17.535  0.00  0.00    +0.000 C 
ATOM      3  O   UNL     1       4.050   5.740  16.681  0.00  0.00    +0.000 OA
ATOM      4  N   UNL     1       4.047   7.084  18.514  0.00  0.00    +0.000 N 
ATOM      5  H   UNL     1       4.632   7.642  19.126  0.00  0.00    +0.000 HD
BRANCH   2   6
ATOM      6  O   UNL     1       6.002   6.421  17.676  0.00  0.00    +0.000 OA
BRANCH   6   8
ATOM      7  C   UNL     1       5.715   4.379  19.033  0.00  0.00    +0.000 C 
ATOM      8  C   UNL     1       6.698   5.317  18.320  0.00  0.00    +0.000 C 
ATOM      9  C   UNL     1       7.794   5.820  19.271  0.00  0.00    +0.000 C 
ATOM     10  C   UNL     1       7.373   4.532  17.184  0.00  0.00    +0.000 C 
ENDBRANCH   6   8
ENDBRANCH   2   6
ENDBRANCH   1   4
BRANCH   1  11
ATOM     11  C   UNL     1       2.095   8.568  18.260  0.00  0.00    +0.000 C 
ATOM     12  O   UNL     1       2.342   9.163  17.217  0.00  0.00    +0.000 OA
BRANCH  11  13
ATOM     13  O   UNL     1       1.212   8.994  19.253  0.00  0.00    +0.000 OA
BRANCH  13  14
ATOM     14  C   UNL     1       0.302  10.049  19.152  0.00  0.00    +0.000 A 
ATOM     15  C   UNL     1      -0.729   9.852  18.226  0.00  0.00    +0.000 A 
ATOM     16  C   UNL     1      -1.595  10.908  17.889  0.00  0.00    +0.000 A 
ATOM     17  C   UNL     1      -1.443  12.165  18.483  0.00  0.00    +0.000 A 
ATOM     18  C   UNL     1      -0.442  12.314  19.420  0.00  0.00    +0.000 A 
ATOM     19  O   UNL     1      -0.151  13.478  20.112  0.00  0.00    +0.000 OA
ATOM     20  C   UNL     1       0.929  13.085  20.916  0.00  0.00    +0.000 A 
ATOM     21  O   UNL     1       1.488  13.828  21.706  0.00  0.00    +0.000 OA
ATOM     22  N   UNL     1       1.259  11.775  20.689  0.00  0.00    +0.000 N 
ATOM     23  C   UNL     1       0.404  11.278  19.750  0.00  0.00    +0.000 A 
ATOM     24  H   UNL     1       1.994  11.263  21.168  0.00  0.00    +0.000 HD
ENDBRANCH  13  14
ENDBRANCH  11  13
ENDBRANCH   1  11
BRANCH   1  25
ATOM     25  C   UNL     1       2.027   6.647  19.970  0.00  0.00    +0.000 C 
BRANCH  25  26
ATOM     26  C   UNL     1       1.868   5.145  20.008  0.00  0.00    +0.000 A 
ATOM     27  C   UNL     1       2.072   4.424  21.193  0.00  0.00    +0.000 A 
ATOM     28  C   UNL     1       2.102   3.031  21.174  0.00  0.00    +0.000 A 
ATOM     29  C   UNL     1       1.892   2.347  19.979  0.00  0.00    +0.000 A 
ATOM     30  C   UNL     1       1.621   3.054  18.810  0.00  0.00    +0.000 A 
ATOM     31  C   UNL     1       1.602   4.446  18.825  0.00  0.00    +0.000 A 
ENDBRANCH  25  26
ENDBRANCH   1  25
TORSDOF 8
ENDMDL
