MODEL 1
REMARK VINA RESULT:      -9.1      0.000      0.000
REMARK  Name = 
REMARK  8 active torsions:
REMARK  status: ('A' for Active; 'I' for Inactive)
REMARK    1  A    between atoms: C_1  and  C_2
REMARK    2  A    between atoms: C_2  and  C_3
REMARK    3  A    between atoms: C_3  and  C_4
REMARK    4  A    between atoms: C_4  and  C_5
REMARK    5  A    between atoms: C_5  and  O_7
REMARK    6  A    between atoms: C_12  and  C_13
REMARK    7  A    between atoms: C_16  and  N_17
REMARK    8  A    between atoms: N_20  and  C_21
REMARK                            x       y       z     vdW  Elec       q    Type
REMARK                         _______ _______ _______ _____ _____    ______ ____
ROOT
ATOM      1  C   UNL     1       0.945   8.993  20.526  0.00  0.00    +0.000 A 
ATOM      2  C   UNL     1       0.704   8.524  21.825  0.00  0.00    +0.000 A 
ATOM      3  C   UNL     1      -0.127   9.219  22.708  0.00  0.00    +0.000 A 
ATOM      4  C   UNL     1      -0.747  10.408  22.319  0.00  0.00    +0.000 A 
ATOM      5  C   UNL     1      -0.582  10.856  21.011  0.00  0.00    +0.000 A 
ATOM      6  C   UNL     1       0.270  10.168  20.135  0.00  0.00    +0.000 A 
ENDROOT
BRANCH   1  12
ATOM      7  C   UNL     1       4.681   4.612  17.244  0.00  0.00    +0.000 C 
ATOM      8  C   UNL     1       5.150   4.646  18.721  0.00  0.00    +0.000 C 
ATOM      9  C   UNL     1       4.072   5.163  19.672  0.00  0.00    +0.000 C 
ATOM     10  C   UNL     1       3.414   6.420  19.171  0.00  0.00    +0.000 A 
ATOM     11  C   UNL     1       2.567   7.134  20.033  0.00  0.00    +0.000 A 
ATOM     12  C   UNL     1       1.884   8.292  19.619  0.00  0.00    +0.000 A 
ATOM     13  C   UNL     1       2.114   8.739  18.303  0.00  0.00    +0.000 A 
ATOM     14  C   UNL     1       2.959   8.044  17.432  0.00  0.00    +0.000 A 
ATOM     15  C   UNL     1       3.580   6.870  17.854  0.00  0.00    +0.000 A 
ATOM     16  C   UNL     1       4.383   6.078  16.883  0.00  0.00    +0.000 C 
ATOM     17  O   UNL     1       4.744   6.590  15.825  0.00  0.00    +0.000 OA
BRANCH   7  19
ATOM     18  C   UNL     1       3.420   2.369  17.673  0.00  0.00    +0.000 C 
ATOM     19  C   UNL     1       3.385   3.768  17.066  0.00  0.00    +0.000 C 
ENDBRANCH   7  19
BRANCH   7  20
ATOM     20  C   UNL     1       5.838   4.134  16.326  0.00  0.00    +0.000 C 
BRANCH  20  21
ATOM     21  C   UNL     1       7.209   4.686  16.644  0.00  0.00    +0.000 C 
ATOM     22  O   UNL     1       8.030   4.182  17.392  0.00  0.00    +0.000 OA
BRANCH  21  23
ATOM     23  O   UNL     1       7.450   5.852  15.999  0.00  0.00    +0.000 OA
ATOM     24  H   UNL     1       7.191   6.644  16.508  0.00  0.00    +0.000 HD
ENDBRANCH  21  23
ENDBRANCH  20  21
ENDBRANCH   7  20
ENDBRANCH   1  12
BRANCH   4  25
ATOM     25  N   UNL     1      -1.543  11.167  23.206  0.00  0.00    +0.000 N 
ATOM     26  C   UNL     1      -2.509  12.065  22.780  0.00  0.00    +0.000 C 
ATOM     27  O   UNL     1      -2.870  12.198  21.616  0.00  0.00    +0.000 OA
ATOM     28  N   UNL     1      -2.996  12.824  23.831  0.00  0.00    +0.000 N 
ATOM     29  H   UNL     1      -1.672  10.806  24.138  0.00  0.00    +0.000 HD
ATOM     30  H   UNL     1      -2.315  13.021  24.551  0.00  0.00    +0.000 HD
BRANCH  28  31
ATOM     31  C   UNL     1      -4.005  13.791  23.625  0.00  0.00    +0.000 A 
ATOM     32  C   UNL     1      -5.364  13.460  23.694  0.00  0.00    +0.000 A 
ATOM     33  C   UNL     1      -6.343  14.420  23.434  0.00  0.00    +0.000 A 
ATOM     34  C   UNL     1      -5.960  15.714  23.093  0.00  0.00    +0.000 A 
ATOM     35 CL   UNL     1      -7.160  16.894  22.733  0.00  0.00    +0.000 Cl
ATOM     36  C   UNL     1      -4.609  16.058  23.036  0.00  0.00    +0.000 A 
ATOM     37  C   UNL     1      -3.630  15.102  23.325  0.00  0.00    +0.000 A 
ENDBRANCH  28  31
ENDBRANCH   4  25
TORSDOF 7
ENDMDL
MODEL 2
REMARK VINA RESULT:      -9.1      0.382      1.055
REMARK  Name = 
REMARK  8 active torsions:
REMARK  status: ('A' for Active; 'I' for Inactive)
REMARK    1  A    between atoms: C_1  and  C_2
REMARK    2  A    between atoms: C_2  and  C_3
REMARK    3  A    between atoms: C_3  and  C_4
REMARK    4  A    between atoms: C_4  and  C_5
REMARK    5  A    between atoms: C_5  and  O_7
REMARK    6  A    between atoms: C_12  and  C_13
REMARK    7  A    between atoms: C_16  and  N_17
REMARK    8  A    between atoms: N_20  and  C_21
REMARK                            x       y       z     vdW  Elec       q    Type
REMARK                         _______ _______ _______ _____ _____    ______ ____
ROOT
ATOM      1  C   UNL     1       0.787   9.139  20.599  0.00  0.00    +0.000 A 
ATOM      2  C   UNL     1       0.342   8.584  21.807  0.00  0.00    +0.000 A 
ATOM      3  C   UNL     1      -0.485   9.299  22.677  0.00  0.00    +0.000 A 
ATOM      4  C   UNL     1      -0.899  10.596  22.365  0.00  0.00    +0.000 A 
ATOM      5  C   UNL     1      -0.531  11.143  21.138  0.00  0.00    +0.000 A 
ATOM      6  C   UNL     1       0.318  10.430  20.278  0.00  0.00    +0.000 A 
ENDROOT
BRANCH   1  12
ATOM      7  C   UNL     1       4.410   4.625  17.373  0.00  0.00    +0.000 C 
ATOM      8  C   UNL     1       4.816   4.600  18.868  0.00  0.00    +0.000 C 
ATOM      9  C   UNL     1       3.729   5.157  19.785  0.00  0.00    +0.000 C 
ATOM     10  C   UNL     1       3.164   6.460  19.288  0.00  0.00    +0.000 A 
ATOM     11  C   UNL     1       2.322   7.203  20.130  0.00  0.00    +0.000 A 
ATOM     12  C   UNL     1       1.723   8.406  19.716  0.00  0.00    +0.000 A 
ATOM     13  C   UNL     1       2.035   8.867  18.422  0.00  0.00    +0.000 A 
ATOM     14  C   UNL     1       2.876   8.144  17.570  0.00  0.00    +0.000 A 
ATOM     15  C   UNL     1       3.411   6.928  17.990  0.00  0.00    +0.000 A 
ATOM     16  C   UNL     1       4.210   6.112  17.035  0.00  0.00    +0.000 C 
ATOM     17  O   UNL     1       4.644   6.625  16.005  0.00  0.00    +0.000 OA
BRANCH   7  19
ATOM     18  C   UNL     1       3.026   2.431  17.653  0.00  0.00    +0.000 C 
ATOM     19  C   UNL     1       3.078   3.859  17.121  0.00  0.00    +0.000 C 
ENDBRANCH   7  19
BRANCH   7  20
ATOM     20  C   UNL     1       5.576   4.102  16.493  0.00  0.00    +0.000 C 
BRANCH  20  21
ATOM     21  C   UNL     1       6.958   4.593  16.861  0.00  0.00    +0.000 C 
ATOM     22  O   UNL     1       7.546   5.533  16.353  0.00  0.00    +0.000 OA
BRANCH  21  23
ATOM     23  O   UNL     1       7.513   3.854  17.851  0.00  0.00    +0.000 OA
ATOM     24  H   UNL     1       8.302   3.351  17.570  0.00  0.00    +0.000 HD
ENDBRANCH  21  23
ENDBRANCH  20  21
ENDBRANCH   7  20
ENDBRANCH   1  12
BRANCH   4  25
ATOM     25  N   UNL     1      -1.685  11.369  23.249  0.00  0.00    +0.000 N 
ATOM     26  C   UNL     1      -2.737  12.167  22.829  0.00  0.00    +0.000 C 
ATOM     27  O   UNL     1      -3.183  12.187  21.686  0.00  0.00    +0.000 OA
ATOM     28  N   UNL     1      -3.204  12.973  23.854  0.00  0.00    +0.000 N 
ATOM     29  H   UNL     1      -1.726  11.074  24.211  0.00  0.00    +0.000 HD
ATOM     30  H   UNL     1      -2.492  13.268  24.507  0.00  0.00    +0.000 HD
BRANCH  28  31
ATOM     31  C   UNL     1      -4.289  13.855  23.651  0.00  0.00    +0.000 A 
ATOM     32  C   UNL     1      -4.089  15.188  23.270  0.00  0.00    +0.000 A 
ATOM     33  C   UNL     1      -5.174  16.056  23.129  0.00  0.00    +0.000 A 
ATOM     34  C   UNL     1      -6.461  15.590  23.378  0.00  0.00    +0.000 A 
ATOM     35 CL   UNL     1      -7.800  16.663  23.243  0.00  0.00    +0.000 Cl
ATOM     36  C   UNL     1      -6.672  14.260  23.743  0.00  0.00    +0.000 A 
ATOM     37  C   UNL     1      -5.587  13.385  23.857  0.00  0.00    +0.000 A 
ENDBRANCH  28  31
ENDBRANCH   4  25
TORSDOF 7
ENDMDL
MODEL 3
REMARK VINA RESULT:      -9.0      2.475      3.235
REMARK  Name = 
REMARK  8 active torsions:
REMARK  status: ('A' for Active; 'I' for Inactive)
REMARK    1  A    between atoms: C_1  and  C_2
REMARK    2  A    between atoms: C_2  and  C_3
REMARK    3  A    between atoms: C_3  and  C_4
REMARK    4  A    between atoms: C_4  and  C_5
REMARK    5  A    between atoms: C_5  and  O_7
REMARK    6  A    between atoms: C_12  and  C_13
REMARK    7  A    between atoms: C_16  and  N_17
REMARK    8  A    between atoms: N_20  and  C_21
REMARK                            x       y       z     vdW  Elec       q    Type
REMARK                         _______ _______ _______ _____ _____    ______ ____
ROOT
ATOM      1  C   UNL     1       1.012   8.960  19.915  0.00  0.00    +0.000 A 
ATOM      2  C   UNL     1       0.775   9.092  21.290  0.00  0.00    +0.000 A 
ATOM      3  C   UNL     1      -0.059  10.094  21.793  0.00  0.00    +0.000 A 
ATOM      4  C   UNL     1      -0.688  10.998  20.933  0.00  0.00    +0.000 A 
ATOM      5  C   UNL     1      -0.528  10.843  19.559  0.00  0.00    +0.000 A 
ATOM      6  C   UNL     1       0.329   9.849  19.059  0.00  0.00    +0.000 A 
ENDROOT
BRANCH   1  12
ATOM      7  C   UNL     1       5.953   5.638  17.004  0.00  0.00    +0.000 C 
ATOM      8  C   UNL     1       5.116   6.335  15.901  0.00  0.00    +0.000 C 
ATOM      9  C   UNL     1       4.325   7.532  16.428  0.00  0.00    +0.000 C 
ATOM     10  C   UNL     1       3.589   7.222  17.703  0.00  0.00    +0.000 A 
ATOM     11  C   UNL     1       2.647   8.144  18.185  0.00  0.00    +0.000 A 
ATOM     12  C   UNL     1       1.954   7.942  19.393  0.00  0.00    +0.000 A 
ATOM     13  C   UNL     1       2.213   6.746  20.090  0.00  0.00    +0.000 A 
ATOM     14  C   UNL     1       3.144   5.814  19.623  0.00  0.00    +0.000 A 
ATOM     15  C   UNL     1       3.854   6.067  18.450  0.00  0.00    +0.000 A 
ATOM     16  C   UNL     1       4.924   5.124  18.025  0.00  0.00    +0.000 C 
ATOM     17  O   UNL     1       4.980   3.999  18.519  0.00  0.00    +0.000 OA
BRANCH   7  19
ATOM     18  C   UNL     1       7.797   6.031  18.807  0.00  0.00    +0.000 C 
ATOM     19  C   UNL     1       6.923   6.630  17.710  0.00  0.00    +0.000 C 
ENDBRANCH   7  19
BRANCH   7  20
ATOM     20  C   UNL     1       6.684   4.401  16.418  0.00  0.00    +0.000 C 
BRANCH  20  21
ATOM     21  C   UNL     1       6.864   4.385  14.917  0.00  0.00    +0.000 C 
ATOM     22  O   UNL     1       6.269   3.669  14.129  0.00  0.00    +0.000 OA
BRANCH  21  23
ATOM     23  O   UNL     1       7.797   5.277  14.508  0.00  0.00    +0.000 OA
ATOM     24  H   UNL     1       7.494   6.206  14.539  0.00  0.00    +0.000 HD
ENDBRANCH  21  23
ENDBRANCH  20  21
ENDBRANCH   7  20
ENDBRANCH   1  12
BRANCH   4  25
ATOM     25  N   UNL     1      -1.488  12.059  21.412  0.00  0.00    +0.000 N 
ATOM     26  C   UNL     1      -0.992  13.094  22.188  0.00  0.00    +0.000 C 
ATOM     27  O   UNL     1       0.197  13.277  22.426  0.00  0.00    +0.000 OA
ATOM     28  N   UNL     1      -2.010  13.884  22.695  0.00  0.00    +0.000 N 
ATOM     29  H   UNL     1      -2.333  12.269  20.904  0.00  0.00    +0.000 HD
ATOM     30  H   UNL     1      -2.863  13.381  22.897  0.00  0.00    +0.000 HD
BRANCH  28  31
ATOM     31  C   UNL     1      -1.728  15.010  23.500  0.00  0.00    +0.000 A 
ATOM     32  C   UNL     1      -1.403  16.251  22.937  0.00  0.00    +0.000 A 
ATOM     33  C   UNL     1      -1.074  17.336  23.752  0.00  0.00    +0.000 A 
ATOM     34  C   UNL     1      -1.062  17.176  25.134  0.00  0.00    +0.000 A 
ATOM     35 CL   UNL     1      -0.621  18.497  26.144  0.00  0.00    +0.000 Cl
ATOM     36  C   UNL     1      -1.399  15.948  25.705  0.00  0.00    +0.000 A 
ATOM     37  C   UNL     1      -1.755  14.870  24.888  0.00  0.00    +0.000 A 
ENDBRANCH  28  31
ENDBRANCH   4  25
TORSDOF 7
ENDMDL
MODEL 4
REMARK VINA RESULT:      -9.0      0.962      1.479
REMARK  Name = 
REMARK  8 active torsions:
REMARK  status: ('A' for Active; 'I' for Inactive)
REMARK    1  A    between atoms: C_1  and  C_2
REMARK    2  A    between atoms: C_2  and  C_3
REMARK    3  A    between atoms: C_3  and  C_4
REMARK    4  A    between atoms: C_4  and  C_5
REMARK    5  A    between atoms: C_5  and  O_7
REMARK    6  A    between atoms: C_12  and  C_13
REMARK    7  A    between atoms: C_16  and  N_17
REMARK    8  A    between atoms: N_20  and  C_21
REMARK                            x       y       z     vdW  Elec       q    Type
REMARK                         _______ _______ _______ _____ _____    ______ ____
ROOT
ATOM      1  C   UNL     1       0.746   9.277  20.769  0.00  0.00    +0.000 A 
ATOM      2  C   UNL     1      -0.050  10.326  20.288  0.00  0.00    +0.000 A 
ATOM      3  C   UNL     1      -0.966  10.983  21.114  0.00  0.00    +0.000 A 
ATOM      4  C   UNL     1      -1.114  10.613  22.453  0.00  0.00    +0.000 A 
ATOM      5  C   UNL     1      -0.284   9.624  22.973  0.00  0.00    +0.000 A 
ATOM      6  C   UNL     1       0.619   8.951  22.135  0.00  0.00    +0.000 A 
ENDROOT
BRANCH   1  12
ATOM      7  C   UNL     1       4.230   4.727  17.439  0.00  0.00    +0.000 C 
ATOM      8  C   UNL     1       4.625   4.647  18.936  0.00  0.00    +0.000 C 
ATOM      9  C   UNL     1       3.551   5.217  19.862  0.00  0.00    +0.000 C 
ATOM     10  C   UNL     1       3.036   6.552  19.397  0.00  0.00    +0.000 A 
ATOM     11  C   UNL     1       2.215   7.300  20.255  0.00  0.00    +0.000 A 
ATOM     12  C   UNL     1       1.662   8.535  19.871  0.00  0.00    +0.000 A 
ATOM     13  C   UNL     1       1.999   9.020  18.592  0.00  0.00    +0.000 A 
ATOM     14  C   UNL     1       2.820   8.292  17.726  0.00  0.00    +0.000 A 
ATOM     15  C   UNL     1       3.309   7.046  18.115  0.00  0.00    +0.000 A 
ATOM     16  C   UNL     1       4.085   6.230  17.142  0.00  0.00    +0.000 C 
ATOM     17  O   UNL     1       4.545   6.755  16.130  0.00  0.00    +0.000 OA
BRANCH   7  19
ATOM     18  C   UNL     1       2.783   2.563  17.611  0.00  0.00    +0.000 C 
ATOM     19  C   UNL     1       2.874   4.017  17.158  0.00  0.00    +0.000 C 
ENDBRANCH   7  19
BRANCH   7  20
ATOM     20  C   UNL     1       5.383   4.187  16.552  0.00  0.00    +0.000 C 
BRANCH  20  21
ATOM     21  C   UNL     1       6.771   4.680  16.896  0.00  0.00    +0.000 C 
ATOM     22  O   UNL     1       7.422   4.369  17.879  0.00  0.00    +0.000 OA
BRANCH  21  23
ATOM     23  O   UNL     1       7.245   5.548  15.971  0.00  0.00    +0.000 OA
ATOM     24  H   UNL     1       6.749   6.389  15.929  0.00  0.00    +0.000 HD
ENDBRANCH  21  23
ENDBRANCH  20  21
ENDBRANCH   7  20
ENDBRANCH   1  12
BRANCH   4  25
ATOM     25  N   UNL     1      -2.073  11.215  23.298  0.00  0.00    +0.000 N 
ATOM     26  C   UNL     1      -2.457  12.541  23.186  0.00  0.00    +0.000 C 
ATOM     27  O   UNL     1      -2.119  13.289  22.275  0.00  0.00    +0.000 OA
ATOM     28  N   UNL     1      -3.245  12.934  24.255  0.00  0.00    +0.000 N 
ATOM     29  H   UNL     1      -2.743  10.609  23.745  0.00  0.00    +0.000 HD
ATOM     30  H   UNL     1      -3.017  12.480  25.128  0.00  0.00    +0.000 HD
BRANCH  28  31
ATOM     31  C   UNL     1      -3.765  14.246  24.334  0.00  0.00    +0.000 A 
ATOM     32  C   UNL     1      -3.073  15.270  24.994  0.00  0.00    +0.000 A 
ATOM     33  C   UNL     1      -3.632  16.545  25.108  0.00  0.00    +0.000 A 
ATOM     34  C   UNL     1      -4.890  16.792  24.567  0.00  0.00    +0.000 A 
ATOM     35 CL   UNL     1      -5.601  18.350  24.735  0.00  0.00    +0.000 Cl
ATOM     36  C   UNL     1      -5.580  15.783  23.895  0.00  0.00    +0.000 A 
ATOM     37  C   UNL     1      -5.007  14.514  23.758  0.00  0.00    +0.000 A 
ENDBRANCH  28  31
ENDBRANCH   4  25
TORSDOF 7
ENDMDL
MODEL 5
REMARK VINA RESULT:      -8.9      2.196      3.137
REMARK  Name = 
REMARK  8 active torsions:
REMARK  status: ('A' for Active; 'I' for Inactive)
REMARK    1  A    between atoms: C_1  and  C_2
REMARK    2  A    between atoms: C_2  and  C_3
REMARK    3  A    between atoms: C_3  and  C_4
REMARK    4  A    between atoms: C_4  and  C_5
REMARK    5  A    between atoms: C_5  and  O_7
REMARK    6  A    between atoms: C_12  and  C_13
REMARK    7  A    between atoms: C_16  and  N_17
REMARK    8  A    between atoms: N_20  and  C_21
REMARK                            x       y       z     vdW  Elec       q    Type
REMARK                         _______ _______ _______ _____ _____    ______ ____
ROOT
ATOM      1  C   UNL     1       1.057   8.884  20.263  0.00  0.00    +0.000 A 
ATOM      2  C   UNL     1       0.581   9.959  19.499  0.00  0.00    +0.000 A 
ATOM      3  C   UNL     1      -0.289  10.909  20.041  0.00  0.00    +0.000 A 
ATOM      4  C   UNL     1      -0.710  10.817  21.370  0.00  0.00    +0.000 A 
ATOM      5  C   UNL     1      -0.194   9.801  22.170  0.00  0.00    +0.000 A 
ATOM      6  C   UNL     1       0.661   8.836  21.616  0.00  0.00    +0.000 A 
ENDROOT
BRANCH   1  12
ATOM      7  C   UNL     1       5.774   5.415  17.160  0.00  0.00    +0.000 C 
ATOM      8  C   UNL     1       5.049   6.299  16.114  0.00  0.00    +0.000 C 
ATOM      9  C   UNL     1       4.353   7.506  16.741  0.00  0.00    +0.000 C 
ATOM     10  C   UNL     1       3.544   7.141  17.955  0.00  0.00    +0.000 A 
ATOM     11  C   UNL     1       2.674   8.095  18.505  0.00  0.00    +0.000 A 
ATOM     12  C   UNL     1       1.920   7.839  19.664  0.00  0.00    +0.000 A 
ATOM     13  C   UNL     1       2.039   6.559  20.239  0.00  0.00    +0.000 A 
ATOM     14  C   UNL     1       2.896   5.593  19.703  0.00  0.00    +0.000 A 
ATOM     15  C   UNL     1       3.671   5.895  18.584  0.00  0.00    +0.000 A 
ATOM     16  C   UNL     1       4.663   4.901  18.092  0.00  0.00    +0.000 C 
ATOM     17  O   UNL     1       4.596   3.732  18.465  0.00  0.00    +0.000 OA
BRANCH   7  19
ATOM     18  C   UNL     1       7.543   7.331  17.239  0.00  0.00    +0.000 C 
ATOM     19  C   UNL     1       6.805   6.231  17.994  0.00  0.00    +0.000 C 
ENDBRANCH   7  19
BRANCH   7  20
ATOM     20  C   UNL     1       6.408   4.179  16.468  0.00  0.00    +0.000 C 
BRANCH  20  21
ATOM     21  C   UNL     1       6.858   4.377  15.038  0.00  0.00    +0.000 C 
ATOM     22  O   UNL     1       7.667   5.201  14.647  0.00  0.00    +0.000 OA
BRANCH  21  23
ATOM     23  O   UNL     1       6.244   3.519  14.189  0.00  0.00    +0.000 OA
ATOM     24  H   UNL     1       6.734   2.685  14.050  0.00  0.00    +0.000 HD
ENDBRANCH  21  23
ENDBRANCH  20  21
ENDBRANCH   7  20
ENDBRANCH   1  12
BRANCH   4  25
ATOM     25  N   UNL     1      -1.636  11.725  21.931  0.00  0.00    +0.000 N 
ATOM     26  C   UNL     1      -1.261  12.912  22.538  0.00  0.00    +0.000 C 
ATOM     27  O   UNL     1      -0.121  13.366  22.536  0.00  0.00    +0.000 OA
ATOM     28  N   UNL     1      -2.329  13.512  23.184  0.00  0.00    +0.000 N 
ATOM     29  H   UNL     1      -2.581  11.700  21.581  0.00  0.00    +0.000 HD
ATOM     30  H   UNL     1      -2.998  12.862  23.572  0.00  0.00    +0.000 HD
BRANCH  28  31
ATOM     31  C   UNL     1      -2.175  14.746  23.855  0.00  0.00    +0.000 A 
ATOM     32  C   UNL     1      -2.249  15.967  23.173  0.00  0.00    +0.000 A 
ATOM     33  C   UNL     1      -2.040  17.171  23.847  0.00  0.00    +0.000 A 
ATOM     34  C   UNL     1      -1.746  17.152  25.208  0.00  0.00    +0.000 A 
ATOM     35 CL   UNL     1      -1.449  18.630  26.038  0.00  0.00    +0.000 Cl
ATOM     36  C   UNL     1      -1.685  15.943  25.900  0.00  0.00    +0.000 A 
ATOM     37  C   UNL     1      -1.923  14.739  25.228  0.00  0.00    +0.000 A 
ENDBRANCH  28  31
ENDBRANCH   4  25
TORSDOF 7
ENDMDL
MODEL 6
REMARK VINA RESULT:      -8.9      1.410      2.199
REMARK  Name = 
REMARK  8 active torsions:
REMARK  status: ('A' for Active; 'I' for Inactive)
REMARK    1  A    between atoms: C_1  and  C_2
REMARK    2  A    between atoms: C_2  and  C_3
REMARK    3  A    between atoms: C_3  and  C_4
REMARK    4  A    between atoms: C_4  and  C_5
REMARK    5  A    between atoms: C_5  and  O_7
REMARK    6  A    between atoms: C_12  and  C_13
REMARK    7  A    between atoms: C_16  and  N_17
REMARK    8  A    between atoms: N_20  and  C_21
REMARK                            x       y       z     vdW  Elec       q    Type
REMARK                         _______ _______ _______ _____ _____    ______ ____
ROOT
ATOM      1  C   UNL     1       1.129   8.554  20.529  0.00  0.00    +0.000 A 
ATOM      2  C   UNL     1       0.331   8.186  21.622  0.00  0.00    +0.000 A 
ATOM      3  C   UNL     1      -0.433   9.128  22.315  0.00  0.00    +0.000 A 
ATOM      4  C   UNL     1      -0.426  10.473  21.937  0.00  0.00    +0.000 A 
ATOM      5  C   UNL     1       0.300  10.851  20.810  0.00  0.00    +0.000 A 
ATOM      6  C   UNL     1       1.084   9.906  20.130  0.00  0.00    +0.000 A 
ENDROOT
BRANCH   1  12
ATOM      7  C   UNL     1       5.742   5.388  16.977  0.00  0.00    +0.000 C 
ATOM      8  C   UNL     1       4.873   6.232  16.010  0.00  0.00    +0.000 C 
ATOM      9  C   UNL     1       4.168   7.393  16.710  0.00  0.00    +0.000 C 
ATOM     10  C   UNL     1       3.495   6.974  17.988  0.00  0.00    +0.000 A 
ATOM     11  C   UNL     1       2.623   7.872  18.624  0.00  0.00    +0.000 A 
ATOM     12  C   UNL     1       1.994   7.566  19.844  0.00  0.00    +0.000 A 
ATOM     13  C   UNL     1       2.241   6.292  20.392  0.00  0.00    +0.000 A 
ATOM     14  C   UNL     1       3.101   5.381  19.771  0.00  0.00    +0.000 A 
ATOM     15  C   UNL     1       3.752   5.735  18.590  0.00  0.00    +0.000 A 
ATOM     16  C   UNL     1       4.752   4.804  18.000  0.00  0.00    +0.000 C 
ATOM     17  O   UNL     1       4.788   3.631  18.366  0.00  0.00    +0.000 OA
BRANCH   7  19
ATOM     18  C   UNL     1       7.549   5.564  18.851  0.00  0.00    +0.000 C 
ATOM     19  C   UNL     1       6.794   6.260  17.723  0.00  0.00    +0.000 C 
ENDBRANCH   7  19
BRANCH   7  20
ATOM     20  C   UNL     1       6.383   4.195  16.218  0.00  0.00    +0.000 C 
BRANCH  20  21
ATOM     21  C   UNL     1       6.901   4.494  14.830  0.00  0.00    +0.000 C 
ATOM     22  O   UNL     1       7.688   5.376  14.531  0.00  0.00    +0.000 OA
BRANCH  21  23
ATOM     23  O   UNL     1       6.379   3.657  13.902  0.00  0.00    +0.000 OA
ATOM     24  H   UNL     1       5.773   4.095  13.274  0.00  0.00    +0.000 HD
ENDBRANCH  21  23
ENDBRANCH  20  21
ENDBRANCH   7  20
ENDBRANCH   1  12
BRANCH   4  25
ATOM     25  N   UNL     1      -1.139  11.460  22.653  0.00  0.00    +0.000 N 
ATOM     26  C   UNL     1      -2.117  12.256  22.079  0.00  0.00    +0.000 C 
ATOM     27  O   UNL     1      -2.562  12.104  20.946  0.00  0.00    +0.000 OA
ATOM     28  N   UNL     1      -2.510  13.274  22.932  0.00  0.00    +0.000 N 
ATOM     29  H   UNL     1      -1.205  11.352  23.653  0.00  0.00    +0.000 HD
ATOM     30  H   UNL     1      -1.773  13.622  23.530  0.00  0.00    +0.000 HD
BRANCH  28  31
ATOM     31  C   UNL     1      -3.513  14.195  22.556  0.00  0.00    +0.000 A 
ATOM     32  C   UNL     1      -4.870  13.937  22.788  0.00  0.00    +0.000 A 
ATOM     33  C   UNL     1      -5.847  14.837  22.358  0.00  0.00    +0.000 A 
ATOM     34  C   UNL     1      -5.466  15.993  21.685  0.00  0.00    +0.000 A 
ATOM     35 CL   UNL     1      -6.666  17.088  21.119  0.00  0.00    +0.000 Cl
ATOM     36  C   UNL     1      -4.116  16.267  21.462  0.00  0.00    +0.000 A 
ATOM     37  C   UNL     1      -3.137  15.378  21.918  0.00  0.00    +0.000 A 
ENDBRANCH  28  31
ENDBRANCH   4  25
TORSDOF 7
ENDMDL
MODEL 7
REMARK VINA RESULT:      -8.8      2.384      3.032
REMARK  Name = 
REMARK  8 active torsions:
REMARK  status: ('A' for Active; 'I' for Inactive)
REMARK    1  A    between atoms: C_1  and  C_2
REMARK    2  A    between atoms: C_2  and  C_3
REMARK    3  A    between atoms: C_3  and  C_4
REMARK    4  A    between atoms: C_4  and  C_5
REMARK    5  A    between atoms: C_5  and  O_7
REMARK    6  A    between atoms: C_12  and  C_13
REMARK    7  A    between atoms: C_16  and  N_17
REMARK    8  A    between atoms: N_20  and  C_21
REMARK                            x       y       z     vdW  Elec       q    Type
REMARK                         _______ _______ _______ _____ _____    ______ ____
ROOT
ATOM      1  C   UNL     1       0.687  10.428  19.197  0.00  0.00    +0.000 A 
ATOM      2  C   UNL     1       1.298  11.677  19.013  0.00  0.00    +0.000 A 
ATOM      3  C   UNL     1       0.591  12.868  19.196  0.00  0.00    +0.000 A 
ATOM      4  C   UNL     1      -0.755  12.850  19.571  0.00  0.00    +0.000 A 
ATOM      5  C   UNL     1      -1.364  11.626  19.831  0.00  0.00    +0.000 A 
ATOM      6  C   UNL     1      -0.657  10.431  19.625  0.00  0.00    +0.000 A 
ENDROOT
BRANCH   1  12
ATOM      7  C   UNL     1       2.780   4.157  18.752  0.00  0.00    +0.000 C 
ATOM      8  C   UNL     1       2.757   4.560  20.249  0.00  0.00    +0.000 C 
ATOM      9  C   UNL     1       1.810   5.724  20.532  0.00  0.00    +0.000 C 
ATOM     10  C   UNL     1       1.979   6.858  19.558  0.00  0.00    +0.000 A 
ATOM     11  C   UNL     1       1.343   8.081  19.819  0.00  0.00    +0.000 A 
ATOM     12  C   UNL     1       1.420   9.168  18.931  0.00  0.00    +0.000 A 
ATOM     13  C   UNL     1       2.203   8.998  17.773  0.00  0.00    +0.000 A 
ATOM     14  C   UNL     1       2.849   7.789  17.497  0.00  0.00    +0.000 A 
ATOM     15  C   UNL     1       2.710   6.712  18.371  0.00  0.00    +0.000 A 
ATOM     16  C   UNL     1       3.306   5.397  18.009  0.00  0.00    +0.000 C 
ATOM     17  O   UNL     1       4.153   5.332  17.121  0.00  0.00    +0.000 OA
BRANCH   7  19
ATOM     18  C   UNL     1       0.772   2.491  18.721  0.00  0.00    +0.000 C 
ATOM     19  C   UNL     1       1.358   3.808  18.224  0.00  0.00    +0.000 C 
ENDBRANCH   7  19
BRANCH   7  20
ATOM     20  C   UNL     1       3.801   3.011  18.523  0.00  0.00    +0.000 C 
BRANCH  20  21
ATOM     21  C   UNL     1       4.959   2.949  19.493  0.00  0.00    +0.000 C 
ATOM     22  O   UNL     1       5.055   2.203  20.452  0.00  0.00    +0.000 OA
BRANCH  21  23
ATOM     23  O   UNL     1       5.925   3.849  19.189  0.00  0.00    +0.000 OA
ATOM     24  H   UNL     1       5.994   4.583  19.830  0.00  0.00    +0.000 HD
ENDBRANCH  21  23
ENDBRANCH  20  21
ENDBRANCH   7  20
ENDBRANCH   1  12
BRANCH   4  25
ATOM     25  N   UNL     1      -1.515  14.034  19.705  0.00  0.00    +0.000 N 
ATOM     26  C   UNL     1      -1.906  14.550  20.929  0.00  0.00    +0.000 C 
ATOM     27  O   UNL     1      -1.530  14.125  22.016  0.00  0.00    +0.000 OA
ATOM     28  N   UNL     1      -2.809  15.589  20.777  0.00  0.00    +0.000 N 
ATOM     29  H   UNL     1      -1.471  14.701  18.950  0.00  0.00    +0.000 HD
ATOM     30  H   UNL     1      -3.421  15.494  19.979  0.00  0.00    +0.000 HD
BRANCH  28  31
ATOM     31  C   UNL     1      -3.326  16.276  21.899  0.00  0.00    +0.000 A 
ATOM     32  C   UNL     1      -2.550  17.193  22.619  0.00  0.00    +0.000 A 
ATOM     33  C   UNL     1      -3.064  17.819  23.757  0.00  0.00    +0.000 A 
ATOM     34  C   UNL     1      -4.355  17.518  24.180  0.00  0.00    +0.000 A 
ATOM     35 CL   UNL     1      -4.982  18.255  25.602  0.00  0.00    +0.000 Cl
ATOM     36  C   UNL     1      -5.141  16.616  23.462  0.00  0.00    +0.000 A 
ATOM     37  C   UNL     1      -4.634  16.012  22.306  0.00  0.00    +0.000 A 
ENDBRANCH  28  31
ENDBRANCH   4  25
TORSDOF 7
ENDMDL
MODEL 8
REMARK VINA RESULT:      -8.8      2.183      2.965
REMARK  Name = 
REMARK  8 active torsions:
REMARK  status: ('A' for Active; 'I' for Inactive)
REMARK    1  A    between atoms: C_1  and  C_2
REMARK    2  A    between atoms: C_2  and  C_3
REMARK    3  A    between atoms: C_3  and  C_4
REMARK    4  A    between atoms: C_4  and  C_5
REMARK    5  A    between atoms: C_5  and  O_7
REMARK    6  A    between atoms: C_12  and  C_13
REMARK    7  A    between atoms: C_16  and  N_17
REMARK    8  A    between atoms: N_20  and  C_21
REMARK                            x       y       z     vdW  Elec       q    Type
REMARK                         _______ _______ _______ _____ _____    ______ ____
ROOT
ATOM      1  C   UNL     1       1.222   8.685  20.183  0.00  0.00    +0.000 A 
ATOM      2  C   UNL     1       0.855   9.864  19.518  0.00  0.00    +0.000 A 
ATOM      3  C   UNL     1      -0.033  10.778  20.091  0.00  0.00    +0.000 A 
ATOM      4  C   UNL     1      -0.583  10.544  21.353  0.00  0.00    +0.000 A 
ATOM      5  C   UNL     1      -0.179   9.418  22.065  0.00  0.00    +0.000 A 
ATOM      6  C   UNL     1       0.696   8.491  21.477  0.00  0.00    +0.000 A 
ENDROOT
BRANCH   1  12
ATOM      7  C   UNL     1       5.931   5.456  16.819  0.00  0.00    +0.000 C 
ATOM      8  C   UNL     1       5.089   6.281  15.812  0.00  0.00    +0.000 C 
ATOM      9  C   UNL     1       4.364   7.454  16.470  0.00  0.00    +0.000 C 
ATOM     10  C   UNL     1       3.656   7.059  17.738  0.00  0.00    +0.000 A 
ATOM     11  C   UNL     1       2.768   7.968  18.332  0.00  0.00    +0.000 A 
ATOM     12  C   UNL     1       2.106   7.685  19.540  0.00  0.00    +0.000 A 
ATOM     13  C   UNL     1       2.338   6.422  20.120  0.00  0.00    +0.000 A 
ATOM     14  C   UNL     1       3.215   5.501  19.539  0.00  0.00    +0.000 A 
ATOM     15  C   UNL     1       3.897   5.832  18.370  0.00  0.00    +0.000 A 
ATOM     16  C   UNL     1       4.914   4.891  17.826  0.00  0.00    +0.000 C 
ATOM     17  O   UNL     1       4.940   3.725  18.215  0.00  0.00    +0.000 OA
BRANCH   7  19
ATOM     18  C   UNL     1       7.740   5.649  18.690  0.00  0.00    +0.000 C 
ATOM     19  C   UNL     1       6.962   6.343  17.577  0.00  0.00    +0.000 C 
ENDBRANCH   7  19
BRANCH   7  20
ATOM     20  C   UNL     1       6.593   4.250  16.101  0.00  0.00    +0.000 C 
BRANCH  20  21
ATOM     21  C   UNL     1       6.886   4.434  14.629  0.00  0.00    +0.000 C 
ATOM     22  O   UNL     1       6.382   3.807  13.712  0.00  0.00    +0.000 OA
BRANCH  21  23
ATOM     23  O   UNL     1       7.810   5.399  14.412  0.00  0.00    +0.000 OA
ATOM     24  H   UNL     1       7.669   6.206  14.945  0.00  0.00    +0.000 HD
ENDBRANCH  21  23
ENDBRANCH  20  21
ENDBRANCH   7  20
ENDBRANCH   1  12
BRANCH   4  25
ATOM     25  N   UNL     1      -1.530  11.416  21.935  0.00  0.00    +0.000 N 
ATOM     26  C   UNL     1      -1.194  12.641  22.489  0.00  0.00    +0.000 C 
ATOM     27  O   UNL     1      -0.083  13.157  22.415  0.00  0.00    +0.000 OA
ATOM     28  N   UNL     1      -2.261  13.201  23.172  0.00  0.00    +0.000 N 
ATOM     29  H   UNL     1      -2.488  11.328  21.635  0.00  0.00    +0.000 HD
ATOM     30  H   UNL     1      -2.871  12.527  23.612  0.00  0.00    +0.000 HD
BRANCH  28  31
ATOM     31  C   UNL     1      -2.144  14.461  23.799  0.00  0.00    +0.000 A 
ATOM     32  C   UNL     1      -2.689  14.702  25.067  0.00  0.00    +0.000 A 
ATOM     33  C   UNL     1      -2.609  15.972  25.644  0.00  0.00    +0.000 A 
ATOM     34  C   UNL     1      -1.991  17.005  24.945  0.00  0.00    +0.000 A 
ATOM     35 CL   UNL     1      -1.923  18.580  25.632  0.00  0.00    +0.000 Cl
ATOM     36  C   UNL     1      -1.434  16.771  23.688  0.00  0.00    +0.000 A 
ATOM     37  C   UNL     1      -1.490  15.492  23.124  0.00  0.00    +0.000 A 
ENDBRANCH  28  31
ENDBRANCH   4  25
TORSDOF 7
ENDMDL
MODEL 9
REMARK VINA RESULT:      -8.8      1.311      2.281
REMARK  Name = 
REMARK  8 active torsions:
REMARK  status: ('A' for Active; 'I' for Inactive)
REMARK    1  A    between atoms: C_1  and  C_2
REMARK    2  A    between atoms: C_2  and  C_3
REMARK    3  A    between atoms: C_3  and  C_4
REMARK    4  A    between atoms: C_4  and  C_5
REMARK    5  A    between atoms: C_5  and  O_7
REMARK    6  A    between atoms: C_12  and  C_13
REMARK    7  A    between atoms: C_16  and  N_17
REMARK    8  A    between atoms: N_20  and  C_21
REMARK                            x       y       z     vdW  Elec       q    Type
REMARK                         _______ _______ _______ _____ _____    ______ ____
ROOT
ATOM      1  C   UNL     1       0.998   8.659  20.759  0.00  0.00    +0.000 A 
ATOM      2  C   UNL     1       0.324   8.333  21.944  0.00  0.00    +0.000 A 
ATOM      3  C   UNL     1      -0.366   9.300  22.680  0.00  0.00    +0.000 A 
ATOM      4  C   UNL     1      -0.407  10.629  22.252  0.00  0.00    +0.000 A 
ATOM      5  C   UNL     1       0.191  10.964  21.040  0.00  0.00    +0.000 A 
ATOM      6  C   UNL     1       0.902   9.995  20.316  0.00  0.00    +0.000 A 
ENDROOT
BRANCH   1  12
ATOM      7  C   UNL     1       5.472   5.318  17.191  0.00  0.00    +0.000 C 
ATOM      8  C   UNL     1       4.806   6.375  16.274  0.00  0.00    +0.000 C 
ATOM      9  C   UNL     1       4.193   7.535  17.058  0.00  0.00    +0.000 C 
ATOM     10  C   UNL     1       3.362   7.070  18.222  0.00  0.00    +0.000 A 
ATOM     11  C   UNL     1       2.557   8.000  18.898  0.00  0.00    +0.000 A 
ATOM     12  C   UNL     1       1.789   7.646  20.022  0.00  0.00    +0.000 A 
ATOM     13  C   UNL     1       1.823   6.297  20.426  0.00  0.00    +0.000 A 
ATOM     14  C   UNL     1       2.614   5.354  19.761  0.00  0.00    +0.000 A 
ATOM     15  C   UNL     1       3.406   5.747  18.684  0.00  0.00    +0.000 A 
ATOM     16  C   UNL     1       4.330   4.762  18.059  0.00  0.00    +0.000 C 
ATOM     17  O   UNL     1       4.185   3.561  18.279  0.00  0.00    +0.000 OA
BRANCH   7  19
ATOM     18  C   UNL     1       7.427   7.023  17.470  0.00  0.00    +0.000 C 
ATOM     19  C   UNL     1       6.555   5.950  18.113  0.00  0.00    +0.000 C 
ENDBRANCH   7  19
BRANCH   7  20
ATOM     20  C   UNL     1       6.023   4.143  16.340  0.00  0.00    +0.000 C 
BRANCH  20  21
ATOM     21  C   UNL     1       6.321   4.456  14.891  0.00  0.00    +0.000 C 
ATOM     22  O   UNL     1       5.637   4.143  13.932  0.00  0.00    +0.000 OA
BRANCH  21  23
ATOM     23  O   UNL     1       7.480   5.143  14.748  0.00  0.00    +0.000 OA
ATOM     24  H   UNL     1       7.459   5.803  14.029  0.00  0.00    +0.000 HD
ENDBRANCH  21  23
ENDBRANCH  20  21
ENDBRANCH   7  20
ENDBRANCH   1  12
BRANCH   4  25
ATOM     25  N   UNL     1      -1.044  11.642  23.003  0.00  0.00    +0.000 N 
ATOM     26  C   UNL     1      -2.137  12.357  22.540  0.00  0.00    +0.000 C 
ATOM     27  O   UNL     1      -2.747  12.104  21.506  0.00  0.00    +0.000 OA
ATOM     28  N   UNL     1      -2.437  13.423  23.372  0.00  0.00    +0.000 N 
ATOM     29  H   UNL     1      -0.946  11.608  24.005  0.00  0.00    +0.000 HD
ATOM     30  H   UNL     1      -1.632  13.840  23.818  0.00  0.00    +0.000 HD
BRANCH  28  31
ATOM     31  C   UNL     1      -3.529  14.276  23.098  0.00  0.00    +0.000 A 
ATOM     32  C   UNL     1      -3.383  15.425  22.310  0.00  0.00    +0.000 A 
ATOM     33  C   UNL     1      -4.464  16.283  22.098  0.00  0.00    +0.000 A 
ATOM     34  C   UNL     1      -5.692  15.995  22.686  0.00  0.00    +0.000 A 
ATOM     35 CL   UNL     1      -7.019  17.067  22.461  0.00  0.00    +0.000 Cl
ATOM     36  C   UNL     1      -5.852  14.846  23.461  0.00  0.00    +0.000 A 
ATOM     37  C   UNL     1      -4.775  13.973  23.649  0.00  0.00    +0.000 A 
ENDBRANCH  28  31
ENDBRANCH   4  25
TORSDOF 7
ENDMDL
