MODEL 1
REMARK VINA RESULT:      -8.4      0.000      0.000
REMARK  Name = 
REMARK  4 active torsions:
REMARK  status: ('A' for Active; 'I' for Inactive)
REMARK    1  A    between atoms: C_2  and  O_3
REMARK    2  A    between atoms: C_2  and  C_4
REMARK    3  A    between atoms: C_9  and  C_10
REMARK    4  A    between atoms: C_20  and  C_21
REMARK                            x       y       z     vdW  Elec       q    Type
REMARK                         _______ _______ _______ _____ _____    ______ ____
ROOT
ATOM      1  C   UNL     1       1.201  10.883  19.048  0.00  0.00    +0.000 A 
ATOM      2  C   UNL     1       0.442  10.202  19.993  0.00  0.00    +0.000 A 
ATOM      3  C   UNL     1       0.638   8.835  20.169  0.00  0.00    +0.000 A 
ATOM      4  C   UNL     1       1.582   8.141  19.427  0.00  0.00    +0.000 A 
ATOM      5  N   UNL     1       1.766   6.847  19.696  0.00  0.00    +0.000 NA
ATOM      6  C   UNL     1       2.727   6.190  18.994  0.00  0.00    +0.000 A 
ATOM      7  C   UNL     1       3.441   6.816  17.931  0.00  0.00    +0.000 A 
ATOM      8  N   UNL     1       4.380   6.135  17.152  0.00  0.00    +0.000 N 
ATOM      9  C   UNL     1       4.011   4.864  16.514  0.00  0.00    +0.000 C 
ATOM     10  C   UNL     1       5.247   3.955  16.472  0.00  0.00    +0.000 C 
ATOM     11  C   UNL     1       6.503   4.630  15.908  0.00  0.00    +0.000 C 
ATOM     12  C   UNL     1       6.681   6.074  16.407  0.00  0.00    +0.000 C 
ATOM     13  C   UNL     1       5.393   6.905  16.432  0.00  0.00    +0.000 C 
ATOM     14  N   UNL     1       3.240   8.149  17.697  0.00  0.00    +0.000 NA
ATOM     15  C   UNL     1       2.341   8.815  18.440  0.00  0.00    +0.000 A 
ATOM     16  C   UNL     1       2.142  10.185  18.275  0.00  0.00    +0.000 A 
ENDROOT
BRANCH   6  17
ATOM     17  C   UNL     1       2.952   4.804  19.471  0.00  0.00    +0.000 A 
ATOM     18  C   UNL     1       1.908   3.864  19.485  0.00  0.00    +0.000 A 
ATOM     19  C   UNL     1       2.165   2.508  19.704  0.00  0.00    +0.000 A 
ATOM     20  C   UNL     1       3.465   2.061  19.900  0.00  0.00    +0.000 A 
ATOM     21  C   UNL     1       4.495   2.986  19.996  0.00  0.00    +0.000 A 
ATOM     22  C   UNL     1       4.227   4.350  19.842  0.00  0.00    +0.000 A 
ENDBRANCH   6  17
BRANCH  11  23
ATOM     23  C   UNL     1       6.560   4.445  14.406  0.00  0.00    +0.000 A 
ATOM     24  C   UNL     1       5.749   3.522  13.742  0.00  0.00    +0.000 A 
ATOM     25  C   UNL     1       5.936   3.244  12.391  0.00  0.00    +0.000 A 
ATOM     26  C   UNL     1       6.912   3.926  11.673  0.00  0.00    +0.000 A 
ATOM     27  C   UNL     1       7.702   4.878  12.307  0.00  0.00    +0.000 A 
ATOM     28  C   UNL     1       7.534   5.132  13.667  0.00  0.00    +0.000 A 
ENDBRANCH  11  23
BRANCH   1  30
ATOM     29  O   UNL     1       0.376  12.983  19.784  0.00  0.00    +0.000 OA
ATOM     30  C   UNL     1       1.012  12.351  18.957  0.00  0.00    +0.000 C 
BRANCH  30  31
ATOM     31  O   UNL     1       1.555  12.909  17.857  0.00  0.00    +0.000 OA
ATOM     32  H   UNL     1       2.403  13.367  17.993  0.00  0.00    +0.000 HD
ENDBRANCH  30  31
ENDBRANCH   1  30
TORSDOF 4
ENDMDL
MODEL 2
REMARK VINA RESULT:      -7.9      0.591      1.039
REMARK  Name = 
REMARK  4 active torsions:
REMARK  status: ('A' for Active; 'I' for Inactive)
REMARK    1  A    between atoms: C_2  and  O_3
REMARK    2  A    between atoms: C_2  and  C_4
REMARK    3  A    between atoms: C_9  and  C_10
REMARK    4  A    between atoms: C_20  and  C_21
REMARK                            x       y       z     vdW  Elec       q    Type
REMARK                         _______ _______ _______ _____ _____    ______ ____
ROOT
ATOM      1  C   UNL     1       1.287  11.210  18.951  0.00  0.00    +0.000 A 
ATOM      2  C   UNL     1       0.418  10.574  19.830  0.00  0.00    +0.000 A 
ATOM      3  C   UNL     1       0.503   9.195  19.997  0.00  0.00    +0.000 A 
ATOM      4  C   UNL     1       1.445   8.443  19.309  0.00  0.00    +0.000 A 
ATOM      5  N   UNL     1       1.516   7.136  19.568  0.00  0.00    +0.000 NA
ATOM      6  C   UNL     1       2.474   6.419  18.923  0.00  0.00    +0.000 A 
ATOM      7  C   UNL     1       3.303   7.005  17.922  0.00  0.00    +0.000 A 
ATOM      8  N   UNL     1       4.243   6.266  17.197  0.00  0.00    +0.000 N 
ATOM      9  C   UNL     1       3.829   5.032  16.515  0.00  0.00    +0.000 C 
ATOM     10  C   UNL     1       4.996   4.037  16.542  0.00  0.00    +0.000 C 
ATOM     11  C   UNL     1       6.334   4.626  16.076  0.00  0.00    +0.000 C 
ATOM     12  C   UNL     1       6.579   6.047  16.610  0.00  0.00    +0.000 C 
ATOM     13  C   UNL     1       5.355   6.969  16.561  0.00  0.00    +0.000 C 
ATOM     14  N   UNL     1       3.214   8.352  17.697  0.00  0.00    +0.000 NA
ATOM     15  C   UNL     1       2.316   9.071  18.388  0.00  0.00    +0.000 A 
ATOM     16  C   UNL     1       2.228  10.454  18.232  0.00  0.00    +0.000 A 
ENDROOT
BRANCH   6  17
ATOM     17  C   UNL     1       2.565   5.016  19.391  0.00  0.00    +0.000 A 
ATOM     18  C   UNL     1       3.718   4.541  20.037  0.00  0.00    +0.000 A 
ATOM     19  C   UNL     1       3.720   3.304  20.686  0.00  0.00    +0.000 A 
ATOM     20  C   UNL     1       2.573   2.522  20.716  0.00  0.00    +0.000 A 
ATOM     21  C   UNL     1       1.458   2.924  19.994  0.00  0.00    +0.000 A 
ATOM     22  C   UNL     1       1.479   4.132  19.290  0.00  0.00    +0.000 A 
ENDBRANCH   6  17
BRANCH  11  23
ATOM     23  C   UNL     1       6.481   4.454  14.579  0.00  0.00    +0.000 A 
ATOM     24  C   UNL     1       5.715   3.535  13.859  0.00  0.00    +0.000 A 
ATOM     25  C   UNL     1       5.984   3.271  12.519  0.00  0.00    +0.000 A 
ATOM     26  C   UNL     1       6.998   3.962  11.867  0.00  0.00    +0.000 A 
ATOM     27  C   UNL     1       7.745   4.911  12.556  0.00  0.00    +0.000 A 
ATOM     28  C   UNL     1       7.495   5.152  13.905  0.00  0.00    +0.000 A 
ENDBRANCH  11  23
BRANCH   1  30
ATOM     29  O   UNL     1       1.943  13.418  19.520  0.00  0.00    +0.000 OA
ATOM     30  C   UNL     1       1.211  12.689  18.872  0.00  0.00    +0.000 C 
BRANCH  30  31
ATOM     31  O   UNL     1       0.232  13.147  18.069  0.00  0.00    +0.000 OA
ATOM     32  H   UNL     1      -0.503  13.600  18.519  0.00  0.00    +0.000 HD
ENDBRANCH  30  31
ENDBRANCH   1  30
TORSDOF 4
ENDMDL
MODEL 3
REMARK VINA RESULT:      -7.9      3.261      7.817
REMARK  Name = 
REMARK  4 active torsions:
REMARK  status: ('A' for Active; 'I' for Inactive)
REMARK    1  A    between atoms: C_2  and  O_3
REMARK    2  A    between atoms: C_2  and  C_4
REMARK    3  A    between atoms: C_9  and  C_10
REMARK    4  A    between atoms: C_20  and  C_21
REMARK                            x       y       z     vdW  Elec       q    Type
REMARK                         _______ _______ _______ _____ _____    ______ ____
ROOT
ATOM      1  C   UNL     1       6.670   4.957  14.548  0.00  0.00    +0.000 A 
ATOM      2  C   UNL     1       6.745   3.716  15.169  0.00  0.00    +0.000 A 
ATOM      3  C   UNL     1       5.963   3.467  16.294  0.00  0.00    +0.000 A 
ATOM      4  C   UNL     1       5.105   4.431  16.802  0.00  0.00    +0.000 A 
ATOM      5  N   UNL     1       4.335   4.101  17.841  0.00  0.00    +0.000 NA
ATOM      6  C   UNL     1       3.465   5.038  18.301  0.00  0.00    +0.000 A 
ATOM      7  C   UNL     1       3.443   6.364  17.776  0.00  0.00    +0.000 A 
ATOM      8  N   UNL     1       2.605   7.360  18.285  0.00  0.00    +0.000 N 
ATOM      9  C   UNL     1       2.605   7.643  19.727  0.00  0.00    +0.000 C 
ATOM     10  C   UNL     1       1.188   8.057  20.148  0.00  0.00    +0.000 C 
ATOM     11  C   UNL     1       0.564   9.146  19.266  0.00  0.00    +0.000 C 
ATOM     12  C   UNL     1       0.843   8.935  17.768  0.00  0.00    +0.000 C 
ATOM     13  C   UNL     1       2.279   8.507  17.440  0.00  0.00    +0.000 C 
ATOM     14  N   UNL     1       4.233   6.659  16.698  0.00  0.00    +0.000 NA
ATOM     15  C   UNL     1       5.041   5.709  16.200  0.00  0.00    +0.000 A 
ATOM     16  C   UNL     1       5.821   5.947  15.070  0.00  0.00    +0.000 A 
ENDROOT
BRANCH   6  17
ATOM     17  C   UNL     1       2.557   4.524  19.354  0.00  0.00    +0.000 A 
ATOM     18  C   UNL     1       1.296   3.998  19.030  0.00  0.00    +0.000 A 
ATOM     19  C   UNL     1       0.543   3.301  19.979  0.00  0.00    +0.000 A 
ATOM     20  C   UNL     1       1.036   3.103  21.262  0.00  0.00    +0.000 A 
ATOM     21  C   UNL     1       2.230   3.706  21.632  0.00  0.00    +0.000 A 
ATOM     22  C   UNL     1       2.951   4.459  20.700  0.00  0.00    +0.000 A 
ENDBRANCH   6  17
BRANCH  11  23
ATOM     23  C   UNL     1       0.913  10.515  19.811  0.00  0.00    +0.000 A 
ATOM     24  C   UNL     1       0.512  10.931  21.083  0.00  0.00    +0.000 A 
ATOM     25  C   UNL     1       0.693  12.247  21.497  0.00  0.00    +0.000 A 
ATOM     26  C   UNL     1       1.323  13.157  20.656  0.00  0.00    +0.000 A 
ATOM     27  C   UNL     1       1.766  12.752  19.401  0.00  0.00    +0.000 A 
ATOM     28  C   UNL     1       1.556  11.442  18.977  0.00  0.00    +0.000 A 
ENDBRANCH  11  23
BRANCH   1  30
ATOM     29  O   UNL     1       7.161   4.603  12.254  0.00  0.00    +0.000 OA
ATOM     30  C   UNL     1       7.458   5.144  13.306  0.00  0.00    +0.000 C 
BRANCH  30  31
ATOM     31  O   UNL     1       8.554   5.912  13.460  0.00  0.00    +0.000 OA
ATOM     32  H   UNL     1       8.415   6.752  13.933  0.00  0.00    +0.000 HD
ENDBRANCH  30  31
ENDBRANCH   1  30
TORSDOF 4
ENDMDL
MODEL 4
REMARK VINA RESULT:      -7.8      0.688      1.347
REMARK  Name = 
REMARK  4 active torsions:
REMARK  status: ('A' for Active; 'I' for Inactive)
REMARK    1  A    between atoms: C_2  and  O_3
REMARK    2  A    between atoms: C_2  and  C_4
REMARK    3  A    between atoms: C_9  and  C_10
REMARK    4  A    between atoms: C_20  and  C_21
REMARK                            x       y       z     vdW  Elec       q    Type
REMARK                         _______ _______ _______ _____ _____    ______ ____
ROOT
ATOM      1  C   UNL     1       1.534  11.344  18.689  0.00  0.00    +0.000 A 
ATOM      2  C   UNL     1       0.581  10.742  19.504  0.00  0.00    +0.000 A 
ATOM      3  C   UNL     1       0.600   9.360  19.671  0.00  0.00    +0.000 A 
ATOM      4  C   UNL     1       1.555   8.573  19.046  0.00  0.00    +0.000 A 
ATOM      5  N   UNL     1       1.556   7.263  19.305  0.00  0.00    +0.000 NA
ATOM      6  C   UNL     1       2.526   6.509  18.724  0.00  0.00    +0.000 A 
ATOM      7  C   UNL     1       3.445   7.062  17.784  0.00  0.00    +0.000 A 
ATOM      8  N   UNL     1       4.402   6.287  17.123  0.00  0.00    +0.000 N 
ATOM      9  C   UNL     1       3.986   5.072  16.408  0.00  0.00    +0.000 C 
ATOM     10  C   UNL     1       5.108   4.030  16.512  0.00  0.00    +0.000 C 
ATOM     11  C   UNL     1       6.498   4.565  16.141  0.00  0.00    +0.000 C 
ATOM     12  C   UNL     1       6.763   5.975  16.697  0.00  0.00    +0.000 C 
ATOM     13  C   UNL     1       5.582   6.945  16.567  0.00  0.00    +0.000 C 
ATOM     14  N   UNL     1       3.426   8.411  17.559  0.00  0.00    +0.000 NA
ATOM     15  C   UNL     1       2.512   9.166  18.190  0.00  0.00    +0.000 A 
ATOM     16  C   UNL     1       2.490  10.551  18.034  0.00  0.00    +0.000 A 
ENDROOT
BRANCH   6  17
ATOM     17  C   UNL     1       2.529   5.102  19.191  0.00  0.00    +0.000 A 
ATOM     18  C   UNL     1       3.283   4.712  20.310  0.00  0.00    +0.000 A 
ATOM     19  C   UNL     1       3.105   3.455  20.894  0.00  0.00    +0.000 A 
ATOM     20  C   UNL     1       2.165   2.569  20.383  0.00  0.00    +0.000 A 
ATOM     21  C   UNL     1       1.488   2.893  19.217  0.00  0.00    +0.000 A 
ATOM     22  C   UNL     1       1.715   4.125  18.596  0.00  0.00    +0.000 A 
ENDBRANCH   6  17
BRANCH  11  23
ATOM     23  C   UNL     1       6.740   4.389  14.657  0.00  0.00    +0.000 A 
ATOM     24  C   UNL     1       7.626   5.205  13.949  0.00  0.00    +0.000 A 
ATOM     25  C   UNL     1       7.706   5.140  12.561  0.00  0.00    +0.000 A 
ATOM     26  C   UNL     1       6.931   4.220  11.865  0.00  0.00    +0.000 A 
ATOM     27  C   UNL     1       6.073   3.371  12.555  0.00  0.00    +0.000 A 
ATOM     28  C   UNL     1       5.971   3.459  13.942  0.00  0.00    +0.000 A 
ENDBRANCH  11  23
BRANCH   1  30
ATOM     29  O   UNL     1       0.651  13.501  19.130  0.00  0.00    +0.000 OA
ATOM     30  C   UNL     1       1.523  12.824  18.611  0.00  0.00    +0.000 C 
BRANCH  30  31
ATOM     31  O   UNL     1       2.522  13.344  17.872  0.00  0.00    +0.000 OA
ATOM     32  H   UNL     1       2.428  14.285  17.642  0.00  0.00    +0.000 HD
ENDBRANCH  30  31
ENDBRANCH   1  30
TORSDOF 4
ENDMDL
MODEL 5
REMARK VINA RESULT:      -7.5      1.462      1.734
REMARK  Name = 
REMARK  4 active torsions:
REMARK  status: ('A' for Active; 'I' for Inactive)
REMARK    1  A    between atoms: C_2  and  O_3
REMARK    2  A    between atoms: C_2  and  C_4
REMARK    3  A    between atoms: C_9  and  C_10
REMARK    4  A    between atoms: C_20  and  C_21
REMARK                            x       y       z     vdW  Elec       q    Type
REMARK                         _______ _______ _______ _____ _____    ______ ____
ROOT
ATOM      1  C   UNL     1       0.519  10.841  20.657  0.00  0.00    +0.000 A 
ATOM      2  C   UNL     1      -0.407  10.132  21.414  0.00  0.00    +0.000 A 
ATOM      3  C   UNL     1      -0.352   8.741  21.435  0.00  0.00    +0.000 A 
ATOM      4  C   UNL     1       0.616   8.049  20.721  0.00  0.00    +0.000 A 
ATOM      5  N   UNL     1       0.654   6.720  20.841  0.00  0.00    +0.000 NA
ATOM      6  C   UNL     1       1.635   6.057  20.174  0.00  0.00    +0.000 A 
ATOM      7  C   UNL     1       2.528   6.730  19.289  0.00  0.00    +0.000 A 
ATOM      8  N   UNL     1       3.496   6.054  18.542  0.00  0.00    +0.000 N 
ATOM      9  C   UNL     1       3.103   4.910  17.707  0.00  0.00    +0.000 C 
ATOM     10  C   UNL     1       4.252   3.893  17.691  0.00  0.00    +0.000 C 
ATOM     11  C   UNL     1       5.623   4.501  17.365  0.00  0.00    +0.000 C 
ATOM     12  C   UNL     1       5.859   5.851  18.062  0.00  0.00    +0.000 C 
ATOM     13  C   UNL     1       4.653   6.798  18.047  0.00  0.00    +0.000 C 
ATOM     14  N   UNL     1       2.472   8.094  19.208  0.00  0.00    +0.000 NA
ATOM     15  C   UNL     1       1.546   8.754  19.923  0.00  0.00    +0.000 A 
ATOM     16  C   UNL     1       1.487  10.147  19.913  0.00  0.00    +0.000 A 
ENDROOT
BRANCH   6  17
ATOM     17  C   UNL     1       1.679   4.610  20.492  0.00  0.00    +0.000 A 
ATOM     18  C   UNL     1       0.889   3.688  19.785  0.00  0.00    +0.000 A 
ATOM     19  C   UNL     1       1.100   2.313  19.914  0.00  0.00    +0.000 A 
ATOM     20  C   UNL     1       2.109   1.830  20.737  0.00  0.00    +0.000 A 
ATOM     21  C   UNL     1       2.829   2.718  21.524  0.00  0.00    +0.000 A 
ATOM     22  C   UNL     1       2.571   4.090  21.444  0.00  0.00    +0.000 A 
ENDBRANCH   6  17
BRANCH  11  23
ATOM     23  C   UNL     1       5.852   4.488  15.868  0.00  0.00    +0.000 A 
ATOM     24  C   UNL     1       5.060   3.729  15.003  0.00  0.00    +0.000 A 
ATOM     25  C   UNL     1       5.391   3.596  13.658  0.00  0.00    +0.000 A 
ATOM     26  C   UNL     1       6.500   4.263  13.149  0.00  0.00    +0.000 A 
ATOM     27  C   UNL     1       7.278   5.056  13.986  0.00  0.00    +0.000 A 
ATOM     28  C   UNL     1       6.961   5.164  15.338  0.00  0.00    +0.000 A 
ENDBRANCH  11  23
BRANCH   1  30
ATOM     29  O   UNL     1       1.110  12.956  21.555  0.00  0.00    +0.000 OA
ATOM     30  C   UNL     1       0.469  12.320  20.735  0.00  0.00    +0.000 C 
BRANCH  30  31
ATOM     31  O   UNL     1      -0.384  12.889  19.862  0.00  0.00    +0.000 OA
ATOM     32  H   UNL     1      -0.858  12.273  19.276  0.00  0.00    +0.000 HD
ENDBRANCH  30  31
ENDBRANCH   1  30
TORSDOF 4
ENDMDL
MODEL 6
REMARK VINA RESULT:      -7.4      3.280      7.817
REMARK  Name = 
REMARK  4 active torsions:
REMARK  status: ('A' for Active; 'I' for Inactive)
REMARK    1  A    between atoms: C_2  and  O_3
REMARK    2  A    between atoms: C_2  and  C_4
REMARK    3  A    between atoms: C_9  and  C_10
REMARK    4  A    between atoms: C_20  and  C_21
REMARK                            x       y       z     vdW  Elec       q    Type
REMARK                         _______ _______ _______ _____ _____    ______ ____
ROOT
ATOM      1  C   UNL     1       6.753   5.006  14.589  0.00  0.00    +0.000 A 
ATOM      2  C   UNL     1       6.840   3.780  15.239  0.00  0.00    +0.000 A 
ATOM      3  C   UNL     1       6.048   3.543  16.360  0.00  0.00    +0.000 A 
ATOM      4  C   UNL     1       5.167   4.504  16.834  0.00  0.00    +0.000 A 
ATOM      5  N   UNL     1       4.389   4.185  17.870  0.00  0.00    +0.000 NA
ATOM      6  C   UNL     1       3.497   5.118  18.297  0.00  0.00    +0.000 A 
ATOM      7  C   UNL     1       3.460   6.430  17.741  0.00  0.00    +0.000 A 
ATOM      8  N   UNL     1       2.599   7.424  18.216  0.00  0.00    +0.000 N 
ATOM      9  C   UNL     1       2.574   7.740  19.651  0.00  0.00    +0.000 C 
ATOM     10  C   UNL     1       1.146   8.138  20.044  0.00  0.00    +0.000 C 
ATOM     11  C   UNL     1       0.516   9.197  19.129  0.00  0.00    +0.000 C 
ATOM     12  C   UNL     1       0.818   8.957  17.641  0.00  0.00    +0.000 C 
ATOM     13  C   UNL     1       2.265   8.546  17.341  0.00  0.00    +0.000 C 
ATOM     14  N   UNL     1       4.259   6.714  16.668  0.00  0.00    +0.000 NA
ATOM     15  C   UNL     1       5.089   5.767  16.202  0.00  0.00    +0.000 A 
ATOM     16  C   UNL     1       5.881   5.993  15.077  0.00  0.00    +0.000 A 
ENDROOT
BRANCH   6  17
ATOM     17  C   UNL     1       2.584   4.613  19.350  0.00  0.00    +0.000 A 
ATOM     18  C   UNL     1       1.327   4.079  19.023  0.00  0.00    +0.000 A 
ATOM     19  C   UNL     1       0.569   3.390  19.974  0.00  0.00    +0.000 A 
ATOM     20  C   UNL     1       1.054   3.208  21.262  0.00  0.00    +0.000 A 
ATOM     21  C   UNL     1       2.243   3.818  21.634  0.00  0.00    +0.000 A 
ATOM     22  C   UNL     1       2.968   4.564  20.699  0.00  0.00    +0.000 A 
ENDBRANCH   6  17
BRANCH  11  23
ATOM     23  C   UNL     1       0.834  10.584  19.648  0.00  0.00    +0.000 A 
ATOM     24  C   UNL     1       1.548  11.514  18.888  0.00  0.00    +0.000 A 
ATOM     25  C   UNL     1       1.977  12.715  19.443  0.00  0.00    +0.000 A 
ATOM     26  C   UNL     1       1.655  13.023  20.760  0.00  0.00    +0.000 A 
ATOM     27  C   UNL     1       0.910  12.128  21.520  0.00  0.00    +0.000 A 
ATOM     28  C   UNL     1       0.508  10.912  20.972  0.00  0.00    +0.000 A 
ENDBRANCH  11  23
BRANCH   1  30
ATOM     29  O   UNL     1       8.505   5.939  13.290  0.00  0.00    +0.000 OA
ATOM     30  C   UNL     1       7.555   5.177  13.354  0.00  0.00    +0.000 C 
BRANCH  30  31
ATOM     31  O   UNL     1       7.106   4.465  12.303  0.00  0.00    +0.000 OA
ATOM     32  H   UNL     1       6.850   3.546  12.497  0.00  0.00    +0.000 HD
ENDBRANCH  30  31
ENDBRANCH   1  30
TORSDOF 4
ENDMDL
MODEL 7
REMARK VINA RESULT:      -7.4      1.223      1.724
REMARK  Name = 
REMARK  4 active torsions:
REMARK  status: ('A' for Active; 'I' for Inactive)
REMARK    1  A    between atoms: C_2  and  O_3
REMARK    2  A    between atoms: C_2  and  C_4
REMARK    3  A    between atoms: C_9  and  C_10
REMARK    4  A    between atoms: C_20  and  C_21
REMARK                            x       y       z     vdW  Elec       q    Type
REMARK                         _______ _______ _______ _____ _____    ______ ____
ROOT
ATOM      1  C   UNL     1       0.768  11.252  19.445  0.00  0.00    +0.000 A 
ATOM      2  C   UNL     1      -0.187  10.636  20.246  0.00  0.00    +0.000 A 
ATOM      3  C   UNL     1      -0.134   9.257  20.433  0.00  0.00    +0.000 A 
ATOM      4  C   UNL     1       0.857   8.488  19.841  0.00  0.00    +0.000 A 
ATOM      5  N   UNL     1       0.888   7.183  20.118  0.00  0.00    +0.000 NA
ATOM      6  C   UNL     1       1.892   6.448  19.570  0.00  0.00    +0.000 A 
ATOM      7  C   UNL     1       2.817   7.014  18.644  0.00  0.00    +0.000 A 
ATOM      8  N   UNL     1       3.811   6.257  18.017  0.00  0.00    +0.000 N 
ATOM      9  C   UNL     1       3.446   5.021  17.310  0.00  0.00    +0.000 C 
ATOM     10  C   UNL     1       4.593   4.013  17.454  0.00  0.00    +0.000 C 
ATOM     11  C   UNL     1       5.976   4.582  17.108  0.00  0.00    +0.000 C 
ATOM     12  C   UNL     1       6.189   6.006  17.650  0.00  0.00    +0.000 C 
ATOM     13  C   UNL     1       4.985   6.941  17.479  0.00  0.00    +0.000 C 
ATOM     14  N   UNL     1       2.766   8.359  18.400  0.00  0.00    +0.000 NA
ATOM     15  C   UNL     1       1.817   9.096  18.999  0.00  0.00    +0.000 A 
ATOM     16  C   UNL     1       1.761  10.478  18.823  0.00  0.00    +0.000 A 
ENDROOT
BRANCH   6  17
ATOM     17  C   UNL     1       1.923   5.048  20.058  0.00  0.00    +0.000 A 
ATOM     18  C   UNL     1       2.579   4.711  21.252  0.00  0.00    +0.000 A 
ATOM     19  C   UNL     1       2.411   3.452  21.835  0.00  0.00    +0.000 A 
ATOM     20  C   UNL     1       1.577   2.511  21.246  0.00  0.00    +0.000 A 
ATOM     21  C   UNL     1       1.005   2.785  20.012  0.00  0.00    +0.000 A 
ATOM     22  C   UNL     1       1.228   4.022  19.399  0.00  0.00    +0.000 A 
ENDBRANCH   6  17
BRANCH  11  23
ATOM     23  C   UNL     1       6.258   4.393  15.632  0.00  0.00    +0.000 A 
ATOM     24  C   UNL     1       7.297   5.065  14.984  0.00  0.00    +0.000 A 
ATOM     25  C   UNL     1       7.432   5.010  13.600  0.00  0.00    +0.000 A 
ATOM     26  C   UNL     1       6.553   4.241  12.848  0.00  0.00    +0.000 A 
ATOM     27  C   UNL     1       5.537   3.531  13.480  0.00  0.00    +0.000 A 
ATOM     28  C   UNL     1       5.384   3.612  14.862  0.00  0.00    +0.000 A 
ENDBRANCH  11  23
BRANCH   1  30
ATOM     29  O   UNL     1      -0.276  13.329  18.967  0.00  0.00    +0.000 OA
ATOM     30  C   UNL     1       0.717  12.731  19.345  0.00  0.00    +0.000 C 
BRANCH  30  31
ATOM     31  O   UNL     1       1.877  13.343  19.654  0.00  0.00    +0.000 OA
ATOM     32  H   UNL     1       1.796  14.259  19.975  0.00  0.00    +0.000 HD
ENDBRANCH  30  31
ENDBRANCH   1  30
TORSDOF 4
ENDMDL
MODEL 8
REMARK VINA RESULT:      -7.3      8.081     10.161
REMARK  Name = 
REMARK  4 active torsions:
REMARK  status: ('A' for Active; 'I' for Inactive)
REMARK    1  A    between atoms: C_2  and  O_3
REMARK    2  A    between atoms: C_2  and  C_4
REMARK    3  A    between atoms: C_9  and  C_10
REMARK    4  A    between atoms: C_20  and  C_21
REMARK                            x       y       z     vdW  Elec       q    Type
REMARK                         _______ _______ _______ _____ _____    ______ ____
ROOT
ATOM      1  C   UNL     1      -6.879  13.463  22.648  0.00  0.00    +0.000 A 
ATOM      2  C   UNL     1      -7.732  13.022  21.642  0.00  0.00    +0.000 A 
ATOM      3  C   UNL     1      -7.192  12.528  20.457  0.00  0.00    +0.000 A 
ATOM      4  C   UNL     1      -5.821  12.461  20.264  0.00  0.00    +0.000 A 
ATOM      5  N   UNL     1      -5.372  11.913  19.133  0.00  0.00    +0.000 NA
ATOM      6  C   UNL     1      -4.026  11.810  18.975  0.00  0.00    +0.000 A 
ATOM      7  C   UNL     1      -3.115  12.362  19.923  0.00  0.00    +0.000 A 
ATOM      8  N   UNL     1      -1.729  12.328  19.742  0.00  0.00    +0.000 N 
ATOM      9  C   UNL     1      -1.147  12.828  18.488  0.00  0.00    +0.000 C 
ATOM     10  C   UNL     1       0.097  11.995  18.155  0.00  0.00    +0.000 C 
ATOM     11  C   UNL     1       1.083  11.845  19.321  0.00  0.00    +0.000 C 
ATOM     12  C   UNL     1       0.383  11.596  20.667  0.00  0.00    +0.000 C 
ATOM     13  C   UNL     1      -0.861  12.460  20.910  0.00  0.00    +0.000 C 
ATOM     14  N   UNL     1      -3.611  12.898  21.080  0.00  0.00    +0.000 NA
ATOM     15  C   UNL     1      -4.941  12.934  21.265  0.00  0.00    +0.000 A 
ATOM     16  C   UNL     1      -5.489  13.420  22.451  0.00  0.00    +0.000 A 
ENDROOT
BRANCH   6  17
ATOM     17  C   UNL     1      -3.637  11.057  17.759  0.00  0.00    +0.000 A 
ATOM     18  C   UNL     1      -4.018  11.498  16.481  0.00  0.00    +0.000 A 
ATOM     19  C   UNL     1      -3.461  10.933  15.331  0.00  0.00    +0.000 A 
ATOM     20  C   UNL     1      -2.506   9.930  15.431  0.00  0.00    +0.000 A 
ATOM     21  C   UNL     1      -2.196   9.407  16.678  0.00  0.00    +0.000 A 
ATOM     22  C   UNL     1      -2.805   9.929  17.824  0.00  0.00    +0.000 A 
ENDBRANCH   6  17
BRANCH  11  23
ATOM     23  C   UNL     1       2.082  12.983  19.302  0.00  0.00    +0.000 A 
ATOM     24  C   UNL     1       2.605  13.530  20.476  0.00  0.00    +0.000 A 
ATOM     25  C   UNL     1       3.386  14.681  20.444  0.00  0.00    +0.000 A 
ATOM     26  C   UNL     1       3.694  15.276  19.227  0.00  0.00    +0.000 A 
ATOM     27  C   UNL     1       3.217  14.722  18.043  0.00  0.00    +0.000 A 
ATOM     28  C   UNL     1       2.410  13.587  18.079  0.00  0.00    +0.000 A 
ENDBRANCH  11  23
BRANCH   1  30
ATOM     29  O   UNL     1      -7.578  15.075  24.243  0.00  0.00    +0.000 OA
ATOM     30  C   UNL     1      -7.500  13.901  23.921  0.00  0.00    +0.000 C 
BRANCH  30  31
ATOM     31  O   UNL     1      -7.916  12.889  24.707  0.00  0.00    +0.000 OA
ATOM     32  H   UNL     1      -7.636  11.999  24.430  0.00  0.00    +0.000 HD
ENDBRANCH  30  31
ENDBRANCH   1  30
TORSDOF 4
ENDMDL
MODEL 9
REMARK VINA RESULT:      -7.2      1.470      1.989
REMARK  Name = 
REMARK  4 active torsions:
REMARK  status: ('A' for Active; 'I' for Inactive)
REMARK    1  A    between atoms: C_2  and  O_3
REMARK    2  A    between atoms: C_2  and  C_4
REMARK    3  A    between atoms: C_9  and  C_10
REMARK    4  A    between atoms: C_20  and  C_21
REMARK                            x       y       z     vdW  Elec       q    Type
REMARK                         _______ _______ _______ _____ _____    ______ ____
ROOT
ATOM      1  C   UNL     1       0.584  10.964  20.483  0.00  0.00    +0.000 A 
ATOM      2  C   UNL     1      -0.386  10.296  21.223  0.00  0.00    +0.000 A 
ATOM      3  C   UNL     1      -0.358   8.905  21.288  0.00  0.00    +0.000 A 
ATOM      4  C   UNL     1       0.623   8.174  20.637  0.00  0.00    +0.000 A 
ATOM      5  N   UNL     1       0.631   6.849  20.799  0.00  0.00    +0.000 NA
ATOM      6  C   UNL     1       1.625   6.148  20.193  0.00  0.00    +0.000 A 
ATOM      7  C   UNL     1       2.566   6.776  19.325  0.00  0.00    +0.000 A 
ATOM      8  N   UNL     1       3.550   6.060  18.639  0.00  0.00    +0.000 N 
ATOM      9  C   UNL     1       3.169   4.897  17.825  0.00  0.00    +0.000 C 
ATOM     10  C   UNL     1       4.298   3.860  17.886  0.00  0.00    +0.000 C 
ATOM     11  C   UNL     1       5.692   4.433  17.598  0.00  0.00    +0.000 C 
ATOM     12  C   UNL     1       5.926   5.800  18.263  0.00  0.00    +0.000 C 
ATOM     13  C   UNL     1       4.740   6.767  18.169  0.00  0.00    +0.000 C 
ATOM     14  N   UNL     1       2.539   8.138  19.200  0.00  0.00    +0.000 NA
ATOM     15  C   UNL     1       1.599   8.837  19.856  0.00  0.00    +0.000 A 
ATOM     16  C   UNL     1       1.567  10.230  19.801  0.00  0.00    +0.000 A 
ENDROOT
BRANCH   6  17
ATOM     17  C   UNL     1       1.629   4.710  20.556  0.00  0.00    +0.000 A 
ATOM     18  C   UNL     1       0.801   3.793  19.890  0.00  0.00    +0.000 A 
ATOM     19  C   UNL     1       0.971   2.416  20.060  0.00  0.00    +0.000 A 
ATOM     20  C   UNL     1       1.975   1.928  20.886  0.00  0.00    +0.000 A 
ATOM     21  C   UNL     1       2.733   2.817  21.634  0.00  0.00    +0.000 A 
ATOM     22  C   UNL     1       2.517   4.193  21.513  0.00  0.00    +0.000 A 
ENDBRANCH   6  17
BRANCH  11  23
ATOM     23  C   UNL     1       5.981   4.369  16.112  0.00  0.00    +0.000 A 
ATOM     24  C   UNL     1       7.088   5.002  15.544  0.00  0.00    +0.000 A 
ATOM     25  C   UNL     1       7.242   5.076  14.163  0.00  0.00    +0.000 A 
ATOM     26  C   UNL     1       6.308   4.472  13.330  0.00  0.00    +0.000 A 
ATOM     27  C   UNL     1       5.220   3.801  13.877  0.00  0.00    +0.000 A 
ATOM     28  C   UNL     1       5.052   3.755  15.260  0.00  0.00    +0.000 A 
ENDBRANCH  11  23
BRANCH   1  30
ATOM     29  O   UNL     1      -0.194  13.103  19.815  0.00  0.00    +0.000 OA
ATOM     30  C   UNL     1       0.559  12.446  20.514  0.00  0.00    +0.000 C 
BRANCH  30  31
ATOM     31  O   UNL     1       1.476  12.995  21.334  0.00  0.00    +0.000 OA
ATOM     32  H   UNL     1       1.606  13.955  21.236  0.00  0.00    +0.000 HD
ENDBRANCH  30  31
ENDBRANCH   1  30
TORSDOF 4
ENDMDL
