MODEL 1
REMARK VINA RESULT:      -8.5      0.000      0.000
REMARK  Name = 
REMARK  6 active torsions:
REMARK  status: ('A' for Active; 'I' for Inactive)
REMARK    1  A    between atoms: C_1  and  O_2
REMARK    2  A    between atoms: O_2  and  C_3
REMARK    3  A    between atoms: C_3  and  C_5
REMARK    4  A    between atoms: C_6  and  C_7
REMARK    5  A    between atoms: C_11  and  C_12
REMARK    6  A    between atoms: C_19  and  C_20
REMARK                            x       y       z     vdW  Elec       q    Type
REMARK                         _______ _______ _______ _____ _____    ______ ____
ROOT
ATOM      1  C   UNL     1       4.434   5.533  16.447  0.00  0.00    +0.000 C 
ATOM      2  C   UNL     1       4.920   6.846  15.854  0.00  0.00    +0.000 C 
ATOM      3  N   UNL     1       6.145   7.073  16.582  0.00  0.00    +0.000 NA
ATOM      4  N   UNL     1       6.497   6.012  17.140  0.00  0.00    +0.000 NA
ATOM      5  C   UNL     1       5.763   4.707  16.771  0.00  0.00    +0.000 C 
ATOM      6  C   UNL     1       5.562   3.575  15.568  0.00  0.00    +0.000 C 
ATOM      7  C   UNL     1       6.353   3.975  14.363  0.00  0.00    +0.000 A 
ATOM      8  C   UNL     1       6.234   3.785  12.999  0.00  0.00    +0.000 A 
ATOM      9  C   UNL     1       5.549   2.596  12.400  0.00  0.00    +0.000 C 
ATOM     10  C   UNL     1       6.958   4.671  12.181  0.00  0.00    +0.000 A 
ATOM     11  C   UNL     1       7.839   5.623  12.730  0.00  0.00    +0.000 A 
ATOM     12  C   UNL     1       8.130   5.595  14.092  0.00  0.00    +0.000 A 
ATOM     13  C   UNL     1       7.394   4.717  14.849  0.00  0.00    +0.000 A 
ATOM     14  C   UNL     1       7.282   4.481  16.279  0.00  0.00    +0.000 C 
ATOM     15  O   UNL     1       8.214   4.067  16.961  0.00  0.00    +0.000 OA
ENDROOT
BRANCH   1  22
ATOM     16  C   UNL     1       2.779   4.763  18.326  0.00  0.00    +0.000 A 
ATOM     17  C   UNL     1       1.924   5.081  19.418  0.00  0.00    +0.000 A 
ATOM     18  C   UNL     1       1.091   4.080  20.171  0.00  0.00    +0.000 C 
ATOM     19  C   UNL     1       1.789   6.417  19.828  0.00  0.00    +0.000 A 
ATOM     20  C   UNL     1       2.526   7.417  19.226  0.00  0.00    +0.000 A 
ATOM     21  C   UNL     1       3.401   7.098  18.191  0.00  0.00    +0.000 A 
ATOM     22  C   UNL     1       3.548   5.781  17.697  0.00  0.00    +0.000 A 
BRANCH  16  23
ATOM     23  C   UNL     1       2.878   3.350  17.867  0.00  0.00    +0.000 C 
ATOM     24  O   UNL     1       2.210   2.879  16.961  0.00  0.00    +0.000 OA
BRANCH  23  26
ATOM     25  C   UNL     1       3.757   1.272  18.618  0.00  0.00    +0.000 C 
ATOM     26  O   UNL     1       3.796   2.704  18.626  0.00  0.00    +0.000 OA
ENDBRANCH  23  26
ENDBRANCH  16  23
ENDBRANCH   1  22
TORSDOF 3
ENDMDL
MODEL 2
REMARK VINA RESULT:      -6.7      9.801     14.045
REMARK  Name = 
REMARK  6 active torsions:
REMARK  status: ('A' for Active; 'I' for Inactive)
REMARK    1  A    between atoms: C_1  and  O_2
REMARK    2  A    between atoms: O_2  and  C_3
REMARK    3  A    between atoms: C_3  and  C_5
REMARK    4  A    between atoms: C_6  and  C_7
REMARK    5  A    between atoms: C_11  and  C_12
REMARK    6  A    between atoms: C_19  and  C_20
REMARK                            x       y       z     vdW  Elec       q    Type
REMARK                         _______ _______ _______ _____ _____    ______ ____
ROOT
ATOM      1  C   UNL     1      -2.868  13.275  21.428  0.00  0.00    +0.000 C 
ATOM      2  C   UNL     1      -3.735  14.353  20.799  0.00  0.00    +0.000 C 
ATOM      3  N   UNL     1      -5.053  13.771  20.884  0.00  0.00    +0.000 NA
ATOM      4  N   UNL     1      -5.033  12.819  21.694  0.00  0.00    +0.000 NA
ATOM      5  C   UNL     1      -3.777  12.623  22.568  0.00  0.00    +0.000 C 
ATOM      6  C   UNL     1      -2.924  13.251  23.851  0.00  0.00    +0.000 C 
ATOM      7  C   UNL     1      -3.585  14.505  24.330  0.00  0.00    +0.000 A 
ATOM      8  C   UNL     1      -3.162  15.669  24.944  0.00  0.00    +0.000 A 
ATOM      9  C   UNL     1      -1.958  15.729  25.831  0.00  0.00    +0.000 C 
ATOM     10  C   UNL     1      -4.030  16.771  24.852  0.00  0.00    +0.000 A 
ATOM     11  C   UNL     1      -5.304  16.656  24.264  0.00  0.00    +0.000 A 
ATOM     12  C   UNL     1      -5.791  15.402  23.904  0.00  0.00    +0.000 A 
ATOM     13  C   UNL     1      -4.906  14.358  24.007  0.00  0.00    +0.000 A 
ATOM     14  C   UNL     1      -4.959  12.960  23.611  0.00  0.00    +0.000 C 
ATOM     15  O   UNL     1      -5.744  12.157  24.106  0.00  0.00    +0.000 OA
ENDROOT
BRANCH   1  22
ATOM     16  C   UNL     1      -1.205  11.480  20.491  0.00  0.00    +0.000 A 
ATOM     17  C   UNL     1      -0.788  10.622  19.436  0.00  0.00    +0.000 A 
ATOM     18  C   UNL     1       0.434   9.744  19.479  0.00  0.00    +0.000 C 
ATOM     19  C   UNL     1      -1.519  10.589  18.238  0.00  0.00    +0.000 A 
ATOM     20  C   UNL     1      -2.674  11.331  18.096  0.00  0.00    +0.000 A 
ATOM     21  C   UNL     1      -3.108  12.134  19.147  0.00  0.00    +0.000 A 
ATOM     22  C   UNL     1      -2.394  12.251  20.362  0.00  0.00    +0.000 A 
BRANCH  16  23
ATOM     23  C   UNL     1      -0.395  11.544  21.739  0.00  0.00    +0.000 C 
ATOM     24  O   UNL     1       0.578  12.266  21.884  0.00  0.00    +0.000 OA
BRANCH  23  26
ATOM     25  C   UNL     1      -0.040   9.631  23.106  0.00  0.00    +0.000 C 
ATOM     26  O   UNL     1      -0.907  10.672  22.641  0.00  0.00    +0.000 OA
ENDBRANCH  23  26
ENDBRANCH  16  23
ENDBRANCH   1  22
TORSDOF 3
ENDMDL
MODEL 3
REMARK VINA RESULT:      -6.5      9.434     13.703
REMARK  Name = 
REMARK  6 active torsions:
REMARK  status: ('A' for Active; 'I' for Inactive)
REMARK    1  A    between atoms: C_1  and  O_2
REMARK    2  A    between atoms: O_2  and  C_3
REMARK    3  A    between atoms: C_3  and  C_5
REMARK    4  A    between atoms: C_6  and  C_7
REMARK    5  A    between atoms: C_11  and  C_12
REMARK    6  A    between atoms: C_19  and  C_20
REMARK                            x       y       z     vdW  Elec       q    Type
REMARK                         _______ _______ _______ _____ _____    ______ ____
ROOT
ATOM      1  C   UNL     1      -2.445  13.160  21.191  0.00  0.00    +0.000 C 
ATOM      2  C   UNL     1      -3.570  14.075  20.735  0.00  0.00    +0.000 C 
ATOM      3  N   UNL     1      -4.743  13.339  21.139  0.00  0.00    +0.000 NA
ATOM      4  N   UNL     1      -4.415  12.455  21.959  0.00  0.00    +0.000 NA
ATOM      5  C   UNL     1      -2.983  12.478  22.532  0.00  0.00    +0.000 C 
ATOM      6  C   UNL     1      -1.964  13.294  23.563  0.00  0.00    +0.000 C 
ATOM      7  C   UNL     1      -2.669  14.485  24.131  0.00  0.00    +0.000 A 
ATOM      8  C   UNL     1      -2.286  15.731  24.589  0.00  0.00    +0.000 A 
ATOM      9  C   UNL     1      -0.937  16.003  25.177  0.00  0.00    +0.000 C 
ATOM     10  C   UNL     1      -3.296  16.708  24.654  0.00  0.00    +0.000 A 
ATOM     11  C   UNL     1      -4.641  16.393  24.375  0.00  0.00    +0.000 A 
ATOM     12  C   UNL     1      -5.018  15.067  24.183  0.00  0.00    +0.000 A 
ATOM     13  C   UNL     1      -3.996  14.151  24.122  0.00  0.00    +0.000 A 
ATOM     14  C   UNL     1      -3.942  12.734  23.803  0.00  0.00    +0.000 C 
ATOM     15  O   UNL     1      -4.481  11.875  24.494  0.00  0.00    +0.000 OA
ENDROOT
BRANCH   1  22
ATOM     16  C   UNL     1      -0.800  11.523  19.975  0.00  0.00    +0.000 A 
ATOM     17  C   UNL     1      -0.510  10.654  18.887  0.00  0.00    +0.000 A 
ATOM     18  C   UNL     1       0.798   9.938  18.689  0.00  0.00    +0.000 C 
ATOM     19  C   UNL     1      -1.472  10.453  17.884  0.00  0.00    +0.000 A 
ATOM     20  C   UNL     1      -2.718  11.038  17.976  0.00  0.00    +0.000 A 
ATOM     21  C   UNL     1      -3.019  11.849  19.067  0.00  0.00    +0.000 A 
ATOM     22  C   UNL     1      -2.080  12.133  20.087  0.00  0.00    +0.000 A 
BRANCH  16  23
ATOM     23  C   UNL     1       0.245  11.768  21.008  0.00  0.00    +0.000 C 
ATOM     24  O   UNL     1       0.331  11.143  22.053  0.00  0.00    +0.000 OA
BRANCH  23  26
ATOM     25  C   UNL     1       1.078  13.955  21.428  0.00  0.00    +0.000 C 
ATOM     26  O   UNL     1       1.038  12.788  20.599  0.00  0.00    +0.000 OA
ENDBRANCH  23  26
ENDBRANCH  16  23
ENDBRANCH   1  22
TORSDOF 3
ENDMDL
MODEL 4
REMARK VINA RESULT:      -6.5      2.047      6.638
REMARK  Name = 
REMARK  6 active torsions:
REMARK  status: ('A' for Active; 'I' for Inactive)
REMARK    1  A    between atoms: C_1  and  O_2
REMARK    2  A    between atoms: O_2  and  C_3
REMARK    3  A    between atoms: C_3  and  C_5
REMARK    4  A    between atoms: C_6  and  C_7
REMARK    5  A    between atoms: C_11  and  C_12
REMARK    6  A    between atoms: C_19  and  C_20
REMARK                            x       y       z     vdW  Elec       q    Type
REMARK                         _______ _______ _______ _____ _____    ______ ____
ROOT
ATOM      1  C   UNL     1       4.157   4.414  16.735  0.00  0.00    +0.000 C 
ATOM      2  C   UNL     1       2.970   3.490  16.514  0.00  0.00    +0.000 C 
ATOM      3  N   UNL     1       3.446   2.246  17.072  0.00  0.00    +0.000 NA
ATOM      4  N   UNL     1       4.448   2.470  17.785  0.00  0.00    +0.000 NA
ATOM      5  C   UNL     1       4.806   3.933  18.114  0.00  0.00    +0.000 C 
ATOM      6  C   UNL     1       4.339   5.262  18.999  0.00  0.00    +0.000 C 
ATOM      7  C   UNL     1       3.069   4.960  19.730  0.00  0.00    +0.000 A 
ATOM      8  C   UNL     1       1.989   5.698  20.175  0.00  0.00    +0.000 A 
ATOM      9  C   UNL     1       2.089   7.145  20.544  0.00  0.00    +0.000 C 
ATOM     10  C   UNL     1       0.814   4.977  20.451  0.00  0.00    +0.000 A 
ATOM     11  C   UNL     1       0.783   3.570  20.384  0.00  0.00    +0.000 A 
ATOM     12  C   UNL     1       1.964   2.858  20.196  0.00  0.00    +0.000 A 
ATOM     13  C   UNL     1       3.084   3.606  19.925  0.00  0.00    +0.000 A 
ATOM     14  C   UNL     1       4.443   3.266  19.535  0.00  0.00    +0.000 C 
ATOM     15  O   UNL     1       5.208   2.644  20.265  0.00  0.00    +0.000 OA
ENDROOT
BRANCH   1  22
ATOM     16  C   UNL     1       6.315   5.150  15.446  0.00  0.00    +0.000 A 
ATOM     17  C   UNL     1       7.129   5.099  14.280  0.00  0.00    +0.000 A 
ATOM     18  C   UNL     1       8.401   5.881  14.090  0.00  0.00    +0.000 C 
ATOM     19  C   UNL     1       6.735   4.304  13.192  0.00  0.00    +0.000 A 
ATOM     20  C   UNL     1       5.599   3.523  13.265  0.00  0.00    +0.000 A 
ATOM     21  C   UNL     1       4.830   3.536  14.425  0.00  0.00    +0.000 A 
ATOM     22  C   UNL     1       5.143   4.349  15.539  0.00  0.00    +0.000 A 
BRANCH  16  23
ATOM     23  C   UNL     1       6.717   6.034  16.576  0.00  0.00    +0.000 C 
ATOM     24  O   UNL     1       6.305   7.171  16.731  0.00  0.00    +0.000 OA
BRANCH  23  26
ATOM     25  C   UNL     1       7.834   5.893  18.670  0.00  0.00    +0.000 C 
ATOM     26  O   UNL     1       7.607   5.373  17.355  0.00  0.00    +0.000 OA
ENDBRANCH  23  26
ENDBRANCH  16  23
ENDBRANCH   1  22
TORSDOF 3
ENDMDL
MODEL 5
REMARK VINA RESULT:      -6.5      8.412     11.479
REMARK  Name = 
REMARK  6 active torsions:
REMARK  status: ('A' for Active; 'I' for Inactive)
REMARK    1  A    between atoms: C_1  and  O_2
REMARK    2  A    between atoms: O_2  and  C_3
REMARK    3  A    between atoms: C_3  and  C_5
REMARK    4  A    between atoms: C_6  and  C_7
REMARK    5  A    between atoms: C_11  and  C_12
REMARK    6  A    between atoms: C_19  and  C_20
REMARK                            x       y       z     vdW  Elec       q    Type
REMARK                         _______ _______ _______ _____ _____    ______ ____
ROOT
ATOM      1  C   UNL     1      -3.098  11.340  19.154  0.00  0.00    +0.000 C 
ATOM      2  C   UNL     1      -2.699  10.318  18.102  0.00  0.00    +0.000 C 
ATOM      3  N   UNL     1      -1.906  11.110  17.193  0.00  0.00    +0.000 NA
ATOM      4  N   UNL     1      -1.582  12.180  17.753  0.00  0.00    +0.000 NA
ATOM      5  C   UNL     1      -1.849  12.331  19.264  0.00  0.00    +0.000 C 
ATOM      6  C   UNL     1      -1.357  11.824  20.770  0.00  0.00    +0.000 C 
ATOM      7  C   UNL     1      -0.271  10.804  20.629  0.00  0.00    +0.000 A 
ATOM      8  C   UNL     1       0.167   9.722  21.369  0.00  0.00    +0.000 A 
ATOM      9  C   UNL     1       0.007   9.635  22.855  0.00  0.00    +0.000 C 
ATOM     10  C   UNL     1       0.950   8.776  20.685  0.00  0.00    +0.000 A 
ATOM     11  C   UNL     1       1.354   8.983  19.352  0.00  0.00    +0.000 A 
ATOM     12  C   UNL     1       1.116  10.209  18.737  0.00  0.00    +0.000 A 
ATOM     13  C   UNL     1       0.343  11.099  19.443  0.00  0.00    +0.000 A 
ATOM     14  C   UNL     1      -0.245  12.389  19.119  0.00  0.00    +0.000 C 
ATOM     15  O   UNL     1       0.430  13.385  18.876  0.00  0.00    +0.000 OA
ENDROOT
BRANCH   1  22
ATOM     16  C   UNL     1      -5.208  12.801  19.680  0.00  0.00    +0.000 A 
ATOM     17  C   UNL     1      -6.449  13.362  19.269  0.00  0.00    +0.000 A 
ATOM     18  C   UNL     1      -7.349  14.186  20.149  0.00  0.00    +0.000 C 
ATOM     19  C   UNL     1      -6.921  13.124  17.968  0.00  0.00    +0.000 A 
ATOM     20  C   UNL     1      -6.166  12.404  17.065  0.00  0.00    +0.000 A 
ATOM     21  C   UNL     1      -4.930  11.897  17.453  0.00  0.00    +0.000 A 
ATOM     22  C   UNL     1      -4.416  12.058  18.761  0.00  0.00    +0.000 A 
BRANCH  16  23
ATOM     23  C   UNL     1      -4.738  13.019  21.077  0.00  0.00    +0.000 C 
ATOM     24  O   UNL     1      -4.981  12.263  22.003  0.00  0.00    +0.000 OA
BRANCH  23  26
ATOM     25  C   UNL     1      -3.455  14.530  22.389  0.00  0.00    +0.000 C 
ATOM     26  O   UNL     1      -4.038  14.177  21.129  0.00  0.00    +0.000 OA
ENDBRANCH  23  26
ENDBRANCH  16  23
ENDBRANCH   1  22
TORSDOF 3
ENDMDL
MODEL 6
REMARK VINA RESULT:      -6.3      9.620     13.767
REMARK  Name = 
REMARK  6 active torsions:
REMARK  status: ('A' for Active; 'I' for Inactive)
REMARK    1  A    between atoms: C_1  and  O_2
REMARK    2  A    between atoms: O_2  and  C_3
REMARK    3  A    between atoms: C_3  and  C_5
REMARK    4  A    between atoms: C_6  and  C_7
REMARK    5  A    between atoms: C_11  and  C_12
REMARK    6  A    between atoms: C_19  and  C_20
REMARK                            x       y       z     vdW  Elec       q    Type
REMARK                         _______ _______ _______ _____ _____    ______ ____
ROOT
ATOM      1  C   UNL     1      -3.141  13.225  20.861  0.00  0.00    +0.000 C 
ATOM      2  C   UNL     1      -4.365  14.084  20.588  0.00  0.00    +0.000 C 
ATOM      3  N   UNL     1      -5.421  13.312  21.198  0.00  0.00    +0.000 NA
ATOM      4  N   UNL     1      -4.920  12.462  21.965  0.00  0.00    +0.000 NA
ATOM      5  C   UNL     1      -3.415  12.555  22.285  0.00  0.00    +0.000 C 
ATOM      6  C   UNL     1      -2.270  13.434  23.113  0.00  0.00    +0.000 C 
ATOM      7  C   UNL     1      -2.919  14.609  23.773  0.00  0.00    +0.000 A 
ATOM      8  C   UNL     1      -2.518  15.881  24.138  0.00  0.00    +0.000 A 
ATOM      9  C   UNL     1      -1.101  16.218  24.482  0.00  0.00    +0.000 C 
ATOM     10  C   UNL     1      -3.542  16.818  24.358  0.00  0.00    +0.000 A 
ATOM     11  C   UNL     1      -4.900  16.445  24.318  0.00  0.00    +0.000 A 
ATOM     12  C   UNL     1      -5.247  15.100  24.215  0.00  0.00    +0.000 A 
ATOM     13  C   UNL     1      -4.213  14.224  23.996  0.00  0.00    +0.000 A 
ATOM     14  C   UNL     1      -4.153  12.803  23.696  0.00  0.00    +0.000 C 
ATOM     15  O   UNL     1      -4.530  11.940  24.483  0.00  0.00    +0.000 OA
ENDROOT
BRANCH   1  22
ATOM     16  C   UNL     1      -1.678  11.553  19.472  0.00  0.00    +0.000 A 
ATOM     17  C   UNL     1      -1.533  10.674  18.362  0.00  0.00    +0.000 A 
ATOM     18  C   UNL     1      -0.270   9.932  18.019  0.00  0.00    +0.000 C 
ATOM     19  C   UNL     1      -2.608  10.488  17.479  0.00  0.00    +0.000 A 
ATOM     20  C   UNL     1      -3.824  11.097  17.711  0.00  0.00    +0.000 A 
ATOM     21  C   UNL     1      -3.981  11.917  18.824  0.00  0.00    +0.000 A 
ATOM     22  C   UNL     1      -2.926  12.187  19.727  0.00  0.00    +0.000 A 
BRANCH  16  23
ATOM     23  C   UNL     1      -0.516  11.782  20.376  0.00  0.00    +0.000 C 
ATOM     24  O   UNL     1       0.304  12.671  20.218  0.00  0.00    +0.000 OA
BRANCH  23  26
ATOM     25  C   UNL     1       0.683  10.110  21.566  0.00  0.00    +0.000 C 
ATOM     26  O   UNL     1      -0.528  10.844  21.353  0.00  0.00    +0.000 OA
ENDBRANCH  23  26
ENDBRANCH  16  23
ENDBRANCH   1  22
TORSDOF 3
ENDMDL
MODEL 7
REMARK VINA RESULT:      -6.2      9.810     13.833
REMARK  Name = 
REMARK  6 active torsions:
REMARK  status: ('A' for Active; 'I' for Inactive)
REMARK    1  A    between atoms: C_1  and  O_2
REMARK    2  A    between atoms: O_2  and  C_3
REMARK    3  A    between atoms: C_3  and  C_5
REMARK    4  A    between atoms: C_6  and  C_7
REMARK    5  A    between atoms: C_11  and  C_12
REMARK    6  A    between atoms: C_19  and  C_20
REMARK                            x       y       z     vdW  Elec       q    Type
REMARK                         _______ _______ _______ _____ _____    ______ ____
ROOT
ATOM      1  C   UNL     1      -3.659  13.298  20.575  0.00  0.00    +0.000 C 
ATOM      2  C   UNL     1      -4.834  14.254  20.702  0.00  0.00    +0.000 C 
ATOM      3  N   UNL     1      -5.733  13.517  21.559  0.00  0.00    +0.000 NA
ATOM      4  N   UNL     1      -5.108  12.587  22.112  0.00  0.00    +0.000 NA
ATOM      5  C   UNL     1      -3.571  12.558  21.988  0.00  0.00    +0.000 C 
ATOM      6  C   UNL     1      -2.170  13.303  22.488  0.00  0.00    +0.000 C 
ATOM      7  C   UNL     1      -2.505  14.475  23.356  0.00  0.00    +0.000 A 
ATOM      8  C   UNL     1      -1.912  15.690  23.642  0.00  0.00    +0.000 A 
ATOM      9  C   UNL     1      -0.433  15.908  23.578  0.00  0.00    +0.000 C 
ATOM     10  C   UNL     1      -2.750  16.679  24.188  0.00  0.00    +0.000 A 
ATOM     11  C   UNL     1      -4.090  16.401  24.524  0.00  0.00    +0.000 A 
ATOM     12  C   UNL     1      -4.562  15.093  24.470  0.00  0.00    +0.000 A 
ATOM     13  C   UNL     1      -3.709  14.164  23.925  0.00  0.00    +0.000 A 
ATOM     14  C   UNL     1      -3.856  12.764  23.561  0.00  0.00    +0.000 C 
ATOM     15  O   UNL     1      -4.064  11.880  24.387  0.00  0.00    +0.000 OA
ENDROOT
BRANCH   1  22
ATOM     16  C   UNL     1      -2.798  11.605  18.771  0.00  0.00    +0.000 A 
ATOM     17  C   UNL     1      -3.045  10.792  17.629  0.00  0.00    +0.000 A 
ATOM     18  C   UNL     1      -2.001   9.972  16.921  0.00  0.00    +0.000 C 
ATOM     19  C   UNL     1      -4.332  10.754  17.070  0.00  0.00    +0.000 A 
ATOM     20  C   UNL     1      -5.374  11.446  17.652  0.00  0.00    +0.000 A 
ATOM     21  C   UNL     1      -5.143  12.202  18.798  0.00  0.00    +0.000 A 
ATOM     22  C   UNL     1      -3.861  12.322  19.385  0.00  0.00    +0.000 A 
BRANCH  16  23
ATOM     23  C   UNL     1      -1.418  11.676  19.328  0.00  0.00    +0.000 C 
ATOM     24  O   UNL     1      -0.982  10.906  20.168  0.00  0.00    +0.000 OA
BRANCH  23  26
ATOM     25  C   UNL     1       0.202  13.399  19.573  0.00  0.00    +0.000 C 
ATOM     26  O   UNL     1      -0.771  12.726  18.766  0.00  0.00    +0.000 OA
ENDBRANCH  23  26
ENDBRANCH  16  23
ENDBRANCH   1  22
TORSDOF 3
ENDMDL
MODEL 8
REMARK VINA RESULT:      -6.2     10.266     14.359
REMARK  Name = 
REMARK  6 active torsions:
REMARK  status: ('A' for Active; 'I' for Inactive)
REMARK    1  A    between atoms: C_1  and  O_2
REMARK    2  A    between atoms: O_2  and  C_3
REMARK    3  A    between atoms: C_3  and  C_5
REMARK    4  A    between atoms: C_6  and  C_7
REMARK    5  A    between atoms: C_11  and  C_12
REMARK    6  A    between atoms: C_19  and  C_20
REMARK                            x       y       z     vdW  Elec       q    Type
REMARK                         _______ _______ _______ _____ _____    ______ ____
ROOT
ATOM      1  C   UNL     1      -4.249  13.293  20.452  0.00  0.00    +0.000 C 
ATOM      2  C   UNL     1      -5.644  13.864  20.258  0.00  0.00    +0.000 C 
ATOM      3  N   UNL     1      -6.450  12.976  21.062  0.00  0.00    +0.000 NA
ATOM      4  N   UNL     1      -5.708  12.329  21.832  0.00  0.00    +0.000 NA
ATOM      5  C   UNL     1      -4.229  12.746  21.953  0.00  0.00    +0.000 C 
ATOM      6  C   UNL     1      -3.209  13.916  22.551  0.00  0.00    +0.000 C 
ATOM      7  C   UNL     1      -4.012  15.011  23.180  0.00  0.00    +0.000 A 
ATOM      8  C   UNL     1      -3.844  16.368  23.377  0.00  0.00    +0.000 A 
ATOM      9  C   UNL     1      -2.498  17.009  23.511  0.00  0.00    +0.000 C 
ATOM     10  C   UNL     1      -5.010  17.109  23.640  0.00  0.00    +0.000 A 
ATOM     11  C   UNL     1      -6.259  16.478  23.802  0.00  0.00    +0.000 A 
ATOM     12  C   UNL     1      -6.332  15.089  23.863  0.00  0.00    +0.000 A 
ATOM     13  C   UNL     1      -5.169  14.410  23.595  0.00  0.00    +0.000 A 
ATOM     14  C   UNL     1      -4.851  13.003  23.417  0.00  0.00    +0.000 C 
ATOM     15  O   UNL     1      -4.959  12.177  24.318  0.00  0.00    +0.000 OA
ENDROOT
BRANCH   1  22
ATOM     16  C   UNL     1      -2.634  11.724  19.112  0.00  0.00    +0.000 A 
ATOM     17  C   UNL     1      -2.421  10.777  18.072  0.00  0.00    +0.000 A 
ATOM     18  C   UNL     1      -1.083  10.192  17.708  0.00  0.00    +0.000 C 
ATOM     19  C   UNL     1      -3.503  10.359  17.282  0.00  0.00    +0.000 A 
ATOM     20  C   UNL     1      -4.781  10.809  17.543  0.00  0.00    +0.000 A 
ATOM     21  C   UNL     1      -4.996  11.698  18.592  0.00  0.00    +0.000 A 
ATOM     22  C   UNL     1      -3.945  12.196  19.397  0.00  0.00    +0.000 A 
BRANCH  16  23
ATOM     23  C   UNL     1      -1.471  12.197  19.914  0.00  0.00    +0.000 C 
ATOM     24  O   UNL     1      -0.845  13.216  19.671  0.00  0.00    +0.000 OA
BRANCH  23  26
ATOM     25  C   UNL     1      -0.273  11.687  21.903  0.00  0.00    +0.000 C 
ATOM     26  O   UNL     1      -1.233  11.310  20.910  0.00  0.00    +0.000 OA
ENDBRANCH  23  26
ENDBRANCH  16  23
ENDBRANCH   1  22
TORSDOF 3
ENDMDL
MODEL 9
REMARK VINA RESULT:      -6.1      6.376     10.580
REMARK  Name = 
REMARK  6 active torsions:
REMARK  status: ('A' for Active; 'I' for Inactive)
REMARK    1  A    between atoms: C_1  and  O_2
REMARK    2  A    between atoms: O_2  and  C_3
REMARK    3  A    between atoms: C_3  and  C_5
REMARK    4  A    between atoms: C_6  and  C_7
REMARK    5  A    between atoms: C_11  and  C_12
REMARK    6  A    between atoms: C_19  and  C_20
REMARK                            x       y       z     vdW  Elec       q    Type
REMARK                         _______ _______ _______ _____ _____    ______ ____
ROOT
ATOM      1  C   UNL     1      -0.268   9.629  20.918  0.00  0.00    +0.000 C 
ATOM      2  C   UNL     1      -0.681   9.306  22.345  0.00  0.00    +0.000 C 
ATOM      3  N   UNL     1       0.275  10.062  23.117  0.00  0.00    +0.000 NA
ATOM      4  N   UNL     1       0.825  10.908  22.380  0.00  0.00    +0.000 NA
ATOM      5  C   UNL     1       0.249  11.141  20.969  0.00  0.00    +0.000 C 
ATOM      6  C   UNL     1      -1.035  11.791  20.134  0.00  0.00    +0.000 C 
ATOM      7  C   UNL     1      -2.047  12.322  21.099  0.00  0.00    +0.000 A 
ATOM      8  C   UNL     1      -3.417  12.498  21.093  0.00  0.00    +0.000 A 
ATOM      9  C   UNL     1      -4.202  12.727  19.839  0.00  0.00    +0.000 C 
ATOM     10  C   UNL     1      -4.032  12.643  22.349  0.00  0.00    +0.000 A 
ATOM     11  C   UNL     1      -3.273  12.718  23.534  0.00  0.00    +0.000 A 
ATOM     12  C   UNL     1      -1.886  12.808  23.465  0.00  0.00    +0.000 A 
ATOM     13  C   UNL     1      -1.332  12.656  22.217  0.00  0.00    +0.000 A 
ATOM     14  C   UNL     1       0.036  12.541  21.738  0.00  0.00    +0.000 C 
ATOM     15  O   UNL     1       0.853  13.451  21.835  0.00  0.00    +0.000 OA
ENDROOT
BRANCH   1  22
ATOM     16  C   UNL     1       1.432   8.734  19.137  0.00  0.00    +0.000 A 
ATOM     17  C   UNL     1       2.348   7.735  18.704  0.00  0.00    +0.000 A 
ATOM     18  C   UNL     1       3.083   7.760  17.391  0.00  0.00    +0.000 C 
ATOM     19  C   UNL     1       2.583   6.612  19.512  0.00  0.00    +0.000 A 
ATOM     20  C   UNL     1       1.984   6.496  20.750  0.00  0.00    +0.000 A 
ATOM     21  C   UNL     1       1.126   7.498  21.194  0.00  0.00    +0.000 A 
ATOM     22  C   UNL     1       0.808   8.632  20.411  0.00  0.00    +0.000 A 
BRANCH  16  23
ATOM     23  C   UNL     1       1.152   9.898  18.250  0.00  0.00    +0.000 C 
ATOM     24  O   UNL     1       0.099  10.066  17.658  0.00  0.00    +0.000 OA
BRANCH  23  26
ATOM     25  C   UNL     1       2.029  12.108  18.199  0.00  0.00    +0.000 C 
ATOM     26  O   UNL     1       2.249  10.693  18.209  0.00  0.00    +0.000 OA
ENDBRANCH  23  26
ENDBRANCH  16  23
ENDBRANCH   1  22
TORSDOF 3
ENDMDL
