MODEL 1
REMARK VINA RESULT:      -8.2      0.000      0.000
REMARK  Name = 
REMARK  7 active torsions:
REMARK  status: ('A' for Active; 'I' for Inactive)
REMARK    1  A    between atoms: C_1  and  C_2
REMARK    2  A    between atoms: C_5  and  N_6
REMARK    3  A    between atoms: C_12  and  C_13
REMARK    4  A    between atoms: C_14  and  C_15
REMARK    5  A    between atoms: C_19  and  C_20
REMARK    6  A    between atoms: C_22  and  C_23
REMARK    7  A    between atoms: C_26  and  C_27
REMARK                            x       y       z     vdW  Elec       q    Type
REMARK                         _______ _______ _______ _____ _____    ______ ____
ROOT
ATOM      1  N   UNL     1       0.792  12.261  18.566  0.00  0.00    +0.000 N 
ATOM      2  C   UNL     1       1.225  10.930  18.567  0.00  0.00    +0.000 A 
ATOM      3  N   UNL     1       1.904  10.483  17.493  0.00  0.00    +0.000 NA
ATOM      4  N   UNL     1       2.325   9.182  17.451  0.00  0.00    +0.000 NA
ATOM      5  C   UNL     1       2.083   8.373  18.494  0.00  0.00    +0.000 A 
ATOM      6  C   UNL     1       2.518   7.046  18.498  0.00  0.00    +0.000 A 
ATOM      7  C   UNL     1       2.441   6.221  19.634  0.00  0.00    +0.000 A 
ATOM      8  C   UNL     1       1.787   6.782  20.740  0.00  0.00    +0.000 A 
ATOM      9  C   UNL     1       1.187   8.053  20.695  0.00  0.00    +0.000 A 
ATOM     10  C   UNL     1       0.322   8.512  21.839  0.00  0.00    +0.000 C 
ATOM     11  C   UNL     1       1.392   8.881  19.592  0.00  0.00    +0.000 A 
ATOM     12  N   UNL     1       0.941  10.141  19.611  0.00  0.00    +0.000 NA
ATOM     13  H   UNL     1       1.237  12.768  17.811  0.00  0.00    +0.000 HD
ENDROOT
BRANCH   1  18
ATOM     14  C   UNL     1      -0.258  15.402  23.247  0.00  0.00    +0.000 C 
ATOM     15  C   UNL     1       0.016  14.624  21.995  0.00  0.00    +0.000 A 
ATOM     16  C   UNL     1       1.314  14.505  21.500  0.00  0.00    +0.000 A 
ATOM     17  C   UNL     1       1.557  13.733  20.366  0.00  0.00    +0.000 A 
ATOM     18  C   UNL     1       0.526  13.048  19.704  0.00  0.00    +0.000 A 
ATOM     19  C   UNL     1      -0.792  13.209  20.167  0.00  0.00    +0.000 A 
ATOM     20  C   UNL     1      -1.966  12.524  19.525  0.00  0.00    +0.000 C 
ATOM     21  C   UNL     1      -1.031  13.989  21.314  0.00  0.00    +0.000 A 
ENDBRANCH   1  18
BRANCH   7  22
ATOM     22  C   UNL     1       3.022   4.839  19.656  0.00  0.00    +0.000 A 
ATOM     23  C   UNL     1       4.409   4.605  19.402  0.00  0.00    +0.000 A 
ATOM     24  C   UNL     1       5.446   5.673  19.132  0.00  0.00    +0.000 C 
ATOM     25  C   UNL     1       4.923   3.290  19.369  0.00  0.00    +0.000 A 
ATOM     26  C   UNL     1       4.120   2.194  19.637  0.00  0.00    +0.000 A 
ATOM     27  C   UNL     1       2.782   2.394  19.929  0.00  0.00    +0.000 A 
ATOM     28  C   UNL     1       2.213   3.685  19.924  0.00  0.00    +0.000 A 
ATOM     29  C   UNL     1       0.733   3.731  20.224  0.00  0.00    +0.000 C 
ENDBRANCH   7  22
TORSDOF 2
ENDMDL
MODEL 2
REMARK VINA RESULT:      -8.2      0.034      1.665
REMARK  Name = 
REMARK  7 active torsions:
REMARK  status: ('A' for Active; 'I' for Inactive)
REMARK    1  A    between atoms: C_1  and  C_2
REMARK    2  A    between atoms: C_5  and  N_6
REMARK    3  A    between atoms: C_12  and  C_13
REMARK    4  A    between atoms: C_14  and  C_15
REMARK    5  A    between atoms: C_19  and  C_20
REMARK    6  A    between atoms: C_22  and  C_23
REMARK    7  A    between atoms: C_26  and  C_27
REMARK                            x       y       z     vdW  Elec       q    Type
REMARK                         _______ _______ _______ _____ _____    ______ ____
ROOT
ATOM      1  N   UNL     1       0.797  12.269  18.569  0.00  0.00    +0.000 N 
ATOM      2  C   UNL     1       1.229  10.938  18.568  0.00  0.00    +0.000 A 
ATOM      3  N   UNL     1       1.905  10.491  17.492  0.00  0.00    +0.000 NA
ATOM      4  N   UNL     1       2.326   9.190  17.447  0.00  0.00    +0.000 NA
ATOM      5  C   UNL     1       2.086   8.381  18.490  0.00  0.00    +0.000 A 
ATOM      6  C   UNL     1       2.521   7.054  18.492  0.00  0.00    +0.000 A 
ATOM      7  C   UNL     1       2.448   6.228  19.627  0.00  0.00    +0.000 A 
ATOM      8  C   UNL     1       1.797   6.788  20.737  0.00  0.00    +0.000 A 
ATOM      9  C   UNL     1       1.197   8.059  20.694  0.00  0.00    +0.000 A 
ATOM     10  C   UNL     1       0.337   8.517  21.841  0.00  0.00    +0.000 C 
ATOM     11  C   UNL     1       1.400   8.888  19.591  0.00  0.00    +0.000 A 
ATOM     12  N   UNL     1       0.949  10.148  19.612  0.00  0.00    +0.000 NA
ATOM     13  H   UNL     1       1.239  12.776  17.813  0.00  0.00    +0.000 HD
ENDROOT
BRANCH   1  18
ATOM     14  C   UNL     1      -0.238  15.407  23.256  0.00  0.00    +0.000 C 
ATOM     15  C   UNL     1       0.032  14.629  22.002  0.00  0.00    +0.000 A 
ATOM     16  C   UNL     1       1.329  14.507  21.506  0.00  0.00    +0.000 A 
ATOM     17  C   UNL     1       1.569  13.735  20.370  0.00  0.00    +0.000 A 
ATOM     18  C   UNL     1       0.535  13.055  19.709  0.00  0.00    +0.000 A 
ATOM     19  C   UNL     1      -0.783  13.220  20.173  0.00  0.00    +0.000 A 
ATOM     20  C   UNL     1      -1.960  12.540  19.531  0.00  0.00    +0.000 C 
ATOM     21  C   UNL     1      -1.017  14.000  21.322  0.00  0.00    +0.000 A 
ENDBRANCH   1  18
BRANCH   7  22
ATOM     22  C   UNL     1       3.028   4.846  19.647  0.00  0.00    +0.000 A 
ATOM     23  C   UNL     1       2.222   3.699  19.931  0.00  0.00    +0.000 A 
ATOM     24  C   UNL     1       0.733   3.714  20.196  0.00  0.00    +0.000 C 
ATOM     25  C   UNL     1       2.802   2.413  20.002  0.00  0.00    +0.000 A 
ATOM     26  C   UNL     1       4.146   2.211  19.744  0.00  0.00    +0.000 A 
ATOM     27  C   UNL     1       4.942   3.297  19.423  0.00  0.00    +0.000 A 
ATOM     28  C   UNL     1       4.418   4.607  19.389  0.00  0.00    +0.000 A 
ATOM     29  C   UNL     1       5.424   5.687  19.060  0.00  0.00    +0.000 C 
ENDBRANCH   7  22
TORSDOF 2
ENDMDL
MODEL 3
REMARK VINA RESULT:      -8.1      0.331      1.331
REMARK  Name = 
REMARK  7 active torsions:
REMARK  status: ('A' for Active; 'I' for Inactive)
REMARK    1  A    between atoms: C_1  and  C_2
REMARK    2  A    between atoms: C_5  and  N_6
REMARK    3  A    between atoms: C_12  and  C_13
REMARK    4  A    between atoms: C_14  and  C_15
REMARK    5  A    between atoms: C_19  and  C_20
REMARK    6  A    between atoms: C_22  and  C_23
REMARK    7  A    between atoms: C_26  and  C_27
REMARK                            x       y       z     vdW  Elec       q    Type
REMARK                         _______ _______ _______ _____ _____    ______ ____
ROOT
ATOM      1  N   UNL     1       0.839  12.269  18.562  0.00  0.00    +0.000 N 
ATOM      2  C   UNL     1       1.260  10.934  18.560  0.00  0.00    +0.000 A 
ATOM      3  N   UNL     1       1.922  10.479  17.479  0.00  0.00    +0.000 NA
ATOM      4  N   UNL     1       2.332   9.176  17.434  0.00  0.00    +0.000 NA
ATOM      5  C   UNL     1       2.096   8.371  18.481  0.00  0.00    +0.000 A 
ATOM      6  C   UNL     1       2.521   7.040  18.483  0.00  0.00    +0.000 A 
ATOM      7  C   UNL     1       2.452   6.218  19.621  0.00  0.00    +0.000 A 
ATOM      8  C   UNL     1       1.817   6.786  20.735  0.00  0.00    +0.000 A 
ATOM      9  C   UNL     1       1.227   8.062  20.695  0.00  0.00    +0.000 A 
ATOM     10  C   UNL     1       0.381   8.530  21.848  0.00  0.00    +0.000 C 
ATOM     11  C   UNL     1       1.425   8.886  19.587  0.00  0.00    +0.000 A 
ATOM     12  N   UNL     1       0.984  10.150  19.609  0.00  0.00    +0.000 NA
ATOM     13  H   UNL     1       1.278  12.771  17.800  0.00  0.00    +0.000 HD
ENDROOT
BRANCH   1  18
ATOM     14  C   UNL     1      -0.206  15.543  23.153  0.00  0.00    +0.000 C 
ATOM     15  C   UNL     1       0.077  14.647  21.983  0.00  0.00    +0.000 A 
ATOM     16  C   UNL     1      -0.903  13.787  21.491  0.00  0.00    +0.000 A 
ATOM     17  C   UNL     1      -0.639  13.002  20.370  0.00  0.00    +0.000 A 
ATOM     18  C   UNL     1       0.594  13.060  19.702  0.00  0.00    +0.000 A 
ATOM     19  C   UNL     1       1.604  13.886  20.228  0.00  0.00    +0.000 A 
ATOM     20  C   UNL     1       2.960  14.013  19.590  0.00  0.00    +0.000 C 
ATOM     21  C   UNL     1       1.331  14.677  21.359  0.00  0.00    +0.000 A 
ENDBRANCH   1  18
BRANCH   7  22
ATOM     22  C   UNL     1       3.021   4.832  19.639  0.00  0.00    +0.000 A 
ATOM     23  C   UNL     1       4.410   4.589  19.399  0.00  0.00    +0.000 A 
ATOM     24  C   UNL     1       5.458   5.650  19.148  0.00  0.00    +0.000 C 
ATOM     25  C   UNL     1       4.914   3.269  19.361  0.00  0.00    +0.000 A 
ATOM     26  C   UNL     1       4.100   2.178  19.612  0.00  0.00    +0.000 A 
ATOM     27  C   UNL     1       2.760   2.386  19.890  0.00  0.00    +0.000 A 
ATOM     28  C   UNL     1       2.201   3.682  19.888  0.00  0.00    +0.000 A 
ATOM     29  C   UNL     1       0.718   3.737  20.173  0.00  0.00    +0.000 C 
ENDBRANCH   7  22
TORSDOF 2
ENDMDL
MODEL 4
REMARK VINA RESULT:      -8.0      0.323      2.130
REMARK  Name = 
REMARK  7 active torsions:
REMARK  status: ('A' for Active; 'I' for Inactive)
REMARK    1  A    between atoms: C_1  and  C_2
REMARK    2  A    between atoms: C_5  and  N_6
REMARK    3  A    between atoms: C_12  and  C_13
REMARK    4  A    between atoms: C_14  and  C_15
REMARK    5  A    between atoms: C_19  and  C_20
REMARK    6  A    between atoms: C_22  and  C_23
REMARK    7  A    between atoms: C_26  and  C_27
REMARK                            x       y       z     vdW  Elec       q    Type
REMARK                         _______ _______ _______ _____ _____    ______ ____
ROOT
ATOM      1  N   UNL     1       0.801  12.272  18.578  0.00  0.00    +0.000 N 
ATOM      2  C   UNL     1       1.227  10.939  18.573  0.00  0.00    +0.000 A 
ATOM      3  N   UNL     1       1.883  10.486  17.487  0.00  0.00    +0.000 NA
ATOM      4  N   UNL     1       2.297   9.184  17.438  0.00  0.00    +0.000 NA
ATOM      5  C   UNL     1       2.072   8.378  18.487  0.00  0.00    +0.000 A 
ATOM      6  C   UNL     1       2.501   7.049  18.485  0.00  0.00    +0.000 A 
ATOM      7  C   UNL     1       2.443   6.226  19.623  0.00  0.00    +0.000 A 
ATOM      8  C   UNL     1       1.814   6.792  20.742  0.00  0.00    +0.000 A 
ATOM      9  C   UNL     1       1.219   8.066  20.707  0.00  0.00    +0.000 A 
ATOM     10  C   UNL     1       0.380   8.530  21.866  0.00  0.00    +0.000 C 
ATOM     11  C   UNL     1       1.406   8.891  19.598  0.00  0.00    +0.000 A 
ATOM     12  N   UNL     1       0.961  10.153  19.624  0.00  0.00    +0.000 NA
ATOM     13  H   UNL     1       1.233  12.775  17.813  0.00  0.00    +0.000 HD
ENDROOT
BRANCH   1  18
ATOM     14  C   UNL     1      -0.219  15.541  23.177  0.00  0.00    +0.000 C 
ATOM     15  C   UNL     1       0.057  14.647  22.005  0.00  0.00    +0.000 A 
ATOM     16  C   UNL     1      -0.936  13.809  21.500  0.00  0.00    +0.000 A 
ATOM     17  C   UNL     1      -0.678  13.025  20.377  0.00  0.00    +0.000 A 
ATOM     18  C   UNL     1       0.562  13.062  19.720  0.00  0.00    +0.000 A 
ATOM     19  C   UNL     1       1.584  13.864  20.259  0.00  0.00    +0.000 A 
ATOM     20  C   UNL     1       2.947  13.967  19.634  0.00  0.00    +0.000 C 
ATOM     21  C   UNL     1       1.316  14.655  21.392  0.00  0.00    +0.000 A 
ENDBRANCH   1  18
BRANCH   7  22
ATOM     22  C   UNL     1       3.017   4.841  19.636  0.00  0.00    +0.000 A 
ATOM     23  C   UNL     1       2.205   3.696  19.909  0.00  0.00    +0.000 A 
ATOM     24  C   UNL     1       0.716   3.716  20.168  0.00  0.00    +0.000 C 
ATOM     25  C   UNL     1       2.779   2.407  19.975  0.00  0.00    +0.000 A 
ATOM     26  C   UNL     1       4.124   2.201  19.721  0.00  0.00    +0.000 A 
ATOM     27  C   UNL     1       4.926   3.286  19.410  0.00  0.00    +0.000 A 
ATOM     28  C   UNL     1       4.408   4.599  19.383  0.00  0.00    +0.000 A 
ATOM     29  C   UNL     1       5.419   5.676  19.066  0.00  0.00    +0.000 C 
ENDBRANCH   7  22
TORSDOF 2
ENDMDL
MODEL 5
REMARK VINA RESULT:      -7.9      2.232      9.058
REMARK  Name = 
REMARK  7 active torsions:
REMARK  status: ('A' for Active; 'I' for Inactive)
REMARK    1  A    between atoms: C_1  and  C_2
REMARK    2  A    between atoms: C_5  and  N_6
REMARK    3  A    between atoms: C_12  and  C_13
REMARK    4  A    between atoms: C_14  and  C_15
REMARK    5  A    between atoms: C_19  and  C_20
REMARK    6  A    between atoms: C_22  and  C_23
REMARK    7  A    between atoms: C_26  and  C_27
REMARK                            x       y       z     vdW  Elec       q    Type
REMARK                         _______ _______ _______ _____ _____    ______ ____
ROOT
ATOM      1  N   UNL     1       1.997   8.735  18.880  0.00  0.00    +0.000 N 
ATOM      2  C   UNL     1       1.137   9.704  19.409  0.00  0.00    +0.000 A 
ATOM      3  N   UNL     1       0.723  10.697  18.599  0.00  0.00    +0.000 NA
ATOM      4  N   UNL     1      -0.102  11.672  19.087  0.00  0.00    +0.000 NA
ATOM      5  C   UNL     1      -0.515  11.612  20.363  0.00  0.00    +0.000 A 
ATOM      6  C   UNL     1      -1.377  12.576  20.891  0.00  0.00    +0.000 A 
ATOM      7  C   UNL     1      -1.970  12.456  22.160  0.00  0.00    +0.000 A 
ATOM      8  C   UNL     1      -1.547  11.355  22.919  0.00  0.00    +0.000 A 
ATOM      9  C   UNL     1      -0.548  10.472  22.472  0.00  0.00    +0.000 A 
ATOM     10  C   UNL     1       0.010   9.438  23.413  0.00  0.00    +0.000 C 
ATOM     11  C   UNL     1      -0.077  10.559  21.162  0.00  0.00    +0.000 A 
ATOM     12  N   UNL     1       0.767   9.632  20.694  0.00  0.00    +0.000 NA
ATOM     13  H   UNL     1       2.031   8.818  17.871  0.00  0.00    +0.000 HD
ENDROOT
BRANCH   1  18
ATOM     14  C   UNL     1       2.669   3.396  20.860  0.00  0.00    +0.000 C 
ATOM     15  C   UNL     1       2.452   4.777  20.316  0.00  0.00    +0.000 A 
ATOM     16  C   UNL     1       1.549   5.648  20.925  0.00  0.00    +0.000 A 
ATOM     17  C   UNL     1       1.400   6.945  20.439  0.00  0.00    +0.000 A 
ATOM     18  C   UNL     1       2.151   7.416  19.350  0.00  0.00    +0.000 A 
ATOM     19  C   UNL     1       3.022   6.524  18.699  0.00  0.00    +0.000 A 
ATOM     20  C   UNL     1       3.864   6.928  17.521  0.00  0.00    +0.000 C 
ATOM     21  C   UNL     1       3.169   5.215  19.196  0.00  0.00    +0.000 A 
ENDBRANCH   1  18
BRANCH   7  22
ATOM     22  C   UNL     1      -2.984  13.439  22.662  0.00  0.00    +0.000 A 
ATOM     23  C   UNL     1      -2.647  14.434  23.632  0.00  0.00    +0.000 A 
ATOM     24  C   UNL     1      -1.274  14.652  24.228  0.00  0.00    +0.000 C 
ATOM     25  C   UNL     1      -3.634  15.311  24.135  0.00  0.00    +0.000 A 
ATOM     26  C   UNL     1      -4.935  15.279  23.667  0.00  0.00    +0.000 A 
ATOM     27  C   UNL     1      -5.280  14.356  22.695  0.00  0.00    +0.000 A 
ATOM     28  C   UNL     1      -4.342  13.425  22.200  0.00  0.00    +0.000 A 
ATOM     29  C   UNL     1      -4.884  12.459  21.171  0.00  0.00    +0.000 C 
ENDBRANCH   7  22
TORSDOF 2
ENDMDL
MODEL 6
REMARK VINA RESULT:      -7.8      2.251      9.179
REMARK  Name = 
REMARK  7 active torsions:
REMARK  status: ('A' for Active; 'I' for Inactive)
REMARK    1  A    between atoms: C_1  and  C_2
REMARK    2  A    between atoms: C_5  and  N_6
REMARK    3  A    between atoms: C_12  and  C_13
REMARK    4  A    between atoms: C_14  and  C_15
REMARK    5  A    between atoms: C_19  and  C_20
REMARK    6  A    between atoms: C_22  and  C_23
REMARK    7  A    between atoms: C_26  and  C_27
REMARK                            x       y       z     vdW  Elec       q    Type
REMARK                         _______ _______ _______ _____ _____    ______ ____
ROOT
ATOM      1  N   UNL     1       1.955   8.761  18.912  0.00  0.00    +0.000 N 
ATOM      2  C   UNL     1       1.096   9.731  19.442  0.00  0.00    +0.000 A 
ATOM      3  N   UNL     1       0.677  10.720  18.629  0.00  0.00    +0.000 NA
ATOM      4  N   UNL     1      -0.147  11.696  19.118  0.00  0.00    +0.000 NA
ATOM      5  C   UNL     1      -0.554  11.640  20.396  0.00  0.00    +0.000 A 
ATOM      6  C   UNL     1      -1.415  12.604  20.924  0.00  0.00    +0.000 A 
ATOM      7  C   UNL     1      -2.003  12.488  22.196  0.00  0.00    +0.000 A 
ATOM      8  C   UNL     1      -1.576  11.390  22.957  0.00  0.00    +0.000 A 
ATOM      9  C   UNL     1      -0.577  10.506  22.509  0.00  0.00    +0.000 A 
ATOM     10  C   UNL     1      -0.014   9.476  23.450  0.00  0.00    +0.000 C 
ATOM     11  C   UNL     1      -0.112  10.590  21.197  0.00  0.00    +0.000 A 
ATOM     12  N   UNL     1       0.732   9.663  20.728  0.00  0.00    +0.000 NA
ATOM     13  H   UNL     1       1.986   8.842  17.903  0.00  0.00    +0.000 HD
ENDROOT
BRANCH   1  18
ATOM     14  C   UNL     1       2.643   3.430  20.907  0.00  0.00    +0.000 C 
ATOM     15  C   UNL     1       2.422   4.809  20.359  0.00  0.00    +0.000 A 
ATOM     16  C   UNL     1       1.523   5.681  20.971  0.00  0.00    +0.000 A 
ATOM     17  C   UNL     1       1.370   6.977  20.481  0.00  0.00    +0.000 A 
ATOM     18  C   UNL     1       2.113   7.444  19.386  0.00  0.00    +0.000 A 
ATOM     19  C   UNL     1       2.980   6.550  18.732  0.00  0.00    +0.000 A 
ATOM     20  C   UNL     1       3.815   6.951  17.548  0.00  0.00    +0.000 C 
ATOM     21  C   UNL     1       3.131   5.243  19.233  0.00  0.00    +0.000 A 
ENDBRANCH   1  18
BRANCH   7  22
ATOM     22  C   UNL     1      -3.017  13.471  22.699  0.00  0.00    +0.000 A 
ATOM     23  C   UNL     1      -4.373  13.446  22.246  0.00  0.00    +0.000 A 
ATOM     24  C   UNL     1      -4.958  12.444  21.276  0.00  0.00    +0.000 C 
ATOM     25  C   UNL     1      -5.297  14.419  22.688  0.00  0.00    +0.000 A 
ATOM     26  C   UNL     1      -4.941  15.386  23.612  0.00  0.00    +0.000 A 
ATOM     27  C   UNL     1      -3.646  15.408  24.101  0.00  0.00    +0.000 A 
ATOM     28  C   UNL     1      -2.675  14.488  23.650  0.00  0.00    +0.000 A 
ATOM     29  C   UNL     1      -1.300  14.667  24.251  0.00  0.00    +0.000 C 
ENDBRANCH   7  22
TORSDOF 2
ENDMDL
MODEL 7
REMARK VINA RESULT:      -7.8      1.380      8.776
REMARK  Name = 
REMARK  7 active torsions:
REMARK  status: ('A' for Active; 'I' for Inactive)
REMARK    1  A    between atoms: C_1  and  C_2
REMARK    2  A    between atoms: C_5  and  N_6
REMARK    3  A    between atoms: C_12  and  C_13
REMARK    4  A    between atoms: C_14  and  C_15
REMARK    5  A    between atoms: C_19  and  C_20
REMARK    6  A    between atoms: C_22  and  C_23
REMARK    7  A    between atoms: C_26  and  C_27
REMARK                            x       y       z     vdW  Elec       q    Type
REMARK                         _______ _______ _______ _____ _____    ______ ____
ROOT
ATOM      1  N   UNL     1       3.228   7.087  17.746  0.00  0.00    +0.000 N 
ATOM      2  C   UNL     1       2.525   8.235  18.128  0.00  0.00    +0.000 A 
ATOM      3  N   UNL     1       2.579   9.311  17.319  0.00  0.00    +0.000 NA
ATOM      4  N   UNL     1       1.920  10.457  17.670  0.00  0.00    +0.000 NA
ATOM      5  C   UNL     1       1.202  10.487  18.803  0.00  0.00    +0.000 A 
ATOM      6  C   UNL     1       0.495  11.631  19.182  0.00  0.00    +0.000 A 
ATOM      7  C   UNL     1      -0.406  11.648  20.261  0.00  0.00    +0.000 A 
ATOM      8  C   UNL     1      -0.466  10.466  21.013  0.00  0.00    +0.000 A 
ATOM      9  C   UNL     1       0.368   9.364  20.751  0.00  0.00    +0.000 A 
ATOM     10  C   UNL     1       0.407   8.211  21.716  0.00  0.00    +0.000 C 
ATOM     11  C   UNL     1       1.157   9.347  19.601  0.00  0.00    +0.000 A 
ATOM     12  N   UNL     1       1.841   8.242  19.279  0.00  0.00    +0.000 NA
ATOM     13  H   UNL     1       3.532   7.172  16.784  0.00  0.00    +0.000 HD
ENDROOT
BRANCH   1  18
ATOM     14  C   UNL     1       1.986   1.740  19.405  0.00  0.00    +0.000 C 
ATOM     15  C   UNL     1       2.324   3.120  18.925  0.00  0.00    +0.000 A 
ATOM     16  C   UNL     1       1.399   3.867  18.198  0.00  0.00    +0.000 A 
ATOM     17  C   UNL     1       1.710   5.168  17.807  0.00  0.00    +0.000 A 
ATOM     18  C   UNL     1       2.936   5.766  18.139  0.00  0.00    +0.000 A 
ATOM     19  C   UNL     1       3.893   4.997  18.825  0.00  0.00    +0.000 A 
ATOM     20  C   UNL     1       5.237   5.541  19.220  0.00  0.00    +0.000 C 
ATOM     21  C   UNL     1       3.572   3.684  19.218  0.00  0.00    +0.000 A 
ENDBRANCH   1  18
BRANCH   7  22
ATOM     22  C   UNL     1      -1.244  12.850  20.580  0.00  0.00    +0.000 A 
ATOM     23  C   UNL     1      -0.722  13.949  21.332  0.00  0.00    +0.000 A 
ATOM     24  C   UNL     1       0.693  14.067  21.850  0.00  0.00    +0.000 C 
ATOM     25  C   UNL     1      -1.548  15.044  21.672  0.00  0.00    +0.000 A 
ATOM     26  C   UNL     1      -2.861  15.119  21.242  0.00  0.00    +0.000 A 
ATOM     27  C   UNL     1      -3.380  14.091  20.475  0.00  0.00    +0.000 A 
ATOM     28  C   UNL     1      -2.609  12.952  20.153  0.00  0.00    +0.000 A 
ATOM     29  C   UNL     1      -3.332  11.902  19.342  0.00  0.00    +0.000 C 
ENDBRANCH   7  22
TORSDOF 2
ENDMDL
MODEL 8
REMARK VINA RESULT:      -7.8      2.037      9.104
REMARK  Name = 
REMARK  7 active torsions:
REMARK  status: ('A' for Active; 'I' for Inactive)
REMARK    1  A    between atoms: C_1  and  C_2
REMARK    2  A    between atoms: C_5  and  N_6
REMARK    3  A    between atoms: C_12  and  C_13
REMARK    4  A    between atoms: C_14  and  C_15
REMARK    5  A    between atoms: C_19  and  C_20
REMARK    6  A    between atoms: C_22  and  C_23
REMARK    7  A    between atoms: C_26  and  C_27
REMARK                            x       y       z     vdW  Elec       q    Type
REMARK                         _______ _______ _______ _____ _____    ______ ____
ROOT
ATOM      1  N   UNL     1       1.833   6.919  21.113  0.00  0.00    +0.000 N 
ATOM      2  C   UNL     1       1.292   8.210  21.141  0.00  0.00    +0.000 A 
ATOM      3  N   UNL     1       1.339   8.893  22.301  0.00  0.00    +0.000 NA
ATOM      4  N   UNL     1       0.803  10.149  22.371  0.00  0.00    +0.000 NA
ATOM      5  C   UNL     1       0.263  10.700  21.273  0.00  0.00    +0.000 A 
ATOM      6  C   UNL     1      -0.272  11.990  21.298  0.00  0.00    +0.000 A 
ATOM      7  C   UNL     1      -0.685  12.668  20.138  0.00  0.00    +0.000 A 
ATOM      8  C   UNL     1      -0.634  11.919  18.954  0.00  0.00    +0.000 A 
ATOM      9  C   UNL     1      -0.264  10.562  18.937  0.00  0.00    +0.000 A 
ATOM     10  C   UNL     1      -0.430   9.757  17.676  0.00  0.00    +0.000 C 
ATOM     11  C   UNL     1       0.251   9.967  20.089  0.00  0.00    +0.000 A 
ATOM     12  N   UNL     1       0.735   8.720  20.035  0.00  0.00    +0.000 NA
ATOM     13  H   UNL     1       2.373   6.753  21.953  0.00  0.00    +0.000 HD
ENDROOT
BRANCH   1  18
ATOM     14  C   UNL     1       3.778   4.237  16.433  0.00  0.00    +0.000 C 
ATOM     15  C   UNL     1       3.314   4.929  17.680  0.00  0.00    +0.000 A 
ATOM     16  C   UNL     1       3.656   6.257  17.927  0.00  0.00    +0.000 A 
ATOM     17  C   UNL     1       3.171   6.900  19.064  0.00  0.00    +0.000 A 
ATOM     18  C   UNL     1       2.324   6.250  19.975  0.00  0.00    +0.000 A 
ATOM     19  C   UNL     1       2.021   4.893  19.758  0.00  0.00    +0.000 A 
ATOM     20  C   UNL     1       1.129   4.106  20.678  0.00  0.00    +0.000 C 
ATOM     21  C   UNL     1       2.513   4.251  18.607  0.00  0.00    +0.000 A 
ENDBRANCH   1  18
BRANCH   7  22
ATOM     22  C   UNL     1      -1.145  14.094  20.170  0.00  0.00    +0.000 A 
ATOM     23  C   UNL     1      -0.317  15.159  19.693  0.00  0.00    +0.000 A 
ATOM     24  C   UNL     1       1.055  14.999  19.078  0.00  0.00    +0.000 C 
ATOM     25  C   UNL     1      -0.747  16.501  19.787  0.00  0.00    +0.000 A 
ATOM     26  C   UNL     1      -1.997  16.826  20.285  0.00  0.00    +0.000 A 
ATOM     27  C   UNL     1      -2.837  15.813  20.713  0.00  0.00    +0.000 A 
ATOM     28  C   UNL     1      -2.431  14.461  20.686  0.00  0.00    +0.000 A 
ATOM     29  C   UNL     1      -3.447  13.480  21.224  0.00  0.00    +0.000 C 
ENDBRANCH   7  22
TORSDOF 2
ENDMDL
MODEL 9
REMARK VINA RESULT:      -7.7      2.035      9.248
REMARK  Name = 
REMARK  7 active torsions:
REMARK  status: ('A' for Active; 'I' for Inactive)
REMARK    1  A    between atoms: C_1  and  C_2
REMARK    2  A    between atoms: C_5  and  N_6
REMARK    3  A    between atoms: C_12  and  C_13
REMARK    4  A    between atoms: C_14  and  C_15
REMARK    5  A    between atoms: C_19  and  C_20
REMARK    6  A    between atoms: C_22  and  C_23
REMARK    7  A    between atoms: C_26  and  C_27
REMARK                            x       y       z     vdW  Elec       q    Type
REMARK                         _______ _______ _______ _____ _____    ______ ____
ROOT
ATOM      1  N   UNL     1       1.830   6.905  21.113  0.00  0.00    +0.000 N 
ATOM      2  C   UNL     1       1.305   8.202  21.140  0.00  0.00    +0.000 A 
ATOM      3  N   UNL     1       1.352   8.882  22.302  0.00  0.00    +0.000 NA
ATOM      4  N   UNL     1       0.831  10.144  22.371  0.00  0.00    +0.000 NA
ATOM      5  C   UNL     1       0.306  10.705  21.271  0.00  0.00    +0.000 A 
ATOM      6  C   UNL     1      -0.213  12.001  21.296  0.00  0.00    +0.000 A 
ATOM      7  C   UNL     1      -0.609  12.687  20.134  0.00  0.00    +0.000 A 
ATOM      8  C   UNL     1      -0.558  11.940  18.948  0.00  0.00    +0.000 A 
ATOM      9  C   UNL     1      -0.205  10.578  18.931  0.00  0.00    +0.000 A 
ATOM     10  C   UNL     1      -0.372   9.779  17.667  0.00  0.00    +0.000 C 
ATOM     11  C   UNL     1       0.294   9.974  20.085  0.00  0.00    +0.000 A 
ATOM     12  N   UNL     1       0.762   8.722  20.032  0.00  0.00    +0.000 NA
ATOM     13  H   UNL     1       2.362   6.730  21.956  0.00  0.00    +0.000 HD
ENDROOT
BRANCH   1  18
ATOM     14  C   UNL     1       3.776   4.211  16.440  0.00  0.00    +0.000 C 
ATOM     15  C   UNL     1       3.312   4.905  17.686  0.00  0.00    +0.000 A 
ATOM     16  C   UNL     1       3.665   6.230  17.936  0.00  0.00    +0.000 A 
ATOM     17  C   UNL     1       3.180   6.876  19.071  0.00  0.00    +0.000 A 
ATOM     18  C   UNL     1       2.322   6.232  19.977  0.00  0.00    +0.000 A 
ATOM     19  C   UNL     1       2.007   4.879  19.757  0.00  0.00    +0.000 A 
ATOM     20  C   UNL     1       1.104   4.099  20.671  0.00  0.00    +0.000 C 
ATOM     21  C   UNL     1       2.500   4.233  18.608  0.00  0.00    +0.000 A 
ENDBRANCH   1  18
BRANCH   7  22
ATOM     22  C   UNL     1      -1.051  14.119  20.166  0.00  0.00    +0.000 A 
ATOM     23  C   UNL     1      -2.328  14.497  20.688  0.00  0.00    +0.000 A 
ATOM     24  C   UNL     1      -3.345  13.555  21.292  0.00  0.00    +0.000 C 
ATOM     25  C   UNL     1      -2.748  15.845  20.653  0.00  0.00    +0.000 A 
ATOM     26  C   UNL     1      -1.924  16.847  20.172  0.00  0.00    +0.000 A 
ATOM     27  C   UNL     1      -0.665  16.516  19.701  0.00  0.00    +0.000 A 
ATOM     28  C   UNL     1      -0.221  15.177  19.668  0.00  0.00    +0.000 A 
ATOM     29  C   UNL     1       1.161  14.977  19.089  0.00  0.00    +0.000 C 
ENDBRANCH   7  22
TORSDOF 2
ENDMDL
