MODEL 1
REMARK VINA RESULT:      -6.6      0.000      0.000
REMARK  Name = 
REMARK  5 active torsions:
REMARK  status: ('A' for Active; 'I' for Inactive)
REMARK    1  A    between atoms: C_1  and  C_2
REMARK    2  A    between atoms: C_2  and  C_3
REMARK    3  A    between atoms: C_2  and  C_4
REMARK    4  A    between atoms: C_4  and  C_5
REMARK    5  A    between atoms: N_7  and  C_8
REMARK                            x       y       z     vdW  Elec       q    Type
REMARK                         _______ _______ _______ _____ _____    ______ ____
ROOT
ATOM      1  C   UNL     1       6.432   4.427  17.868  0.00  0.00    +0.000 C 
ATOM      2  O   UNL     1       7.067   4.821  18.838  0.00  0.00    +0.000 OA
ATOM      3  N   UNL     1       5.167   3.888  17.959  0.00  0.00    +0.000 N 
ATOM      4  H   UNL     1       4.672   3.671  17.097  0.00  0.00    +0.000 HD
ENDROOT
BRANCH   3   5
ATOM      5  C   UNL     1       4.435   3.792  19.219  0.00  0.00    +0.000 C 
ATOM      6  C   UNL     1       3.720   5.108  19.561  0.00  0.00    +0.000 C 
ATOM      7  C   UNL     1       2.552   5.406  18.618  0.00  0.00    +0.000 C 
ATOM      8  C   UNL     1       1.580   4.232  18.520  0.00  0.00    +0.000 C 
ATOM      9  C   UNL     1       2.298   2.928  18.218  0.00  0.00    +0.000 C 
ATOM     10  F   UNL     1       2.792   2.978  16.950  0.00  0.00    +0.000 F 
ATOM     11  F   UNL     1       1.409   1.904  18.242  0.00  0.00    +0.000 F 
ATOM     12  C   UNL     1       3.436   2.636  19.182  0.00  0.00    +0.000 C 
ENDBRANCH   3   5
BRANCH   1  13
ATOM     13  C   UNL     1       6.997   4.469  16.456  0.00  0.00    +0.000 C 
BRANCH  13  15
ATOM     14  C   UNL     1       5.310   6.026  15.380  0.00  0.00    +0.000 C 
ATOM     15  C   UNL     1       5.931   4.628  15.361  0.00  0.00    +0.000 C 
ATOM     16  C   UNL     1       6.543   4.358  13.982  0.00  0.00    +0.000 C 
ENDBRANCH  13  15
ENDBRANCH   1  13
TORSDOF 3
ENDMDL
MODEL 2
REMARK VINA RESULT:      -6.5      2.102      4.998
REMARK  Name = 
REMARK  5 active torsions:
REMARK  status: ('A' for Active; 'I' for Inactive)
REMARK    1  A    between atoms: C_1  and  C_2
REMARK    2  A    between atoms: C_2  and  C_3
REMARK    3  A    between atoms: C_2  and  C_4
REMARK    4  A    between atoms: C_4  and  C_5
REMARK    5  A    between atoms: N_7  and  C_8
REMARK                            x       y       z     vdW  Elec       q    Type
REMARK                         _______ _______ _______ _____ _____    ______ ____
ROOT
ATOM      1  C   UNL     1       3.543   5.781  19.145  0.00  0.00    +0.000 C 
ATOM      2  O   UNL     1       3.013   6.866  18.939  0.00  0.00    +0.000 OA
ATOM      3  N   UNL     1       4.727   5.392  18.557  0.00  0.00    +0.000 N 
ATOM      4  H   UNL     1       5.147   4.515  18.854  0.00  0.00    +0.000 HD
ENDROOT
BRANCH   3   5
ATOM      5  C   UNL     1       5.497   6.264  17.674  0.00  0.00    +0.000 C 
ATOM      6  C   UNL     1       7.007   6.028  17.820  0.00  0.00    +0.000 C 
ATOM      7  C   UNL     1       7.447   4.668  17.271  0.00  0.00    +0.000 C 
ATOM      8  C   UNL     1       6.966   4.445  15.839  0.00  0.00    +0.000 C 
ATOM      9  C   UNL     1       5.478   4.716  15.694  0.00  0.00    +0.000 C 
ATOM     10  F   UNL     1       4.786   3.755  16.365  0.00  0.00    +0.000 F 
ATOM     11  F   UNL     1       5.122   4.604  14.390  0.00  0.00    +0.000 F 
ATOM     12  C   UNL     1       5.067   6.082  16.219  0.00  0.00    +0.000 C 
ENDBRANCH   3   5
BRANCH   1  13
ATOM     13  C   UNL     1       2.923   4.737  20.062  0.00  0.00    +0.000 C 
BRANCH  13  15
ATOM     14  C   UNL     1       1.543   3.781  18.161  0.00  0.00    +0.000 C 
ATOM     15  C   UNL     1       1.532   4.261  19.614  0.00  0.00    +0.000 C 
ATOM     16  C   UNL     1       1.041   3.129  20.523  0.00  0.00    +0.000 C 
ENDBRANCH  13  15
ENDBRANCH   1  13
TORSDOF 3
ENDMDL
MODEL 3
REMARK VINA RESULT:      -6.4      2.394      3.117
REMARK  Name = 
REMARK  5 active torsions:
REMARK  status: ('A' for Active; 'I' for Inactive)
REMARK    1  A    between atoms: C_1  and  C_2
REMARK    2  A    between atoms: C_2  and  C_3
REMARK    3  A    between atoms: C_2  and  C_4
REMARK    4  A    between atoms: C_4  and  C_5
REMARK    5  A    between atoms: N_7  and  C_8
REMARK                            x       y       z     vdW  Elec       q    Type
REMARK                         _______ _______ _______ _____ _____    ______ ____
ROOT
ATOM      1  C   UNL     1       4.446   5.560  18.697  0.00  0.00    +0.000 C 
ATOM      2  O   UNL     1       4.137   6.188  17.691  0.00  0.00    +0.000 OA
ATOM      3  N   UNL     1       3.523   5.016  19.563  0.00  0.00    +0.000 N 
ATOM      4  H   UNL     1       3.862   4.430  20.322  0.00  0.00    +0.000 HD
ENDROOT
BRANCH   3   5
ATOM      5  C   UNL     1       2.083   5.084  19.332  0.00  0.00    +0.000 C 
ATOM      6  C   UNL     1       1.678   4.340  18.051  0.00  0.00    +0.000 C 
ATOM      7  C   UNL     1       1.838   2.823  18.176  0.00  0.00    +0.000 C 
ATOM      8  C   UNL     1       1.128   2.270  19.410  0.00  0.00    +0.000 C 
ATOM      9  C   UNL     1       1.505   3.035  20.668  0.00  0.00    +0.000 C 
ATOM     10  F   UNL     1       2.808   2.778  20.967  0.00  0.00    +0.000 F 
ATOM     11  F   UNL     1       0.775   2.575  21.713  0.00  0.00    +0.000 F 
ATOM     12  C   UNL     1       1.312   4.536  20.533  0.00  0.00    +0.000 C 
ENDBRANCH   3   5
BRANCH   1  13
ATOM     13  C   UNL     1       5.896   5.341  19.103  0.00  0.00    +0.000 C 
BRANCH  13  15
ATOM     14  C   UNL     1       8.011   6.663  18.648  0.00  0.00    +0.000 C 
ATOM     15  C   UNL     1       6.915   5.786  18.042  0.00  0.00    +0.000 C 
ATOM     16  C   UNL     1       7.549   4.563  17.370  0.00  0.00    +0.000 C 
ENDBRANCH  13  15
ENDBRANCH   1  13
TORSDOF 3
ENDMDL
MODEL 4
REMARK VINA RESULT:      -6.4      2.250      4.918
REMARK  Name = 
REMARK  5 active torsions:
REMARK  status: ('A' for Active; 'I' for Inactive)
REMARK    1  A    between atoms: C_1  and  C_2
REMARK    2  A    between atoms: C_2  and  C_3
REMARK    3  A    between atoms: C_2  and  C_4
REMARK    4  A    between atoms: C_4  and  C_5
REMARK    5  A    between atoms: N_7  and  C_8
REMARK                            x       y       z     vdW  Elec       q    Type
REMARK                         _______ _______ _______ _____ _____    ______ ____
ROOT
ATOM      1  C   UNL     1       3.319   6.642  18.490  0.00  0.00    +0.000 C 
ATOM      2  O   UNL     1       2.966   7.708  18.000  0.00  0.00    +0.000 OA
ATOM      3  N   UNL     1       4.510   6.023  18.181  0.00  0.00    +0.000 N 
ATOM      4  H   UNL     1       4.768   5.189  18.702  0.00  0.00    +0.000 HD
ENDROOT
BRANCH   3   5
ATOM      5  C   UNL     1       5.499   6.612  17.282  0.00  0.00    +0.000 C 
ATOM      6  C   UNL     1       6.929   6.201  17.665  0.00  0.00    +0.000 C 
ATOM      7  C   UNL     1       7.206   4.719  17.403  0.00  0.00    +0.000 C 
ATOM      8  C   UNL     1       6.856   4.314  15.973  0.00  0.00    +0.000 C 
ATOM      9  C   UNL     1       5.453   4.755  15.589  0.00  0.00    +0.000 C 
ATOM     10  F   UNL     1       4.550   4.031  16.305  0.00  0.00    +0.000 F 
ATOM     11  F   UNL     1       5.228   4.464  14.284  0.00  0.00    +0.000 F 
ATOM     12  C   UNL     1       5.207   6.235  15.830  0.00  0.00    +0.000 C 
ENDBRANCH   3   5
BRANCH   1  13
ATOM     13  C   UNL     1       2.450   5.878  19.478  0.00  0.00    +0.000 C 
BRANCH  13  15
ATOM     14  C   UNL     1       1.334   3.694  20.122  0.00  0.00    +0.000 C 
ATOM     15  C   UNL     1       2.210   4.410  19.092  0.00  0.00    +0.000 C 
ATOM     16  C   UNL     1       1.550   4.325  17.711  0.00  0.00    +0.000 C 
ENDBRANCH  13  15
ENDBRANCH   1  13
TORSDOF 3
ENDMDL
MODEL 5
REMARK VINA RESULT:      -6.4      1.366      1.707
REMARK  Name = 
REMARK  5 active torsions:
REMARK  status: ('A' for Active; 'I' for Inactive)
REMARK    1  A    between atoms: C_1  and  C_2
REMARK    2  A    between atoms: C_2  and  C_3
REMARK    3  A    between atoms: C_2  and  C_4
REMARK    4  A    between atoms: C_4  and  C_5
REMARK    5  A    between atoms: N_7  and  C_8
REMARK                            x       y       z     vdW  Elec       q    Type
REMARK                         _______ _______ _______ _____ _____    ______ ____
ROOT
ATOM      1  C   UNL     1       6.596   4.833  18.811  0.00  0.00    +0.000 C 
ATOM      2  O   UNL     1       6.824   5.221  19.951  0.00  0.00    +0.000 OA
ATOM      3  N   UNL     1       5.494   4.077  18.474  0.00  0.00    +0.000 N 
ATOM      4  H   UNL     1       5.330   3.876  17.491  0.00  0.00    +0.000 HD
ENDROOT
BRANCH   3   5
ATOM      5  C   UNL     1       4.456   3.717  19.436  0.00  0.00    +0.000 C 
ATOM      6  C   UNL     1       3.528   4.902  19.740  0.00  0.00    +0.000 C 
ATOM      7  C   UNL     1       2.643   5.277  18.549  0.00  0.00    +0.000 C 
ATOM      8  C   UNL     1       1.878   4.074  18.001  0.00  0.00    +0.000 C 
ATOM      9  C   UNL     1       2.797   2.893  17.737  0.00  0.00    +0.000 C 
ATOM     10  F   UNL     1       3.615   3.194  16.691  0.00  0.00    +0.000 F 
ATOM     11  F   UNL     1       2.060   1.823  17.350  0.00  0.00    +0.000 F 
ATOM     12  C   UNL     1       3.647   2.518  18.940  0.00  0.00    +0.000 C 
ENDBRANCH   3   5
BRANCH   1  13
ATOM     13  C   UNL     1       7.534   5.130  17.651  0.00  0.00    +0.000 C 
BRANCH  13  15
ATOM     14  C   UNL     1       5.719   6.560  16.607  0.00  0.00    +0.000 C 
ATOM     15  C   UNL     1       7.213   6.437  16.908  0.00  0.00    +0.000 C 
ATOM     16  C   UNL     1       7.671   7.643  17.735  0.00  0.00    +0.000 C 
ENDBRANCH  13  15
ENDBRANCH   1  13
TORSDOF 3
ENDMDL
MODEL 6
REMARK VINA RESULT:      -6.4      2.288      3.018
REMARK  Name = 
REMARK  5 active torsions:
REMARK  status: ('A' for Active; 'I' for Inactive)
REMARK    1  A    between atoms: C_1  and  C_2
REMARK    2  A    between atoms: C_2  and  C_3
REMARK    3  A    between atoms: C_2  and  C_4
REMARK    4  A    between atoms: C_4  and  C_5
REMARK    5  A    between atoms: N_7  and  C_8
REMARK                            x       y       z     vdW  Elec       q    Type
REMARK                         _______ _______ _______ _____ _____    ______ ____
ROOT
ATOM      1  C   UNL     1       4.736   5.300  16.725  0.00  0.00    +0.000 C 
ATOM      2  O   UNL     1       5.058   4.587  15.782  0.00  0.00    +0.000 OA
ATOM      3  N   UNL     1       3.680   5.016  17.563  0.00  0.00    +0.000 N 
ATOM      4  H   UNL     1       3.537   5.610  18.376  0.00  0.00    +0.000 HD
ENDROOT
BRANCH   3   5
ATOM      5  C   UNL     1       2.879   3.801  17.445  0.00  0.00    +0.000 C 
ATOM      6  C   UNL     1       3.617   2.579  18.014  0.00  0.00    +0.000 C 
ATOM      7  C   UNL     1       3.761   2.634  19.536  0.00  0.00    +0.000 C 
ATOM      8  C   UNL     1       2.423   2.872  20.232  0.00  0.00    +0.000 C 
ATOM      9  C   UNL     1       1.683   4.060  19.640  0.00  0.00    +0.000 C 
ATOM     10  F   UNL     1       2.357   5.201  19.952  0.00  0.00    +0.000 F 
ATOM     11  F   UNL     1       0.462   4.168  20.220  0.00  0.00    +0.000 F 
ATOM     12  C   UNL     1       1.524   3.973  18.132  0.00  0.00    +0.000 C 
ENDBRANCH   3   5
BRANCH   1  13
ATOM     13  C   UNL     1       5.463   6.597  17.045  0.00  0.00    +0.000 C 
BRANCH  13  15
ATOM     14  C   UNL     1       7.654   7.766  17.557  0.00  0.00    +0.000 C 
ATOM     15  C   UNL     1       6.969   6.423  17.294  0.00  0.00    +0.000 C 
ATOM     16  C   UNL     1       7.206   5.486  18.482  0.00  0.00    +0.000 C 
ENDBRANCH  13  15
ENDBRANCH   1  13
TORSDOF 3
ENDMDL
MODEL 7
REMARK VINA RESULT:      -6.4      2.673      5.302
REMARK  Name = 
REMARK  5 active torsions:
REMARK  status: ('A' for Active; 'I' for Inactive)
REMARK    1  A    between atoms: C_1  and  C_2
REMARK    2  A    between atoms: C_2  and  C_3
REMARK    3  A    between atoms: C_2  and  C_4
REMARK    4  A    between atoms: C_4  and  C_5
REMARK    5  A    between atoms: N_7  and  C_8
REMARK                            x       y       z     vdW  Elec       q    Type
REMARK                         _______ _______ _______ _____ _____    ______ ____
ROOT
ATOM      1  C   UNL     1       2.812   4.036  17.752  0.00  0.00    +0.000 C 
ATOM      2  O   UNL     1       2.482   3.274  16.851  0.00  0.00    +0.000 OA
ATOM      3  N   UNL     1       3.889   4.891  17.664  0.00  0.00    +0.000 N 
ATOM      4  H   UNL     1       4.039   5.556  18.419  0.00  0.00    +0.000 HD
ENDROOT
BRANCH   3   5
ATOM      5  C   UNL     1       4.707   5.014  16.460  0.00  0.00    +0.000 C 
ATOM      6  C   UNL     1       5.023   6.483  16.138  0.00  0.00    +0.000 C 
ATOM      7  C   UNL     1       5.978   7.115  17.153  0.00  0.00    +0.000 C 
ATOM      8  C   UNL     1       7.244   6.284  17.346  0.00  0.00    +0.000 C 
ATOM      9  C   UNL     1       6.925   4.825  17.627  0.00  0.00    +0.000 C 
ATOM     10  F   UNL     1       6.347   4.729  18.857  0.00  0.00    +0.000 F 
ATOM     11  F   UNL     1       8.076   4.112  17.689  0.00  0.00    +0.000 F 
ATOM     12  C   UNL     1       5.998   4.207  16.594  0.00  0.00    +0.000 C 
ENDBRANCH   3   5
BRANCH   1  13
ATOM     13  C   UNL     1       2.071   4.091  19.079  0.00  0.00    +0.000 C 
BRANCH  13  15
ATOM     14  C   UNL     1       3.657   2.523  20.286  0.00  0.00    +0.000 C 
ATOM     15  C   UNL     1       2.200   2.810  19.919  0.00  0.00    +0.000 C 
ATOM     16  C   UNL     1       1.363   2.929  21.198  0.00  0.00    +0.000 C 
ENDBRANCH  13  15
ENDBRANCH   1  13
TORSDOF 3
ENDMDL
MODEL 8
REMARK VINA RESULT:      -6.3      2.280      3.086
REMARK  Name = 
REMARK  5 active torsions:
REMARK  status: ('A' for Active; 'I' for Inactive)
REMARK    1  A    between atoms: C_1  and  C_2
REMARK    2  A    between atoms: C_2  and  C_3
REMARK    3  A    between atoms: C_2  and  C_4
REMARK    4  A    between atoms: C_4  and  C_5
REMARK    5  A    between atoms: N_7  and  C_8
REMARK                            x       y       z     vdW  Elec       q    Type
REMARK                         _______ _______ _______ _____ _____    ______ ____
ROOT
ATOM      1  C   UNL     1       4.983   5.475  18.470  0.00  0.00    +0.000 C 
ATOM      2  O   UNL     1       4.634   6.467  17.842  0.00  0.00    +0.000 OA
ATOM      3  N   UNL     1       4.243   4.313  18.523  0.00  0.00    +0.000 N 
ATOM      4  H   UNL     1       4.648   3.506  18.990  0.00  0.00    +0.000 HD
ENDROOT
BRANCH   3   5
ATOM      5  C   UNL     1       2.997   4.133  17.783  0.00  0.00    +0.000 C 
ATOM      6  C   UNL     1       2.735   2.653  17.466  0.00  0.00    +0.000 C 
ATOM      7  C   UNL     1       2.403   1.833  18.715  0.00  0.00    +0.000 C 
ATOM      8  C   UNL     1       1.269   2.457  19.526  0.00  0.00    +0.000 C 
ATOM      9  C   UNL     1       1.517   3.930  19.804  0.00  0.00    +0.000 C 
ATOM     10  F   UNL     1       2.563   4.047  20.667  0.00  0.00    +0.000 F 
ATOM     11  F   UNL     1       0.440   4.460  20.435  0.00  0.00    +0.000 F 
ATOM     12  C   UNL     1       1.817   4.732  18.549  0.00  0.00    +0.000 C 
ENDBRANCH   3   5
BRANCH   1  13
ATOM     13  C   UNL     1       6.268   5.440  19.283  0.00  0.00    +0.000 C 
BRANCH  13  15
ATOM     14  C   UNL     1       7.480   4.628  17.209  0.00  0.00    +0.000 C 
ATOM     15  C   UNL     1       7.546   5.540  18.434  0.00  0.00    +0.000 C 
ATOM     16  C   UNL     1       7.771   6.988  17.984  0.00  0.00    +0.000 C 
ENDBRANCH  13  15
ENDBRANCH   1  13
TORSDOF 3
ENDMDL
MODEL 9
REMARK VINA RESULT:      -6.3      1.651      2.198
REMARK  Name = 
REMARK  5 active torsions:
REMARK  status: ('A' for Active; 'I' for Inactive)
REMARK    1  A    between atoms: C_1  and  C_2
REMARK    2  A    between atoms: C_2  and  C_3
REMARK    3  A    between atoms: C_2  and  C_4
REMARK    4  A    between atoms: C_4  and  C_5
REMARK    5  A    between atoms: N_7  and  C_8
REMARK                            x       y       z     vdW  Elec       q    Type
REMARK                         _______ _______ _______ _____ _____    ______ ____
ROOT
ATOM      1  C   UNL     1       5.056   4.792  18.489  0.00  0.00    +0.000 C 
ATOM      2  O   UNL     1       6.104   4.276  18.857  0.00  0.00    +0.000 OA
ATOM      3  N   UNL     1       3.860   4.111  18.421  0.00  0.00    +0.000 N 
ATOM      4  H   UNL     1       3.019   4.636  18.194  0.00  0.00    +0.000 HD
ENDROOT
BRANCH   3   5
ATOM      5  C   UNL     1       3.715   2.720  18.843  0.00  0.00    +0.000 C 
ATOM      6  C   UNL     1       3.758   2.585  20.372  0.00  0.00    +0.000 C 
ATOM      7  C   UNL     1       2.524   3.180  21.052  0.00  0.00    +0.000 C 
ATOM      8  C   UNL     1       1.225   2.634  20.464  0.00  0.00    +0.000 C 
ATOM      9  C   UNL     1       1.203   2.738  18.948  0.00  0.00    +0.000 C 
ATOM     10  F   UNL     1       1.129   4.052  18.596  0.00  0.00    +0.000 F 
ATOM     11  F   UNL     1       0.079   2.151  18.469  0.00  0.00    +0.000 F 
ATOM     12  C   UNL     1       2.424   2.116  18.290  0.00  0.00    +0.000 C 
ENDBRANCH   3   5
BRANCH   1  13
ATOM     13  C   UNL     1       4.980   6.243  18.039  0.00  0.00    +0.000 C 
BRANCH  13  15
ATOM     14  C   UNL     1       7.315   6.706  17.166  0.00  0.00    +0.000 C 
ATOM     15  C   UNL     1       5.837   6.559  16.803  0.00  0.00    +0.000 C 
ATOM     16  C   UNL     1       5.675   5.456  15.750  0.00  0.00    +0.000 C 
ENDBRANCH  13  15
ENDBRANCH   1  13
TORSDOF 3
ENDMDL
