MODEL 1
REMARK VINA RESULT:      -8.9      0.000      0.000
REMARK  Name = 
REMARK  10 active torsions:
REMARK  status: ('A' for Active; 'I' for Inactive)
REMARK    1  A    between atoms: N_2  and  C_4
REMARK    2  A    between atoms: N_11  and  C_12
REMARK    3  A    between atoms: C_12  and  C_13
REMARK    4  A    between atoms: C_13  and  C_14
REMARK    5  A    between atoms: C_14  and  C_15
REMARK    6  A    between atoms: C_15  and  C_16
REMARK    7  A    between atoms: C_16  and  P_17
REMARK    8  A    between atoms: P_17  and  C_18
REMARK    9  A    between atoms: P_17  and  C_24
REMARK   10  A    between atoms: P_17  and  C_30
REMARK                            x       y       z     vdW  Elec       q    Type
REMARK                         _______ _______ _______ _____ _____    ______ ____
ROOT
ATOM      1  P   UNL     1      -0.515  11.327  18.815  0.00  0.00    +0.000 P 
ENDROOT
BRANCH   1   2
ATOM      2  C   UNL     1      -2.175  11.399  18.150  0.00  0.00    +0.000 A 
ATOM      3  C   UNL     1      -3.249  11.787  18.964  0.00  0.00    +0.000 A 
ATOM      4  C   UNL     1      -4.555  11.825  18.468  0.00  0.00    +0.000 A 
ATOM      5  C   UNL     1      -4.810  11.467  17.148  0.00  0.00    +0.000 A 
ATOM      6  C   UNL     1      -3.759  11.066  16.327  0.00  0.00    +0.000 A 
ATOM      7  C   UNL     1      -2.455  11.026  16.827  0.00  0.00    +0.000 A 
ENDBRANCH   1   2
BRANCH   1   8
ATOM      8  C   UNL     1      -0.533  10.758  20.504  0.00  0.00    +0.000 A 
ATOM      9  C   UNL     1      -0.326   9.413  20.835  0.00  0.00    +0.000 A 
ATOM     10  C   UNL     1      -0.384   8.982  22.160  0.00  0.00    +0.000 A 
ATOM     11  C   UNL     1      -0.650   9.896  23.177  0.00  0.00    +0.000 A 
ATOM     12  C   UNL     1      -0.846  11.239  22.868  0.00  0.00    +0.000 A 
ATOM     13  C   UNL     1      -0.783  11.668  21.540  0.00  0.00    +0.000 A 
ENDBRANCH   1   8
BRANCH   1  14
ATOM     14  C   UNL     1       0.353  12.886  18.754  0.00  0.00    +0.000 A 
ATOM     15  C   UNL     1      -0.321  14.108  18.879  0.00  0.00    +0.000 A 
ATOM     16  C   UNL     1       0.372  15.322  18.815  0.00  0.00    +0.000 A 
ATOM     17  C   UNL     1       1.752  15.332  18.643  0.00  0.00    +0.000 A 
ATOM     18  C   UNL     1       2.443  14.129  18.541  0.00  0.00    +0.000 A 
ATOM     19  C   UNL     1       1.749  12.919  18.604  0.00  0.00    +0.000 A 
ENDBRANCH   1  14
BRANCH   1  20
ATOM     20  C   UNL     1       0.386  10.100  17.791  0.00  0.00    +0.000 C 
BRANCH  20  21
ATOM     21  C   UNL     1       1.782   9.811  18.317  0.00  0.00    +0.000 C 
BRANCH  21  22
ATOM     22  C   UNL     1       2.349   8.475  17.848  0.00  0.00    +0.000 C 
BRANCH  22  23
ATOM     23  C   UNL     1       1.859   7.323  18.734  0.00  0.00    +0.000 C 
BRANCH  23  24
ATOM     24  C   UNL     1       3.005   6.475  19.291  0.00  0.00    +0.000 C 
BRANCH  24  32
ATOM     25  C   UNL     1       6.000   5.011  15.225  0.00  0.00    +0.000 A 
ATOM     26  C   UNL     1       5.948   6.276  15.816  0.00  0.00    +0.000 A 
ATOM     27  C   UNL     1       5.098   6.521  16.899  0.00  0.00    +0.000 A 
ATOM     28  C   UNL     1       4.305   5.458  17.375  0.00  0.00    +0.000 A 
ATOM     29  C   UNL     1       4.358   4.183  16.801  0.00  0.00    +0.000 A 
ATOM     30  C   UNL     1       3.461   3.352  17.524  0.00  0.00    +0.000 A 
ATOM     31  C   UNL     1       2.878   4.118  18.502  0.00  0.00    +0.000 A 
ATOM     32  N   UNL     1       3.381   5.390  18.399  0.00  0.00    +0.000 N 
ATOM     33  C   UNL     1       5.216   3.951  15.709  0.00  0.00    +0.000 A 
BRANCH  25  35
ATOM     34  O   UNL     1       6.545   3.915  13.252  0.00  0.00    +0.000 OA
ATOM     35  N   UNL     1       6.886   4.775  14.077  0.00  0.00    +0.000 N 
ATOM     36  O   UNL     1       7.924   5.448  13.997  0.00  0.00    +0.000 OA
ENDBRANCH  25  35
ENDBRANCH  24  32
ENDBRANCH  23  24
ENDBRANCH  22  23
ENDBRANCH  21  22
ENDBRANCH  20  21
ENDBRANCH   1  20
TORSDOF 10
ENDMDL
MODEL 2
REMARK VINA RESULT:      -8.8      0.279      4.067
REMARK  Name = 
REMARK  10 active torsions:
REMARK  status: ('A' for Active; 'I' for Inactive)
REMARK    1  A    between atoms: N_2  and  C_4
REMARK    2  A    between atoms: N_11  and  C_12
REMARK    3  A    between atoms: C_12  and  C_13
REMARK    4  A    between atoms: C_13  and  C_14
REMARK    5  A    between atoms: C_14  and  C_15
REMARK    6  A    between atoms: C_15  and  C_16
REMARK    7  A    between atoms: C_16  and  P_17
REMARK    8  A    between atoms: P_17  and  C_18
REMARK    9  A    between atoms: P_17  and  C_24
REMARK   10  A    between atoms: P_17  and  C_30
REMARK                            x       y       z     vdW  Elec       q    Type
REMARK                         _______ _______ _______ _____ _____    ______ ____
ROOT
ATOM      1  P   UNL     1      -0.431  11.055  18.845  0.00  0.00    +0.000 P 
ENDROOT
BRANCH   1   2
ATOM      2  C   UNL     1      -0.508  10.490  20.542  0.00  0.00    +0.000 A 
ATOM      3  C   UNL     1      -0.745  11.401  21.582  0.00  0.00    +0.000 A 
ATOM      4  C   UNL     1      -0.784  10.981  22.914  0.00  0.00    +0.000 A 
ATOM      5  C   UNL     1      -0.579   9.642  23.230  0.00  0.00    +0.000 A 
ATOM      6  C   UNL     1      -0.329   8.724  22.213  0.00  0.00    +0.000 A 
ATOM      7  C   UNL     1      -0.287   9.148  20.882  0.00  0.00    +0.000 A 
ENDBRANCH   1   2
BRANCH   1   8
ATOM      8  C   UNL     1       0.427  12.614  18.735  0.00  0.00    +0.000 A 
ATOM      9  C   UNL     1      -0.241  13.837  18.875  0.00  0.00    +0.000 A 
ATOM     10  C   UNL     1       0.441  15.047  18.746  0.00  0.00    +0.000 A 
ATOM     11  C   UNL     1       1.807  15.048  18.473  0.00  0.00    +0.000 A 
ATOM     12  C   UNL     1       2.489  13.841  18.342  0.00  0.00    +0.000 A 
ATOM     13  C   UNL     1       1.803  12.632  18.476  0.00  0.00    +0.000 A 
ENDBRANCH   1   8
BRANCH   1  14
ATOM     14  C   UNL     1      -2.031  11.235  18.073  0.00  0.00    +0.000 A 
ATOM     15  C   UNL     1      -2.232  10.931  16.720  0.00  0.00    +0.000 A 
ATOM     16  C   UNL     1      -3.488  11.090  16.126  0.00  0.00    +0.000 A 
ATOM     17  C   UNL     1      -4.567  11.540  16.880  0.00  0.00    +0.000 A 
ATOM     18  C   UNL     1      -4.394  11.824  18.231  0.00  0.00    +0.000 A 
ATOM     19  C   UNL     1      -3.138  11.664  18.821  0.00  0.00    +0.000 A 
ENDBRANCH   1  14
BRANCH   1  20
ATOM     20  C   UNL     1       0.534   9.787  17.935  0.00  0.00    +0.000 C 
BRANCH  20  21
ATOM     21  C   UNL     1       1.931   9.597  18.500  0.00  0.00    +0.000 C 
BRANCH  21  22
ATOM     22  C   UNL     1       2.572   8.268  18.117  0.00  0.00    +0.000 C 
BRANCH  22  23
ATOM     23  C   UNL     1       2.099   7.137  19.038  0.00  0.00    +0.000 C 
BRANCH  23  24
ATOM     24  C   UNL     1       3.230   6.190  19.445  0.00  0.00    +0.000 C 
BRANCH  24  32
ATOM     25  C   UNL     1       6.052   4.913  15.196  0.00  0.00    +0.000 A 
ATOM     26  C   UNL     1       6.119   6.107  15.919  0.00  0.00    +0.000 A 
ATOM     27  C   UNL     1       5.302   6.308  17.037  0.00  0.00    +0.000 A 
ATOM     28  C   UNL     1       4.421   5.275  17.410  0.00  0.00    +0.000 A 
ATOM     29  C   UNL     1       4.354   4.069  16.703  0.00  0.00    +0.000 A 
ATOM     30  C   UNL     1       3.391   3.248  17.347  0.00  0.00    +0.000 A 
ATOM     31  C   UNL     1       2.887   3.952  18.411  0.00  0.00    +0.000 A 
ATOM     32  N   UNL     1       3.501   5.179  18.436  0.00  0.00    +0.000 N 
ATOM     33  C   UNL     1       5.180   3.881  15.577  0.00  0.00    +0.000 A 
BRANCH  25  35
ATOM     34  O   UNL     1       7.913   5.439  13.911  0.00  0.00    +0.000 OA
ATOM     35  N   UNL     1       6.906   4.725  14.015  0.00  0.00    +0.000 N 
ATOM     36  O   UNL     1       6.570   3.864  13.188  0.00  0.00    +0.000 OA
ENDBRANCH  25  35
ENDBRANCH  24  32
ENDBRANCH  23  24
ENDBRANCH  22  23
ENDBRANCH  21  22
ENDBRANCH  20  21
ENDBRANCH   1  20
TORSDOF 10
ENDMDL
MODEL 3
REMARK VINA RESULT:      -8.6      0.825      4.105
REMARK  Name = 
REMARK  10 active torsions:
REMARK  status: ('A' for Active; 'I' for Inactive)
REMARK    1  A    between atoms: N_2  and  C_4
REMARK    2  A    between atoms: N_11  and  C_12
REMARK    3  A    between atoms: C_12  and  C_13
REMARK    4  A    between atoms: C_13  and  C_14
REMARK    5  A    between atoms: C_14  and  C_15
REMARK    6  A    between atoms: C_15  and  C_16
REMARK    7  A    between atoms: C_16  and  P_17
REMARK    8  A    between atoms: P_17  and  C_18
REMARK    9  A    between atoms: P_17  and  C_24
REMARK   10  A    between atoms: P_17  and  C_30
REMARK                            x       y       z     vdW  Elec       q    Type
REMARK                         _______ _______ _______ _____ _____    ______ ____
ROOT
ATOM      1  P   UNL     1      -0.076  10.718  18.878  0.00  0.00    +0.000 P 
ENDROOT
BRANCH   1   2
ATOM      2  C   UNL     1      -0.256  10.294  20.608  0.00  0.00    +0.000 A 
ATOM      3  C   UNL     1      -0.210   8.953  21.017  0.00  0.00    +0.000 A 
ATOM      4  C   UNL     1      -0.374   8.602  22.360  0.00  0.00    +0.000 A 
ATOM      5  C   UNL     1      -0.593   9.588  23.317  0.00  0.00    +0.000 A 
ATOM      6  C   UNL     1      -0.654  10.924  22.929  0.00  0.00    +0.000 A 
ATOM      7  C   UNL     1      -0.494  11.271  21.585  0.00  0.00    +0.000 A 
ENDBRANCH   1   2
BRANCH   1   8
ATOM      8  C   UNL     1       0.803  12.257  18.691  0.00  0.00    +0.000 A 
ATOM      9  C   UNL     1       0.170  13.495  18.857  0.00  0.00    +0.000 A 
ATOM     10  C   UNL     1       0.866  14.689  18.667  0.00  0.00    +0.000 A 
ATOM     11  C   UNL     1       2.211  14.658  18.306  0.00  0.00    +0.000 A 
ATOM     12  C   UNL     1       2.859  13.436  18.148  0.00  0.00    +0.000 A 
ATOM     13  C   UNL     1       2.160  12.243  18.344  0.00  0.00    +0.000 A 
ENDBRANCH   1   8
BRANCH   1  14
ATOM     14  C   UNL     1      -1.628  10.844  18.003  0.00  0.00    +0.000 A 
ATOM     15  C   UNL     1      -2.685  11.624  18.489  0.00  0.00    +0.000 A 
ATOM     16  C   UNL     1      -3.899  11.701  17.799  0.00  0.00    +0.000 A 
ATOM     17  C   UNL     1      -4.069  11.013  16.603  0.00  0.00    +0.000 A 
ATOM     18  C   UNL     1      -3.023  10.252  16.090  0.00  0.00    +0.000 A 
ATOM     19  C   UNL     1      -1.813  10.176  16.781  0.00  0.00    +0.000 A 
ENDBRANCH   1  14
BRANCH   1  20
ATOM     20  C   UNL     1       0.925   9.374  18.131  0.00  0.00    +0.000 C 
BRANCH  20  21
ATOM     21  C   UNL     1       2.000   8.853  19.070  0.00  0.00    +0.000 C 
BRANCH  21  22
ATOM     22  C   UNL     1       2.344   7.383  18.853  0.00  0.00    +0.000 C 
BRANCH  22  23
ATOM     23  C   UNL     1       2.177   6.578  20.148  0.00  0.00    +0.000 C 
BRANCH  23  24
ATOM     24  C   UNL     1       3.054   5.324  20.183  0.00  0.00    +0.000 C 
BRANCH  24  32
ATOM     25  C   UNL     1       5.970   4.790  15.841  0.00  0.00    +0.000 A 
ATOM     26  C   UNL     1       6.262   5.583  16.954  0.00  0.00    +0.000 A 
ATOM     27  C   UNL     1       5.387   5.627  18.044  0.00  0.00    +0.000 A 
ATOM     28  C   UNL     1       4.214   4.847  17.987  0.00  0.00    +0.000 A 
ATOM     29  C   UNL     1       3.918   4.038  16.884  0.00  0.00    +0.000 A 
ATOM     30  C   UNL     1       2.689   3.379  17.155  0.00  0.00    +0.000 A 
ATOM     31  C   UNL     1       2.256   3.794  18.390  0.00  0.00    +0.000 A 
ATOM     32  N   UNL     1       3.173   4.689  18.880  0.00  0.00    +0.000 N 
ATOM     33  C   UNL     1       4.806   4.006  15.792  0.00  0.00    +0.000 A 
BRANCH  25  35
ATOM     34  O   UNL     1       6.719   3.897  13.833  0.00  0.00    +0.000 OA
ATOM     35  N   UNL     1       6.892   4.769  14.697  0.00  0.00    +0.000 N 
ATOM     36  O   UNL     1       7.791   5.622  14.659  0.00  0.00    +0.000 OA
ENDBRANCH  25  35
ENDBRANCH  24  32
ENDBRANCH  23  24
ENDBRANCH  22  23
ENDBRANCH  21  22
ENDBRANCH  20  21
ENDBRANCH   1  20
TORSDOF 10
ENDMDL
MODEL 4
REMARK VINA RESULT:      -8.6      1.059      1.769
REMARK  Name = 
REMARK  10 active torsions:
REMARK  status: ('A' for Active; 'I' for Inactive)
REMARK    1  A    between atoms: N_2  and  C_4
REMARK    2  A    between atoms: N_11  and  C_12
REMARK    3  A    between atoms: C_12  and  C_13
REMARK    4  A    between atoms: C_13  and  C_14
REMARK    5  A    between atoms: C_14  and  C_15
REMARK    6  A    between atoms: C_15  and  C_16
REMARK    7  A    between atoms: C_16  and  P_17
REMARK    8  A    between atoms: P_17  and  C_18
REMARK    9  A    between atoms: P_17  and  C_24
REMARK   10  A    between atoms: P_17  and  C_30
REMARK                            x       y       z     vdW  Elec       q    Type
REMARK                         _______ _______ _______ _____ _____    ______ ____
ROOT
ATOM      1  P   UNL     1      -0.112  10.764  18.787  0.00  0.00    +0.000 P 
ENDROOT
BRANCH   1   2
ATOM      2  C   UNL     1      -1.709  10.828  17.982  0.00  0.00    +0.000 A 
ATOM      3  C   UNL     1      -2.758  11.567  18.547  0.00  0.00    +0.000 A 
ATOM      4  C   UNL     1      -4.019  11.608  17.945  0.00  0.00    +0.000 A 
ATOM      5  C   UNL     1      -4.253  10.904  16.768  0.00  0.00    +0.000 A 
ATOM      6  C   UNL     1      -3.228  10.153  16.198  0.00  0.00    +0.000 A 
ATOM      7  C   UNL     1      -1.969  10.112  16.805  0.00  0.00    +0.000 A 
ENDBRANCH   1   2
BRANCH   1   8
ATOM      8  C   UNL     1      -0.288  10.349  20.511  0.00  0.00    +0.000 A 
ATOM      9  C   UNL     1      -0.538  11.324  21.485  0.00  0.00    +0.000 A 
ATOM     10  C   UNL     1      -0.633  10.983  22.835  0.00  0.00    +0.000 A 
ATOM     11  C   UNL     1      -0.478   9.656  23.229  0.00  0.00    +0.000 A 
ATOM     12  C   UNL     1      -0.240   8.672  22.272  0.00  0.00    +0.000 A 
ATOM     13  C   UNL     1      -0.150   9.016  20.922  0.00  0.00    +0.000 A 
ENDBRANCH   1   8
BRANCH   1  14
ATOM     14  C   UNL     1       0.818  12.284  18.665  0.00  0.00    +0.000 A 
ATOM     15  C   UNL     1       2.209  12.283  18.500  0.00  0.00    +0.000 A 
ATOM     16  C   UNL     1       2.925  13.482  18.420  0.00  0.00    +0.000 A 
ATOM     17  C   UNL     1       2.258  14.701  18.485  0.00  0.00    +0.000 A 
ATOM     18  C   UNL     1       0.874  14.723  18.624  0.00  0.00    +0.000 A 
ATOM     19  C   UNL     1       0.162  13.525  18.704  0.00  0.00    +0.000 A 
ENDBRANCH   1  14
BRANCH   1  20
ATOM     20  C   UNL     1       0.821   9.423  17.951  0.00  0.00    +0.000 C 
BRANCH  20  21
ATOM     21  C   UNL     1       1.981   8.909  18.786  0.00  0.00    +0.000 C 
BRANCH  21  22
ATOM     22  C   UNL     1       2.509   7.552  18.332  0.00  0.00    +0.000 C 
BRANCH  22  23
ATOM     23  C   UNL     1       2.752   6.623  19.528  0.00  0.00    +0.000 C 
BRANCH  23  24
ATOM     24  C   UNL     1       3.254   5.238  19.111  0.00  0.00    +0.000 C 
BRANCH  24  32
ATOM     25  C   UNL     1       6.580   5.053  15.043  0.00  0.00    +0.000 A 
ATOM     26  C   UNL     1       5.186   4.999  14.988  0.00  0.00    +0.000 A 
ATOM     27  C   UNL     1       4.425   5.060  16.161  0.00  0.00    +0.000 A 
ATOM     28  C   UNL     1       5.105   5.181  17.388  0.00  0.00    +0.000 A 
ATOM     29  C   UNL     1       6.502   5.250  17.456  0.00  0.00    +0.000 A 
ATOM     30  C   UNL     1       6.857   5.389  18.824  0.00  0.00    +0.000 A 
ATOM     31  C   UNL     1       5.698   5.393  19.558  0.00  0.00    +0.000 A 
ATOM     32  N   UNL     1       4.646   5.254  18.689  0.00  0.00    +0.000 N 
ATOM     33  C   UNL     1       7.255   5.185  16.268  0.00  0.00    +0.000 A 
BRANCH  25  35
ATOM     34  O   UNL     1       6.955   4.215  12.911  0.00  0.00    +0.000 OA
ATOM     35  N   UNL     1       7.365   4.971  13.804  0.00  0.00    +0.000 N 
ATOM     36  O   UNL     1       8.392   5.660  13.720  0.00  0.00    +0.000 OA
ENDBRANCH  25  35
ENDBRANCH  24  32
ENDBRANCH  23  24
ENDBRANCH  22  23
ENDBRANCH  21  22
ENDBRANCH  20  21
ENDBRANCH   1  20
TORSDOF 10
ENDMDL
MODEL 5
REMARK VINA RESULT:      -8.5      0.779      1.248
REMARK  Name = 
REMARK  10 active torsions:
REMARK  status: ('A' for Active; 'I' for Inactive)
REMARK    1  A    between atoms: N_2  and  C_4
REMARK    2  A    between atoms: N_11  and  C_12
REMARK    3  A    between atoms: C_12  and  C_13
REMARK    4  A    between atoms: C_13  and  C_14
REMARK    5  A    between atoms: C_14  and  C_15
REMARK    6  A    between atoms: C_15  and  C_16
REMARK    7  A    between atoms: C_16  and  P_17
REMARK    8  A    between atoms: P_17  and  C_18
REMARK    9  A    between atoms: P_17  and  C_24
REMARK   10  A    between atoms: P_17  and  C_30
REMARK                            x       y       z     vdW  Elec       q    Type
REMARK                         _______ _______ _______ _____ _____    ______ ____
ROOT
ATOM      1  P   UNL     1       0.205  11.216  19.082  0.00  0.00    +0.000 P 
ENDROOT
BRANCH   1   2
ATOM      2  C   UNL     1      -1.354  10.966  18.239  0.00  0.00    +0.000 A 
ATOM      3  C   UNL     1      -1.451  10.040  17.189  0.00  0.00    +0.000 A 
ATOM      4  C   UNL     1      -2.654   9.850  16.503  0.00  0.00    +0.000 A 
ATOM      5  C   UNL     1      -3.780  10.590  16.851  0.00  0.00    +0.000 A 
ATOM      6  C   UNL     1      -3.700  11.524  17.881  0.00  0.00    +0.000 A 
ATOM      7  C   UNL     1      -2.495  11.713  18.563  0.00  0.00    +0.000 A 
ENDBRANCH   1   2
BRANCH   1   8
ATOM      8  C   UNL     1       0.118  10.626  20.762  0.00  0.00    +0.000 A 
ATOM      9  C   UNL     1       0.951   9.603  21.231  0.00  0.00    +0.000 A 
ATOM     10  C   UNL     1       0.840   9.129  22.539  0.00  0.00    +0.000 A 
ATOM     11  C   UNL     1      -0.111   9.675  23.397  0.00  0.00    +0.000 A 
ATOM     12  C   UNL     1      -0.940  10.701  22.951  0.00  0.00    +0.000 A 
ATOM     13  C   UNL     1      -0.822  11.176  21.643  0.00  0.00    +0.000 A 
ENDBRANCH   1   8
BRANCH   1  14
ATOM     14  C   UNL     1       0.744  12.918  19.109  0.00  0.00    +0.000 A 
ATOM     15  C   UNL     1      -0.080  13.943  19.592  0.00  0.00    +0.000 A 
ATOM     16  C   UNL     1       0.351  15.273  19.593  0.00  0.00    +0.000 A 
ATOM     17  C   UNL     1       1.622  15.597  19.128  0.00  0.00    +0.000 A 
ATOM     18  C   UNL     1       2.465  14.591  18.668  0.00  0.00    +0.000 A 
ATOM     19  C   UNL     1       2.031  13.264  18.667  0.00  0.00    +0.000 A 
ENDBRANCH   1  14
BRANCH   1  20
ATOM     20  C   UNL     1       1.439  10.211  18.170  0.00  0.00    +0.000 C 
BRANCH  20  21
ATOM     21  C   UNL     1       1.205   8.718  18.320  0.00  0.00    +0.000 C 
BRANCH  21  22
ATOM     22  C   UNL     1       2.434   7.949  18.795  0.00  0.00    +0.000 C 
BRANCH  22  23
ATOM     23  C   UNL     1       2.076   6.505  19.166  0.00  0.00    +0.000 C 
BRANCH  23  24
ATOM     24  C   UNL     1       3.288   5.696  19.637  0.00  0.00    +0.000 C 
BRANCH  24  32
ATOM     25  C   UNL     1       6.094   4.861  15.269  0.00  0.00    +0.000 A 
ATOM     26  C   UNL     1       5.931   6.075  15.941  0.00  0.00    +0.000 A 
ATOM     27  C   UNL     1       5.150   6.147  17.100  0.00  0.00    +0.000 A 
ATOM     28  C   UNL     1       4.542   4.965  17.566  0.00  0.00    +0.000 A 
ATOM     29  C   UNL     1       4.709   3.740  16.910  0.00  0.00    +0.000 A 
ATOM     30  C   UNL     1       3.990   2.760  17.644  0.00  0.00    +0.000 A 
ATOM     31  C   UNL     1       3.398   3.388  18.711  0.00  0.00    +0.000 A 
ATOM     32  N   UNL     1       3.723   4.720  18.651  0.00  0.00    +0.000 N 
ATOM     33  C   UNL     1       5.496   3.683  15.743  0.00  0.00    +0.000 A 
BRANCH  25  35
ATOM     34  O   UNL     1       7.868   5.580  13.955  0.00  0.00    +0.000 OA
ATOM     35  N   UNL     1       6.904   4.807  14.044  0.00  0.00    +0.000 N 
ATOM     36  O   UNL     1       6.577   3.991  13.169  0.00  0.00    +0.000 OA
ENDBRANCH  25  35
ENDBRANCH  24  32
ENDBRANCH  23  24
ENDBRANCH  22  23
ENDBRANCH  21  22
ENDBRANCH  20  21
ENDBRANCH   1  20
TORSDOF 10
ENDMDL
MODEL 6
REMARK VINA RESULT:      -8.5      1.671      2.417
REMARK  Name = 
REMARK  10 active torsions:
REMARK  status: ('A' for Active; 'I' for Inactive)
REMARK    1  A    between atoms: N_2  and  C_4
REMARK    2  A    between atoms: N_11  and  C_12
REMARK    3  A    between atoms: C_12  and  C_13
REMARK    4  A    between atoms: C_13  and  C_14
REMARK    5  A    between atoms: C_14  and  C_15
REMARK    6  A    between atoms: C_15  and  C_16
REMARK    7  A    between atoms: C_16  and  P_17
REMARK    8  A    between atoms: P_17  and  C_18
REMARK    9  A    between atoms: P_17  and  C_24
REMARK   10  A    between atoms: P_17  and  C_30
REMARK                            x       y       z     vdW  Elec       q    Type
REMARK                         _______ _______ _______ _____ _____    ______ ____
ROOT
ATOM      1  P   UNL     1      -0.917  11.339  20.004  0.00  0.00    +0.000 P 
ENDROOT
BRANCH   1   2
ATOM      2  C   UNL     1      -1.906  11.037  18.543  0.00  0.00    +0.000 A 
ATOM      3  C   UNL     1      -3.130  11.699  18.367  0.00  0.00    +0.000 A 
ATOM      4  C   UNL     1      -3.927  11.456  17.245  0.00  0.00    +0.000 A 
ATOM      5  C   UNL     1      -3.515  10.542  16.281  0.00  0.00    +0.000 A 
ATOM      6  C   UNL     1      -2.309   9.865  16.443  0.00  0.00    +0.000 A 
ATOM      7  C   UNL     1      -1.516  10.108  17.569  0.00  0.00    +0.000 A 
ENDBRANCH   1   2
BRANCH   1   8
ATOM      8  C   UNL     1      -1.863  12.203  21.243  0.00  0.00    +0.000 A 
ATOM      9  C   UNL     1      -2.543  13.394  20.957  0.00  0.00    +0.000 A 
ATOM     10  C   UNL     1      -3.245  14.076  21.951  0.00  0.00    +0.000 A 
ATOM     11  C   UNL     1      -3.276  13.573  23.249  0.00  0.00    +0.000 A 
ATOM     12  C   UNL     1      -2.615  12.384  23.548  0.00  0.00    +0.000 A 
ATOM     13  C   UNL     1      -1.917  11.702  22.550  0.00  0.00    +0.000 A 
ENDBRANCH   1   8
BRANCH   1  14
ATOM     14  C   UNL     1       0.575  12.267  19.684  0.00  0.00    +0.000 A 
ATOM     15  C   UNL     1       1.054  13.223  20.589  0.00  0.00    +0.000 A 
ATOM     16  C   UNL     1       2.217  13.952  20.318  0.00  0.00    +0.000 A 
ATOM     17  C   UNL     1       2.929  13.723  19.145  0.00  0.00    +0.000 A 
ATOM     18  C   UNL     1       2.484  12.759  18.245  0.00  0.00    +0.000 A 
ATOM     19  C   UNL     1       1.322  12.034  18.518  0.00  0.00    +0.000 A 
ENDBRANCH   1  14
BRANCH   1  20
ATOM     20  C   UNL     1      -0.465   9.685  20.657  0.00  0.00    +0.000 C 
BRANCH  20  21
ATOM     21  C   UNL     1       1.000   9.592  21.051  0.00  0.00    +0.000 C 
BRANCH  21  22
ATOM     22  C   UNL     1       1.438   8.187  21.454  0.00  0.00    +0.000 C 
BRANCH  22  23
ATOM     23  C   UNL     1       1.935   7.392  20.240  0.00  0.00    +0.000 C 
BRANCH  23  24
ATOM     24  C   UNL     1       1.950   5.881  20.487  0.00  0.00    +0.000 C 
BRANCH  24  32
ATOM     25  C   UNL     1       5.728   4.546  17.083  0.00  0.00    +0.000 A 
ATOM     26  C   UNL     1       5.859   5.382  18.195  0.00  0.00    +0.000 A 
ATOM     27  C   UNL     1       4.759   5.649  19.017  0.00  0.00    +0.000 A 
ATOM     28  C   UNL     1       3.526   5.049  18.693  0.00  0.00    +0.000 A 
ATOM     29  C   UNL     1       3.385   4.199  17.590  0.00  0.00    +0.000 A 
ATOM     30  C   UNL     1       2.037   3.755  17.562  0.00  0.00    +0.000 A 
ATOM     31  C   UNL     1       1.384   4.335  18.621  0.00  0.00    +0.000 A 
ATOM     32  N   UNL     1       2.283   5.125  19.291  0.00  0.00    +0.000 N 
ATOM     33  C   UNL     1       4.501   3.941  16.769  0.00  0.00    +0.000 A 
BRANCH  25  35
ATOM     34  O   UNL     1       8.018   4.422  16.717  0.00  0.00    +0.000 OA
ATOM     35  N   UNL     1       6.890   4.289  16.221  0.00  0.00    +0.000 N 
ATOM     36  O   UNL     1       6.678   3.955  15.046  0.00  0.00    +0.000 OA
ENDBRANCH  25  35
ENDBRANCH  24  32
ENDBRANCH  23  24
ENDBRANCH  22  23
ENDBRANCH  21  22
ENDBRANCH  20  21
ENDBRANCH   1  20
TORSDOF 10
ENDMDL
MODEL 7
REMARK VINA RESULT:      -8.4      0.868      4.169
REMARK  Name = 
REMARK  10 active torsions:
REMARK  status: ('A' for Active; 'I' for Inactive)
REMARK    1  A    between atoms: N_2  and  C_4
REMARK    2  A    between atoms: N_11  and  C_12
REMARK    3  A    between atoms: C_12  and  C_13
REMARK    4  A    between atoms: C_13  and  C_14
REMARK    5  A    between atoms: C_14  and  C_15
REMARK    6  A    between atoms: C_15  and  C_16
REMARK    7  A    between atoms: C_16  and  P_17
REMARK    8  A    between atoms: P_17  and  C_18
REMARK    9  A    between atoms: P_17  and  C_24
REMARK   10  A    between atoms: P_17  and  C_30
REMARK                            x       y       z     vdW  Elec       q    Type
REMARK                         _______ _______ _______ _____ _____    ______ ____
ROOT
ATOM      1  P   UNL     1      -0.664  11.743  19.424  0.00  0.00    +0.000 P 
ENDROOT
BRANCH   1   2
ATOM      2  C   UNL     1       0.087  13.368  19.448  0.00  0.00    +0.000 A 
ATOM      3  C   UNL     1      -0.374  14.375  18.587  0.00  0.00    +0.000 A 
ATOM      4  C   UNL     1       0.217  15.641  18.576  0.00  0.00    +0.000 A 
ATOM      5  C   UNL     1       1.286  15.920  19.421  0.00  0.00    +0.000 A 
ATOM      6  C   UNL     1       1.767  14.930  20.274  0.00  0.00    +0.000 A 
ATOM      7  C   UNL     1       1.176  13.663  20.281  0.00  0.00    +0.000 A 
ENDBRANCH   1   2
BRANCH   1   8
ATOM      8  C   UNL     1      -2.396  11.852  19.020  0.00  0.00    +0.000 A 
ATOM      9  C   UNL     1      -3.324  12.435  19.892  0.00  0.00    +0.000 A 
ATOM     10  C   UNL     1      -4.682  12.474  19.574  0.00  0.00    +0.000 A 
ATOM     11  C   UNL     1      -5.130  11.928  18.373  0.00  0.00    +0.000 A 
ATOM     12  C   UNL     1      -4.220  11.356  17.489  0.00  0.00    +0.000 A 
ATOM     13  C   UNL     1      -2.861  11.322  17.809  0.00  0.00    +0.000 A 
ENDBRANCH   1   8
BRANCH   1  14
ATOM     14  C   UNL     1      -0.498  10.850  20.962  0.00  0.00    +0.000 A 
ATOM     15  C   UNL     1       0.270   9.682  21.055  0.00  0.00    +0.000 A 
ATOM     16  C   UNL     1       0.379   8.986  22.263  0.00  0.00    +0.000 A 
ATOM     17  C   UNL     1      -0.265   9.458  23.402  0.00  0.00    +0.000 A 
ATOM     18  C   UNL     1      -1.012  10.629  23.337  0.00  0.00    +0.000 A 
ATOM     19  C   UNL     1      -1.120  11.322  22.129  0.00  0.00    +0.000 A 
ENDBRANCH   1  14
BRANCH   1  20
ATOM     20  C   UNL     1       0.193  10.811  18.096  0.00  0.00    +0.000 C 
BRANCH  20  21
ATOM     21  C   UNL     1       1.672  10.614  18.380  0.00  0.00    +0.000 C 
BRANCH  21  22
ATOM     22  C   UNL     1       2.270   9.389  17.695  0.00  0.00    +0.000 C 
BRANCH  22  23
ATOM     23  C   UNL     1       1.531   8.109  18.104  0.00  0.00    +0.000 C 
BRANCH  23  24
ATOM     24  C   UNL     1       2.349   7.231  19.055  0.00  0.00    +0.000 C 
BRANCH  24  32
ATOM     25  C   UNL     1       5.668   5.070  15.596  0.00  0.00    +0.000 A 
ATOM     26  C   UNL     1       5.558   6.425  15.918  0.00  0.00    +0.000 A 
ATOM     27  C   UNL     1       4.624   6.857  16.865  0.00  0.00    +0.000 A 
ATOM     28  C   UNL     1       3.806   5.889  17.481  0.00  0.00    +0.000 A 
ATOM     29  C   UNL     1       3.915   4.528  17.177  0.00  0.00    +0.000 A 
ATOM     30  C   UNL     1       2.971   3.834  17.980  0.00  0.00    +0.000 A 
ATOM     31  C   UNL     1       2.307   4.762  18.741  0.00  0.00    +0.000 A 
ATOM     32  N   UNL     1       2.804   6.001  18.425  0.00  0.00    +0.000 N 
ATOM     33  C   UNL     1       4.858   4.107  16.219  0.00  0.00    +0.000 A 
BRANCH  25  35
ATOM     34  O   UNL     1       7.751   5.191  14.577  0.00  0.00    +0.000 OA
ATOM     35  N   UNL     1       6.643   4.634  14.587  0.00  0.00    +0.000 N 
ATOM     36  O   UNL     1       6.305   3.736  13.802  0.00  0.00    +0.000 OA
ENDBRANCH  25  35
ENDBRANCH  24  32
ENDBRANCH  23  24
ENDBRANCH  22  23
ENDBRANCH  21  22
ENDBRANCH  20  21
ENDBRANCH   1  20
TORSDOF 10
ENDMDL
MODEL 8
REMARK VINA RESULT:      -8.4      0.627      4.055
REMARK  Name = 
REMARK  10 active torsions:
REMARK  status: ('A' for Active; 'I' for Inactive)
REMARK    1  A    between atoms: N_2  and  C_4
REMARK    2  A    between atoms: N_11  and  C_12
REMARK    3  A    between atoms: C_12  and  C_13
REMARK    4  A    between atoms: C_13  and  C_14
REMARK    5  A    between atoms: C_14  and  C_15
REMARK    6  A    between atoms: C_15  and  C_16
REMARK    7  A    between atoms: C_16  and  P_17
REMARK    8  A    between atoms: P_17  and  C_18
REMARK    9  A    between atoms: P_17  and  C_24
REMARK   10  A    between atoms: P_17  and  C_30
REMARK                            x       y       z     vdW  Elec       q    Type
REMARK                         _______ _______ _______ _____ _____    ______ ____
ROOT
ATOM      1  P   UNL     1      -0.271  11.426  19.034  0.00  0.00    +0.000 P 
ENDROOT
BRANCH   1   2
ATOM      2  C   UNL     1      -0.421  10.768  20.692  0.00  0.00    +0.000 A 
ATOM      3  C   UNL     1      -0.929  11.566  21.727  0.00  0.00    +0.000 A 
ATOM      4  C   UNL     1      -1.029  11.078  23.033  0.00  0.00    +0.000 A 
ATOM      5  C   UNL     1      -0.617   9.782  23.326  0.00  0.00    +0.000 A 
ATOM      6  C   UNL     1      -0.098   8.977  22.314  0.00  0.00    +0.000 A 
ATOM      7  C   UNL     1       0.004   9.471  21.011  0.00  0.00    +0.000 A 
ENDBRANCH   1   2
BRANCH   1   8
ATOM      8  C   UNL     1       0.097  13.169  19.074  0.00  0.00    +0.000 A 
ATOM      9  C   UNL     1       1.365  13.665  18.745  0.00  0.00    +0.000 A 
ATOM     10  C   UNL     1       1.644  15.030  18.822  0.00  0.00    +0.000 A 
ATOM     11  C   UNL     1       0.653  15.920  19.229  0.00  0.00    +0.000 A 
ATOM     12  C   UNL     1      -0.617  15.445  19.549  0.00  0.00    +0.000 A 
ATOM     13  C   UNL     1      -0.893  14.079  19.467  0.00  0.00    +0.000 A 
ENDBRANCH   1   8
BRANCH   1  14
ATOM     14  C   UNL     1      -1.725  11.179  18.027  0.00  0.00    +0.000 A 
ATOM     15  C   UNL     1      -1.680  10.439  16.839  0.00  0.00    +0.000 A 
ATOM     16  C   UNL     1      -2.825  10.267  16.054  0.00  0.00    +0.000 A 
ATOM     17  C   UNL     1      -4.038  10.818  16.455  0.00  0.00    +0.000 A 
ATOM     18  C   UNL     1      -4.110  11.535  17.645  0.00  0.00    +0.000 A 
ATOM     19  C   UNL     1      -2.965  11.706  18.426  0.00  0.00    +0.000 A 
ENDBRANCH   1  14
BRANCH   1  20
ATOM     20  C   UNL     1       1.143  10.543  18.268  0.00  0.00    +0.000 C 
BRANCH  20  21
ATOM     21  C   UNL     1       0.871   9.062  18.069  0.00  0.00    +0.000 C 
BRANCH  21  22
ATOM     22  C   UNL     1       2.133   8.206  18.035  0.00  0.00    +0.000 C 
BRANCH  22  23
ATOM     23  C   UNL     1       1.818   6.741  18.360  0.00  0.00    +0.000 C 
BRANCH  23  24
ATOM     24  C   UNL     1       2.953   6.043  19.114  0.00  0.00    +0.000 C 
BRANCH  24  32
ATOM     25  C   UNL     1       6.085   4.925  15.041  0.00  0.00    +0.000 A 
ATOM     26  C   UNL     1       5.706   6.195  15.483  0.00  0.00    +0.000 A 
ATOM     27  C   UNL     1       4.862   6.341  16.589  0.00  0.00    +0.000 A 
ATOM     28  C   UNL     1       4.413   5.175  17.240  0.00  0.00    +0.000 A 
ATOM     29  C   UNL     1       4.796   3.897  16.816  0.00  0.00    +0.000 A 
ATOM     30  C   UNL     1       4.192   2.957  17.692  0.00  0.00    +0.000 A 
ATOM     31  C   UNL     1       3.456   3.658  18.614  0.00  0.00    +0.000 A 
ATOM     32  N   UNL     1       3.582   4.993  18.328  0.00  0.00    +0.000 N 
ATOM     33  C   UNL     1       5.644   3.766  15.699  0.00  0.00    +0.000 A 
BRANCH  25  35
ATOM     34  O   UNL     1       7.982   5.487  13.827  0.00  0.00    +0.000 OA
ATOM     35  N   UNL     1       6.958   4.790  13.868  0.00  0.00    +0.000 N 
ATOM     36  O   UNL     1       6.624   3.987  12.984  0.00  0.00    +0.000 OA
ENDBRANCH  25  35
ENDBRANCH  24  32
ENDBRANCH  23  24
ENDBRANCH  22  23
ENDBRANCH  21  22
ENDBRANCH  20  21
ENDBRANCH   1  20
TORSDOF 10
ENDMDL
MODEL 9
REMARK VINA RESULT:      -8.3      1.109      4.200
REMARK  Name = 
REMARK  10 active torsions:
REMARK  status: ('A' for Active; 'I' for Inactive)
REMARK    1  A    between atoms: N_2  and  C_4
REMARK    2  A    between atoms: N_11  and  C_12
REMARK    3  A    between atoms: C_12  and  C_13
REMARK    4  A    between atoms: C_13  and  C_14
REMARK    5  A    between atoms: C_14  and  C_15
REMARK    6  A    between atoms: C_15  and  C_16
REMARK    7  A    between atoms: C_16  and  P_17
REMARK    8  A    between atoms: P_17  and  C_18
REMARK    9  A    between atoms: P_17  and  C_24
REMARK   10  A    between atoms: P_17  and  C_30
REMARK                            x       y       z     vdW  Elec       q    Type
REMARK                         _______ _______ _______ _____ _____    ______ ____
ROOT
ATOM      1  P   UNL     1      -0.403  11.097  18.827  0.00  0.00    +0.000 P 
ENDROOT
BRANCH   1   2
ATOM      2  C   UNL     1      -0.572  10.655  20.553  0.00  0.00    +0.000 A 
ATOM      3  C   UNL     1      -0.706  11.652  21.530  0.00  0.00    +0.000 A 
ATOM      4  C   UNL     1      -0.814  11.325  22.885  0.00  0.00    +0.000 A 
ATOM      5  C   UNL     1      -0.785   9.993  23.286  0.00  0.00    +0.000 A 
ATOM      6  C   UNL     1      -0.640   8.989  22.332  0.00  0.00    +0.000 A 
ATOM      7  C   UNL     1      -0.528   9.320  20.978  0.00  0.00    +0.000 A 
ENDBRANCH   1   2
BRANCH   1   8
ATOM      8  C   UNL     1       0.330  12.713  18.656  0.00  0.00    +0.000 A 
ATOM      9  C   UNL     1       1.708  12.886  18.478  0.00  0.00    +0.000 A 
ATOM     10  C   UNL     1       2.267  14.161  18.386  0.00  0.00    +0.000 A 
ATOM     11  C   UNL     1       1.448  15.285  18.471  0.00  0.00    +0.000 A 
ATOM     12  C   UNL     1       0.074  15.132  18.636  0.00  0.00    +0.000 A 
ATOM     13  C   UNL     1      -0.481  13.854  18.723  0.00  0.00    +0.000 A 
ENDBRANCH   1   8
BRANCH   1  14
ATOM     14  C   UNL     1      -1.943  11.078  17.924  0.00  0.00    +0.000 A 
ATOM     15  C   UNL     1      -2.055  10.454  16.674  0.00  0.00    +0.000 A 
ATOM     16  C   UNL     1      -3.265  10.460  15.972  0.00  0.00    +0.000 A 
ATOM     17  C   UNL     1      -4.387  11.074  16.518  0.00  0.00    +0.000 A 
ATOM     18  C   UNL     1      -4.304  11.677  17.769  0.00  0.00    +0.000 A 
ATOM     19  C   UNL     1      -3.094  11.671  18.467  0.00  0.00    +0.000 A 
ENDBRANCH   1  14
BRANCH   1  20
ATOM     20  C   UNL     1       0.735   9.856  18.097  0.00  0.00    +0.000 C 
BRANCH  20  21
ATOM     21  C   UNL     1       1.685   9.260  19.121  0.00  0.00    +0.000 C 
BRANCH  21  22
ATOM     22  C   UNL     1       1.874   7.753  18.978  0.00  0.00    +0.000 C 
BRANCH  22  23
ATOM     23  C   UNL     1       2.139   7.095  20.338  0.00  0.00    +0.000 C 
BRANCH  23  24
ATOM     24  C   UNL     1       1.886   5.586  20.326  0.00  0.00    +0.000 C 
BRANCH  24  32
ATOM     25  C   UNL     1       6.031   4.951  17.154  0.00  0.00    +0.000 A 
ATOM     26  C   UNL     1       5.970   5.738  18.307  0.00  0.00    +0.000 A 
ATOM     27  C   UNL     1       4.792   5.812  19.057  0.00  0.00    +0.000 A 
ATOM     28  C   UNL     1       3.678   5.067  18.619  0.00  0.00    +0.000 A 
ATOM     29  C   UNL     1       3.730   4.264  17.474  0.00  0.00    +0.000 A 
ATOM     30  C   UNL     1       2.462   3.643  17.330  0.00  0.00    +0.000 A 
ATOM     31  C   UNL     1       1.666   4.074  18.361  0.00  0.00    +0.000 A 
ATOM     32  N   UNL     1       2.400   4.943  19.127  0.00  0.00    +0.000 N 
ATOM     33  C   UNL     1       4.923   4.202  16.727  0.00  0.00    +0.000 A 
BRANCH  25  35
ATOM     34  O   UNL     1       7.379   5.673  15.407  0.00  0.00    +0.000 OA
ATOM     35  N   UNL     1       7.272   4.898  16.369  0.00  0.00    +0.000 N 
ATOM     36  O   UNL     1       8.141   4.083  16.711  0.00  0.00    +0.000 OA
ENDBRANCH  25  35
ENDBRANCH  24  32
ENDBRANCH  23  24
ENDBRANCH  22  23
ENDBRANCH  21  22
ENDBRANCH  20  21
ENDBRANCH   1  20
TORSDOF 10
ENDMDL
