MODEL 1
REMARK VINA RESULT:      -8.0      0.000      0.000
REMARK  Name = 
REMARK  5 active torsions:
REMARK  status: ('A' for Active; 'I' for Inactive)
REMARK    1  A    between atoms: C_2  and  C_3
REMARK    2  A    between atoms: C_2  and  C_16
REMARK    3  A    between atoms: C_3  and  S_4
REMARK    4  A    between atoms: S_4  and  C_5
REMARK    5  A    between atoms: N_9  and  C_10
REMARK                            x       y       z     vdW  Elec       q    Type
REMARK                         _______ _______ _______ _____ _____    ______ ____
ROOT
ATOM      1  C   UNL     1       6.299   5.768  17.040  0.00  0.00    +0.000 A 
ATOM      2  C   UNL     1       6.903   5.615  18.267  0.00  0.00    +0.000 A 
ATOM      3  N   UNL     1       7.886   4.685  18.187  0.00  0.00    +0.000 NA
ATOM      4  N   UNL     1       7.935   4.255  16.937  0.00  0.00    +0.000 NA
ATOM      5  N   UNL     1       7.028   4.947  16.179  0.00  0.00    +0.000 N 
ENDROOT
BRANCH   5   6
ATOM      6  C   UNL     1       6.986   4.711  14.770  0.00  0.00    +0.000 A 
ATOM      7  C   UNL     1       6.102   3.730  14.276  0.00  0.00    +0.000 A 
ATOM      8  C   UNL     1       6.013   3.464  12.907  0.00  0.00    +0.000 A 
ATOM      9  C   UNL     1       6.807   4.169  12.010  0.00  0.00    +0.000 A 
ATOM     10  C   UNL     1       7.699   5.127  12.483  0.00  0.00    +0.000 A 
ATOM     11  C   UNL     1       7.796   5.391  13.855  0.00  0.00    +0.000 A 
ENDBRANCH   5   6
BRANCH   1  12
ATOM     12  S   UNL     1       4.916   6.751  16.675  0.00  0.00    +0.000 S 
BRANCH  12  13
ATOM     13  C   UNL     1       3.766   6.215  17.984  0.00  0.00    +0.000 C 
BRANCH  13  15
ATOM     14  O   UNL     1       3.482   4.133  16.752  0.00  0.00    +0.000 OA
ATOM     15  C   UNL     1       3.296   4.780  17.780  0.00  0.00    +0.000 C 
BRANCH  15  16
ATOM     16  C   UNL     1       2.515   4.143  18.883  0.00  0.00    +0.000 A 
ATOM     17  C   UNL     1       1.529   3.177  18.643  0.00  0.00    +0.000 A 
ATOM     18  C   UNL     1       0.817   2.622  19.710  0.00  0.00    +0.000 A 
ATOM     19  C   UNL     1       1.087   3.021  21.019  0.00  0.00    +0.000 A 
ATOM     20  C   UNL     1       2.068   3.981  21.266  0.00  0.00    +0.000 A 
ATOM     21  C   UNL     1       2.775   4.544  20.202  0.00  0.00    +0.000 A 
ENDBRANCH  15  16
ENDBRANCH  13  15
ENDBRANCH  12  13
ENDBRANCH   1  12
TORSDOF 5
ENDMDL
MODEL 2
REMARK VINA RESULT:      -8.0      0.102      1.055
REMARK  Name = 
REMARK  5 active torsions:
REMARK  status: ('A' for Active; 'I' for Inactive)
REMARK    1  A    between atoms: C_2  and  C_3
REMARK    2  A    between atoms: C_2  and  C_16
REMARK    3  A    between atoms: C_3  and  S_4
REMARK    4  A    between atoms: S_4  and  C_5
REMARK    5  A    between atoms: N_9  and  C_10
REMARK                            x       y       z     vdW  Elec       q    Type
REMARK                         _______ _______ _______ _____ _____    ______ ____
ROOT
ATOM      1  C   UNL     1       6.339   5.721  17.044  0.00  0.00    +0.000 A 
ATOM      2  C   UNL     1       6.989   5.599  18.249  0.00  0.00    +0.000 A 
ATOM      3  N   UNL     1       7.980   4.678  18.151  0.00  0.00    +0.000 NA
ATOM      4  N   UNL     1       7.988   4.225  16.908  0.00  0.00    +0.000 NA
ATOM      5  N   UNL     1       7.045   4.893  16.172  0.00  0.00    +0.000 N 
ENDROOT
BRANCH   5   6
ATOM      6  C   UNL     1       6.954   4.629  14.770  0.00  0.00    +0.000 A 
ATOM      7  C   UNL     1       7.781   5.357  13.891  0.00  0.00    +0.000 A 
ATOM      8  C   UNL     1       7.739   5.134  12.511  0.00  0.00    +0.000 A 
ATOM      9  C   UNL     1       6.870   4.185  11.987  0.00  0.00    +0.000 A 
ATOM     10  C   UNL     1       6.033   3.471  12.840  0.00  0.00    +0.000 A 
ATOM     11  C   UNL     1       6.067   3.697  14.222  0.00  0.00    +0.000 A 
ENDBRANCH   5   6
BRANCH   1  12
ATOM     12  S   UNL     1       4.932   6.682  16.712  0.00  0.00    +0.000 S 
BRANCH  12  13
ATOM     13  C   UNL     1       3.824   6.130  18.050  0.00  0.00    +0.000 C 
BRANCH  13  15
ATOM     14  O   UNL     1       3.494   4.067  16.799  0.00  0.00    +0.000 OA
ATOM     15  C   UNL     1       3.337   4.702  17.839  0.00  0.00    +0.000 C 
BRANCH  15  16
ATOM     16  C   UNL     1       2.573   4.057  18.950  0.00  0.00    +0.000 A 
ATOM     17  C   UNL     1       1.617   3.060  18.723  0.00  0.00    +0.000 A 
ATOM     18  C   UNL     1       0.921   2.498  19.797  0.00  0.00    +0.000 A 
ATOM     19  C   UNL     1       1.177   2.925  21.100  0.00  0.00    +0.000 A 
ATOM     20  C   UNL     1       2.127   3.917  21.334  0.00  0.00    +0.000 A 
ATOM     21  C   UNL     1       2.819   4.486  20.263  0.00  0.00    +0.000 A 
ENDBRANCH  15  16
ENDBRANCH  13  15
ENDBRANCH  12  13
ENDBRANCH   1  12
TORSDOF 5
ENDMDL
MODEL 3
REMARK VINA RESULT:      -7.9      0.931      1.407
REMARK  Name = 
REMARK  5 active torsions:
REMARK  status: ('A' for Active; 'I' for Inactive)
REMARK    1  A    between atoms: C_2  and  C_3
REMARK    2  A    between atoms: C_2  and  C_16
REMARK    3  A    between atoms: C_3  and  S_4
REMARK    4  A    between atoms: S_4  and  C_5
REMARK    5  A    between atoms: N_9  and  C_10
REMARK                            x       y       z     vdW  Elec       q    Type
REMARK                         _______ _______ _______ _____ _____    ______ ____
ROOT
ATOM      1  C   UNL     1       6.267   5.698  17.135  0.00  0.00    +0.000 A 
ATOM      2  C   UNL     1       6.866   5.540  18.363  0.00  0.00    +0.000 A 
ATOM      3  N   UNL     1       7.880   4.644  18.272  0.00  0.00    +0.000 NA
ATOM      4  N   UNL     1       7.952   4.242  17.015  0.00  0.00    +0.000 NA
ATOM      5  N   UNL     1       7.029   4.919  16.264  0.00  0.00    +0.000 N 
ENDROOT
BRANCH   5   6
ATOM      6  C   UNL     1       7.004   4.710  14.849  0.00  0.00    +0.000 A 
ATOM      7  C   UNL     1       6.131   3.735  14.326  0.00  0.00    +0.000 A 
ATOM      8  C   UNL     1       6.060   3.496  12.951  0.00  0.00    +0.000 A 
ATOM      9  C   UNL     1       6.862   4.220  12.077  0.00  0.00    +0.000 A 
ATOM     10  C   UNL     1       7.743   5.173  12.579  0.00  0.00    +0.000 A 
ATOM     11  C   UNL     1       7.823   5.411  13.958  0.00  0.00    +0.000 A 
ENDBRANCH   5   6
BRANCH   1  12
ATOM     12  S   UNL     1       4.855   6.643  16.779  0.00  0.00    +0.000 S 
BRANCH  12  13
ATOM     13  C   UNL     1       3.539   5.483  17.271  0.00  0.00    +0.000 C 
BRANCH  13  15
ATOM     14  O   UNL     1       2.868   7.014  19.043  0.00  0.00    +0.000 OA
ATOM     15  C   UNL     1       2.905   5.868  18.602  0.00  0.00    +0.000 C 
BRANCH  15  16
ATOM     16  C   UNL     1       2.340   4.770  19.445  0.00  0.00    +0.000 A 
ATOM     17  C   UNL     1       2.500   4.735  20.836  0.00  0.00    +0.000 A 
ATOM     18  C   UNL     1       1.963   3.678  21.577  0.00  0.00    +0.000 A 
ATOM     19  C   UNL     1       1.262   2.656  20.937  0.00  0.00    +0.000 A 
ATOM     20  C   UNL     1       1.098   2.685  19.553  0.00  0.00    +0.000 A 
ATOM     21  C   UNL     1       1.641   3.734  18.809  0.00  0.00    +0.000 A 
ENDBRANCH  15  16
ENDBRANCH  13  15
ENDBRANCH  12  13
ENDBRANCH   1  12
TORSDOF 5
ENDMDL
MODEL 4
REMARK VINA RESULT:      -7.8      1.108      1.627
REMARK  Name = 
REMARK  5 active torsions:
REMARK  status: ('A' for Active; 'I' for Inactive)
REMARK    1  A    between atoms: C_2  and  C_3
REMARK    2  A    between atoms: C_2  and  C_16
REMARK    3  A    between atoms: C_3  and  S_4
REMARK    4  A    between atoms: S_4  and  C_5
REMARK    5  A    between atoms: N_9  and  C_10
REMARK                            x       y       z     vdW  Elec       q    Type
REMARK                         _______ _______ _______ _____ _____    ______ ____
ROOT
ATOM      1  C   UNL     1       6.225   5.614  16.960  0.00  0.00    +0.000 A 
ATOM      2  C   UNL     1       6.847   5.484  18.180  0.00  0.00    +0.000 A 
ATOM      3  N   UNL     1       7.878   4.609  18.084  0.00  0.00    +0.000 NA
ATOM      4  N   UNL     1       7.938   4.191  16.831  0.00  0.00    +0.000 NA
ATOM      5  N   UNL     1       6.988   4.839  16.087  0.00  0.00    +0.000 N 
ENDROOT
BRANCH   5   6
ATOM      6  C   UNL     1       6.946   4.611  14.676  0.00  0.00    +0.000 A 
ATOM      7  C   UNL     1       7.787   5.375  13.843  0.00  0.00    +0.000 A 
ATOM      8  C   UNL     1       7.793   5.188  12.458  0.00  0.00    +0.000 A 
ATOM      9  C   UNL     1       6.956   4.239  11.882  0.00  0.00    +0.000 A 
ATOM     10  C   UNL     1       6.106   3.490  12.689  0.00  0.00    +0.000 A 
ATOM     11  C   UNL     1       6.092   3.679  14.077  0.00  0.00    +0.000 A 
ENDBRANCH   5   6
BRANCH   1  12
ATOM     12  S   UNL     1       4.788   6.525  16.615  0.00  0.00    +0.000 S 
BRANCH  12  13
ATOM     13  C   UNL     1       4.163   6.821  18.302  0.00  0.00    +0.000 C 
BRANCH  13  15
ATOM     14  O   UNL     1       1.873   7.636  18.144  0.00  0.00    +0.000 OA
ATOM     15  C   UNL     1       2.646   6.710  18.378  0.00  0.00    +0.000 C 
BRANCH  15  16
ATOM     16  C   UNL     1       2.067   5.403  18.817  0.00  0.00    +0.000 A 
ATOM     17  C   UNL     1       1.778   4.371  17.916  0.00  0.00    +0.000 A 
ATOM     18  C   UNL     1       1.224   3.173  18.378  0.00  0.00    +0.000 A 
ATOM     19  C   UNL     1       0.961   2.997  19.736  0.00  0.00    +0.000 A 
ATOM     20  C   UNL     1       1.248   4.020  20.639  0.00  0.00    +0.000 A 
ATOM     21  C   UNL     1       1.793   5.221  20.181  0.00  0.00    +0.000 A 
ENDBRANCH  15  16
ENDBRANCH  13  15
ENDBRANCH  12  13
ENDBRANCH   1  12
TORSDOF 5
ENDMDL
MODEL 5
REMARK VINA RESULT:      -7.7      1.009      1.094
REMARK  Name = 
REMARK  5 active torsions:
REMARK  status: ('A' for Active; 'I' for Inactive)
REMARK    1  A    between atoms: C_2  and  C_3
REMARK    2  A    between atoms: C_2  and  C_16
REMARK    3  A    between atoms: C_3  and  S_4
REMARK    4  A    between atoms: S_4  and  C_5
REMARK    5  A    between atoms: N_9  and  C_10
REMARK                            x       y       z     vdW  Elec       q    Type
REMARK                         _______ _______ _______ _____ _____    ______ ____
ROOT
ATOM      1  C   UNL     1       5.944   5.088  17.228  0.00  0.00    +0.000 A 
ATOM      2  C   UNL     1       6.585   5.049  18.444  0.00  0.00    +0.000 A 
ATOM      3  N   UNL     1       7.836   4.549  18.294  0.00  0.00    +0.000 NA
ATOM      4  N   UNL     1       8.013   4.285  17.010  0.00  0.00    +0.000 NA
ATOM      5  N   UNL     1       6.904   4.670  16.306  0.00  0.00    +0.000 N 
ENDROOT
BRANCH   5   6
ATOM      6  C   UNL     1       6.923   4.568  14.880  0.00  0.00    +0.000 A 
ATOM      7  C   UNL     1       6.045   3.658  14.257  0.00  0.00    +0.000 A 
ATOM      8  C   UNL     1       6.015   3.523  12.866  0.00  0.00    +0.000 A 
ATOM      9  C   UNL     1       6.864   4.289  12.076  0.00  0.00    +0.000 A 
ATOM     10  C   UNL     1       7.751   5.178  12.676  0.00  0.00    +0.000 A 
ATOM     11  C   UNL     1       7.788   5.311  14.070  0.00  0.00    +0.000 A 
ENDBRANCH   5   6
BRANCH   1  12
ATOM     12  S   UNL     1       4.293   5.535  16.935  0.00  0.00    +0.000 S 
BRANCH  12  13
ATOM     13  C   UNL     1       3.493   3.897  16.947  0.00  0.00    +0.000 C 
BRANCH  13  15
ATOM     14  O   UNL     1       1.077   4.193  17.042  0.00  0.00    +0.000 OA
ATOM     15  C   UNL     1       2.128   3.932  17.623  0.00  0.00    +0.000 C 
BRANCH  15  16
ATOM     16  C   UNL     1       2.076   3.685  19.096  0.00  0.00    +0.000 A 
ATOM     17  C   UNL     1       1.831   2.416  19.635  0.00  0.00    +0.000 A 
ATOM     18  C   UNL     1       1.779   2.241  21.021  0.00  0.00    +0.000 A 
ATOM     19  C   UNL     1       1.976   3.327  21.875  0.00  0.00    +0.000 A 
ATOM     20  C   UNL     1       2.222   4.593  21.345  0.00  0.00    +0.000 A 
ATOM     21  C   UNL     1       2.266   4.773  19.961  0.00  0.00    +0.000 A 
ENDBRANCH  15  16
ENDBRANCH  13  15
ENDBRANCH  12  13
ENDBRANCH   1  12
TORSDOF 5
ENDMDL
MODEL 6
REMARK VINA RESULT:      -7.5      2.396      7.332
REMARK  Name = 
REMARK  5 active torsions:
REMARK  status: ('A' for Active; 'I' for Inactive)
REMARK    1  A    between atoms: C_2  and  C_3
REMARK    2  A    between atoms: C_2  and  C_16
REMARK    3  A    between atoms: C_3  and  S_4
REMARK    4  A    between atoms: S_4  and  C_5
REMARK    5  A    between atoms: N_9  and  C_10
REMARK                            x       y       z     vdW  Elec       q    Type
REMARK                         _______ _______ _______ _____ _____    ______ ____
ROOT
ATOM      1  C   UNL     1       4.273   6.120  18.151  0.00  0.00    +0.000 A 
ATOM      2  C   UNL     1       4.266   7.373  17.583  0.00  0.00    +0.000 A 
ATOM      3  N   UNL     1       3.011   7.885  17.603  0.00  0.00    +0.000 NA
ATOM      4  N   UNL     1       2.223   6.997  18.186  0.00  0.00    +0.000 NA
ATOM      5  N   UNL     1       2.969   5.929  18.606  0.00  0.00    +0.000 N 
ENDROOT
BRANCH   5   6
ATOM      6  C   UNL     1       2.327   4.893  19.355  0.00  0.00    +0.000 A 
ATOM      7  C   UNL     1       2.565   4.818  20.742  0.00  0.00    +0.000 A 
ATOM      8  C   UNL     1       1.958   3.832  21.525  0.00  0.00    +0.000 A 
ATOM      9  C   UNL     1       1.108   2.903  20.936  0.00  0.00    +0.000 A 
ATOM     10  C   UNL     1       0.878   2.953  19.565  0.00  0.00    +0.000 A 
ATOM     11  C   UNL     1       1.490   3.935  18.775  0.00  0.00    +0.000 A 
ENDBRANCH   5   6
BRANCH   1  12
ATOM     12  S   UNL     1       5.617   5.026  18.242  0.00  0.00    +0.000 S 
BRANCH  12  13
ATOM     13  C   UNL     1       5.647   4.384  16.536  0.00  0.00    +0.000 C 
BRANCH  13  15
ATOM     14  O   UNL     1       7.473   5.937  16.103  0.00  0.00    +0.000 OA
ATOM     15  C   UNL     1       6.711   5.067  15.687  0.00  0.00    +0.000 C 
BRANCH  15  16
ATOM     16  C   UNL     1       6.795   4.690  14.243  0.00  0.00    +0.000 A 
ATOM     17  C   UNL     1       7.681   5.312  13.355  0.00  0.00    +0.000 A 
ATOM     18  C   UNL     1       7.709   4.930  12.010  0.00  0.00    +0.000 A 
ATOM     19  C   UNL     1       6.860   3.926  11.546  0.00  0.00    +0.000 A 
ATOM     20  C   UNL     1       5.975   3.302  12.424  0.00  0.00    +0.000 A 
ATOM     21  C   UNL     1       5.938   3.686  13.767  0.00  0.00    +0.000 A 
ENDBRANCH  15  16
ENDBRANCH  13  15
ENDBRANCH  12  13
ENDBRANCH   1  12
TORSDOF 5
ENDMDL
MODEL 7
REMARK VINA RESULT:      -7.5      1.421      1.500
REMARK  Name = 
REMARK  5 active torsions:
REMARK  status: ('A' for Active; 'I' for Inactive)
REMARK    1  A    between atoms: C_2  and  C_3
REMARK    2  A    between atoms: C_2  and  C_16
REMARK    3  A    between atoms: C_3  and  S_4
REMARK    4  A    between atoms: S_4  and  C_5
REMARK    5  A    between atoms: N_9  and  C_10
REMARK                            x       y       z     vdW  Elec       q    Type
REMARK                         _______ _______ _______ _____ _____    ______ ____
ROOT
ATOM      1  C   UNL     1       6.339   5.790  17.036  0.00  0.00    +0.000 A 
ATOM      2  C   UNL     1       6.936   5.621  18.263  0.00  0.00    +0.000 A 
ATOM      3  N   UNL     1       7.894   4.665  18.186  0.00  0.00    +0.000 NA
ATOM      4  N   UNL     1       7.934   4.234  16.936  0.00  0.00    +0.000 NA
ATOM      5  N   UNL     1       7.048   4.950  16.176  0.00  0.00    +0.000 N 
ENDROOT
BRANCH   5   6
ATOM      6  C   UNL     1       7.002   4.715  14.767  0.00  0.00    +0.000 A 
ATOM      7  C   UNL     1       6.080   3.772  14.270  0.00  0.00    +0.000 A 
ATOM      8  C   UNL     1       5.987   3.509  12.900  0.00  0.00    +0.000 A 
ATOM      9  C   UNL     1       6.813   4.179  12.006  0.00  0.00    +0.000 A 
ATOM     10  C   UNL     1       7.741   5.099  12.483  0.00  0.00    +0.000 A 
ATOM     11  C   UNL     1       7.844   5.361  13.855  0.00  0.00    +0.000 A 
ENDBRANCH   5   6
BRANCH   1  12
ATOM     12  S   UNL     1       4.984   6.811  16.668  0.00  0.00    +0.000 S 
BRANCH  12  13
ATOM     13  C   UNL     1       4.053   6.711  18.232  0.00  0.00    +0.000 C 
BRANCH  13  15
ATOM     14  O   UNL     1       1.688   6.202  17.946  0.00  0.00    +0.000 OA
ATOM     15  C   UNL     1       2.836   5.800  18.116  0.00  0.00    +0.000 C 
BRANCH  15  16
ATOM     16  C   UNL     1       3.053   4.330  18.272  0.00  0.00    +0.000 A 
ATOM     17  C   UNL     1       2.415   3.387  17.456  0.00  0.00    +0.000 A 
ATOM     18  C   UNL     1       2.642   2.022  17.653  0.00  0.00    +0.000 A 
ATOM     19  C   UNL     1       3.507   1.590  18.658  0.00  0.00    +0.000 A 
ATOM     20  C   UNL     1       4.146   2.523  19.474  0.00  0.00    +0.000 A 
ATOM     21  C   UNL     1       3.916   3.887  19.285  0.00  0.00    +0.000 A 
ENDBRANCH  15  16
ENDBRANCH  13  15
ENDBRANCH  12  13
ENDBRANCH   1  12
TORSDOF 5
ENDMDL
MODEL 8
REMARK VINA RESULT:      -7.4      1.997      6.594
REMARK  Name = 
REMARK  5 active torsions:
REMARK  status: ('A' for Active; 'I' for Inactive)
REMARK    1  A    between atoms: C_2  and  C_3
REMARK    2  A    between atoms: C_2  and  C_16
REMARK    3  A    between atoms: C_3  and  S_4
REMARK    4  A    between atoms: S_4  and  C_5
REMARK    5  A    between atoms: N_9  and  C_10
REMARK                            x       y       z     vdW  Elec       q    Type
REMARK                         _______ _______ _______ _____ _____    ______ ____
ROOT
ATOM      1  C   UNL     1       6.131   5.354  17.604  0.00  0.00    +0.000 A 
ATOM      2  C   UNL     1       7.285   5.643  18.294  0.00  0.00    +0.000 A 
ATOM      3  N   UNL     1       7.109   5.400  19.616  0.00  0.00    +0.000 NA
ATOM      4  N   UNL     1       5.877   4.947  19.782  0.00  0.00    +0.000 NA
ATOM      5  N   UNL     1       5.264   4.831  18.563  0.00  0.00    +0.000 N 
ENDROOT
BRANCH   5   6
ATOM      6  C   UNL     1       3.954   4.260  18.503  0.00  0.00    +0.000 A 
ATOM      7  C   UNL     1       2.946   4.797  19.328  0.00  0.00    +0.000 A 
ATOM      8  C   UNL     1       1.646   4.283  19.304  0.00  0.00    +0.000 A 
ATOM      9  C   UNL     1       1.333   3.224  18.460  0.00  0.00    +0.000 A 
ATOM     10  C   UNL     1       2.322   2.670  17.653  0.00  0.00    +0.000 A 
ATOM     11  C   UNL     1       3.628   3.177  17.680  0.00  0.00    +0.000 A 
ENDBRANCH   5   6
BRANCH   1  12
ATOM     12  S   UNL     1       5.833   5.619  15.915  0.00  0.00    +0.000 S 
BRANCH  12  13
ATOM     13  C   UNL     1       7.076   4.509  15.175  0.00  0.00    +0.000 C 
BRANCH  13  15
ATOM     14  O   UNL     1       7.910   5.606  13.166  0.00  0.00    +0.000 OA
ATOM     15  C   UNL     1       7.217   4.728  13.674  0.00  0.00    +0.000 C 
BRANCH  15  16
ATOM     16  C   UNL     1       6.418   3.848  12.767  0.00  0.00    +0.000 A 
ATOM     17  C   UNL     1       5.041   4.019  12.578  0.00  0.00    +0.000 A 
ATOM     18  C   UNL     1       4.338   3.160  11.728  0.00  0.00    +0.000 A 
ATOM     19  C   UNL     1       5.004   2.132  11.060  0.00  0.00    +0.000 A 
ATOM     20  C   UNL     1       6.374   1.956  11.243  0.00  0.00    +0.000 A 
ATOM     21  C   UNL     1       7.078   2.807  12.097  0.00  0.00    +0.000 A 
ENDBRANCH  15  16
ENDBRANCH  13  15
ENDBRANCH  12  13
ENDBRANCH   1  12
TORSDOF 5
ENDMDL
MODEL 9
REMARK VINA RESULT:      -7.3      3.473      5.901
REMARK  Name = 
REMARK  5 active torsions:
REMARK  status: ('A' for Active; 'I' for Inactive)
REMARK    1  A    between atoms: C_2  and  C_3
REMARK    2  A    between atoms: C_2  and  C_16
REMARK    3  A    between atoms: C_3  and  S_4
REMARK    4  A    between atoms: S_4  and  C_5
REMARK    5  A    between atoms: N_9  and  C_10
REMARK                            x       y       z     vdW  Elec       q    Type
REMARK                         _______ _______ _______ _____ _____    ______ ____
ROOT
ATOM      1  C   UNL     1       4.888   5.771  18.141  0.00  0.00    +0.000 A 
ATOM      2  C   UNL     1       6.262   5.742  18.185  0.00  0.00    +0.000 A 
ATOM      3  N   UNL     1       6.680   4.718  18.969  0.00  0.00    +0.000 NA
ATOM      4  N   UNL     1       5.607   4.084  19.411  0.00  0.00    +0.000 NA
ATOM      5  N   UNL     1       4.485   4.650  18.868  0.00  0.00    +0.000 N 
ENDROOT
BRANCH   5   6
ATOM      6  C   UNL     1       3.214   4.051  19.134  0.00  0.00    +0.000 A 
ATOM      7  C   UNL     1       2.700   4.115  20.445  0.00  0.00    +0.000 A 
ATOM      8  C   UNL     1       1.459   3.554  20.760  0.00  0.00    +0.000 A 
ATOM      9  C   UNL     1       0.714   2.918  19.774  0.00  0.00    +0.000 A 
ATOM     10  C   UNL     1       1.216   2.830  18.480  0.00  0.00    +0.000 A 
ATOM     11  C   UNL     1       2.463   3.384  18.161  0.00  0.00    +0.000 A 
ENDBRANCH   5   6
BRANCH   1  12
ATOM     12  S   UNL     1       3.895   6.967  17.369  0.00  0.00    +0.000 S 
BRANCH  12  13
ATOM     13  C   UNL     1       2.707   7.332  18.703  0.00  0.00    +0.000 C 
BRANCH  13  15
ATOM     14  O   UNL     1       2.038   9.298  17.431  0.00  0.00    +0.000 OA
ATOM     15  C   UNL     1       1.965   8.641  18.466  0.00  0.00    +0.000 C 
BRANCH  15  16
ATOM     16  C   UNL     1       1.137   9.182  19.587  0.00  0.00    +0.000 A 
ATOM     17  C   UNL     1       0.339  10.324  19.446  0.00  0.00    +0.000 A 
ATOM     18  C   UNL     1      -0.405  10.797  20.531  0.00  0.00    +0.000 A 
ATOM     19  C   UNL     1      -0.363  10.132  21.756  0.00  0.00    +0.000 A 
ATOM     20  C   UNL     1       0.428   8.994  21.903  0.00  0.00    +0.000 A 
ATOM     21  C   UNL     1       1.180   8.523  20.825  0.00  0.00    +0.000 A 
ENDBRANCH  15  16
ENDBRANCH  13  15
ENDBRANCH  12  13
ENDBRANCH   1  12
TORSDOF 5
ENDMDL
