MODEL 1
REMARK VINA RESULT:      -7.9      0.000      0.000
REMARK  Name = 
REMARK  7 active torsions:
REMARK  status: ('A' for Active; 'I' for Inactive)
REMARK    1  A    between atoms: C_2  and  C_3
REMARK    2  A    between atoms: C_2  and  C_12
REMARK    3  A    between atoms: C_4  and  C_5
REMARK    4  A    between atoms: C_9  and  O_10
REMARK    5  A    between atoms: C_15  and  O_16
REMARK    6  A    between atoms: O_16  and  C_17
REMARK    7  A    between atoms: C_17  and  C_19
REMARK                            x       y       z     vdW  Elec       q    Type
REMARK                         _______ _______ _______ _____ _____    ______ ____
ROOT
ATOM      1  C   UNL     1       1.729   8.377  19.348  0.00  0.00    +0.000 A 
ATOM      2  C   UNL     1       2.404   8.173  18.137  0.00  0.00    +0.000 A 
ATOM      3  C   UNL     1       3.115   6.993  17.906  0.00  0.00    +0.000 A 
ATOM      4  C   UNL     1       3.178   6.011  18.894  0.00  0.00    +0.000 A 
ATOM      5  C   UNL     1       2.484   6.188  20.096  0.00  0.00    +0.000 A 
ATOM      6  C   UNL     1       1.759   7.372  20.324  0.00  0.00    +0.000 A 
ENDROOT
BRANCH   1   8
ATOM      7  O   UNL     1       1.152  10.351  20.488  0.00  0.00    +0.000 OA
ATOM      8  C   UNL     1       0.979   9.655  19.490  0.00  0.00    +0.000 C 
BRANCH   8   9
ATOM      9  C   UNL     1      -0.007  10.025  18.443  0.00  0.00    +0.000 C 
ATOM     10  C   UNL     1      -1.284  10.238  18.795  0.00  0.00    +0.000 C 
BRANCH  10  11
ATOM     11  C   UNL     1      -2.295  10.600  17.805  0.00  0.00    +0.000 A 
ATOM     12  C   UNL     1      -3.423  11.341  18.174  0.00  0.00    +0.000 A 
ATOM     13  C   UNL     1      -4.406  11.642  17.226  0.00  0.00    +0.000 A 
ATOM     14  C   UNL     1      -4.267  11.202  15.910  0.00  0.00    +0.000 A 
ATOM     15  C   UNL     1      -3.138  10.474  15.548  0.00  0.00    +0.000 A 
ATOM     16  C   UNL     1      -2.151  10.176  16.481  0.00  0.00    +0.000 A 
BRANCH  15  17
ATOM     17  O   UNL     1      -2.963  10.021  14.274  0.00  0.00    +0.000 OA
ATOM     18  H   UNL     1      -2.745   9.076  14.307  0.00  0.00    +0.000 HD
ENDBRANCH  15  17
ENDBRANCH  10  11
ENDBRANCH   8   9
ENDBRANCH   1   8
BRANCH   4  19
ATOM     19  O   UNL     1       3.866   4.781  18.719  0.00  0.00    +0.000 OA
BRANCH  19  20
ATOM     20  C   UNL     1       5.263   4.755  18.568  0.00  0.00    +0.000 C 
ATOM     21  O   UNL     1       6.060   4.841  19.501  0.00  0.00    +0.000 OA
BRANCH  20  22
ATOM     22  C   UNL     1       5.642   4.604  17.171  0.00  0.00    +0.000 A 
ATOM     23  C   UNL     1       4.948   4.118  16.077  0.00  0.00    +0.000 A 
ATOM     24  C   UNL     1       5.719   4.168  14.871  0.00  0.00    +0.000 A 
ATOM     25  C   UNL     1       6.976   4.686  15.082  0.00  0.00    +0.000 A 
ATOM     26  S   UNL     1       7.232   5.094  16.714  0.00  0.00    +0.000 S 
ENDBRANCH  20  22
ENDBRANCH  19  20
ENDBRANCH   4  19
TORSDOF 7
ENDMDL
MODEL 2
REMARK VINA RESULT:      -7.9      2.381      3.230
REMARK  Name = 
REMARK  7 active torsions:
REMARK  status: ('A' for Active; 'I' for Inactive)
REMARK    1  A    between atoms: C_2  and  C_3
REMARK    2  A    between atoms: C_2  and  C_12
REMARK    3  A    between atoms: C_4  and  C_5
REMARK    4  A    between atoms: C_9  and  O_10
REMARK    5  A    between atoms: C_15  and  O_16
REMARK    6  A    between atoms: O_16  and  C_17
REMARK    7  A    between atoms: C_17  and  C_19
REMARK                            x       y       z     vdW  Elec       q    Type
REMARK                         _______ _______ _______ _____ _____    ______ ____
ROOT
ATOM      1  C   UNL     1       1.355   9.204  19.495  0.00  0.00    +0.000 A 
ATOM      2  C   UNL     1       1.748   8.989  18.168  0.00  0.00    +0.000 A 
ATOM      3  C   UNL     1       2.309   7.771  17.777  0.00  0.00    +0.000 A 
ATOM      4  C   UNL     1       2.505   6.760  18.716  0.00  0.00    +0.000 A 
ATOM      5  C   UNL     1       2.091   6.949  20.039  0.00  0.00    +0.000 A 
ATOM      6  C   UNL     1       1.516   8.172  20.430  0.00  0.00    +0.000 A 
ENDROOT
BRANCH   1   8
ATOM      7  O   UNL     1       1.124  11.148  20.798  0.00  0.00    +0.000 OA
ATOM      8  C   UNL     1       0.745  10.524  19.809  0.00  0.00    +0.000 C 
BRANCH   8   9
ATOM      9  C   UNL     1      -0.354  11.027  18.944  0.00  0.00    +0.000 C 
ATOM     10  C   UNL     1      -1.358  10.198  18.617  0.00  0.00    +0.000 C 
BRANCH  10  11
ATOM     11  C   UNL     1      -2.460  10.640  17.766  0.00  0.00    +0.000 A 
ATOM     12  C   UNL     1      -3.524  11.375  18.300  0.00  0.00    +0.000 A 
ATOM     13  C   UNL     1      -4.595  11.752  17.485  0.00  0.00    +0.000 A 
ATOM     14  C   UNL     1      -4.608  11.396  16.136  0.00  0.00    +0.000 A 
ATOM     15  C   UNL     1      -3.541  10.674  15.610  0.00  0.00    +0.000 A 
ATOM     16  C   UNL     1      -2.467  10.299  16.411  0.00  0.00    +0.000 A 
BRANCH  15  17
ATOM     17  O   UNL     1      -3.513  10.301  14.299  0.00  0.00    +0.000 OA
ATOM     18  H   UNL     1      -4.296  10.666  13.855  0.00  0.00    +0.000 HD
ENDBRANCH  15  17
ENDBRANCH  10  11
ENDBRANCH   8   9
ENDBRANCH   1   8
BRANCH   4  19
ATOM     19  O   UNL     1       3.053   5.492  18.385  0.00  0.00    +0.000 OA
BRANCH  19  20
ATOM     20  C   UNL     1       2.228   4.359  18.274  0.00  0.00    +0.000 C 
ATOM     21  O   UNL     1       1.686   4.001  17.230  0.00  0.00    +0.000 OA
BRANCH  20  22
ATOM     22  C   UNL     1       2.108   3.665  19.548  0.00  0.00    +0.000 A 
ATOM     23  C   UNL     1       1.026   3.454  20.383  0.00  0.00    +0.000 A 
ATOM     24  C   UNL     1       1.369   2.692  21.546  0.00  0.00    +0.000 A 
ATOM     25  C   UNL     1       2.701   2.348  21.564  0.00  0.00    +0.000 A 
ATOM     26  S   UNL     1       3.532   2.947  20.205  0.00  0.00    +0.000 S 
ENDBRANCH  20  22
ENDBRANCH  19  20
ENDBRANCH   4  19
TORSDOF 7
ENDMDL
MODEL 3
REMARK VINA RESULT:      -7.7      0.658      1.285
REMARK  Name = 
REMARK  7 active torsions:
REMARK  status: ('A' for Active; 'I' for Inactive)
REMARK    1  A    between atoms: C_2  and  C_3
REMARK    2  A    between atoms: C_2  and  C_12
REMARK    3  A    between atoms: C_4  and  C_5
REMARK    4  A    between atoms: C_9  and  O_10
REMARK    5  A    between atoms: C_15  and  O_16
REMARK    6  A    between atoms: O_16  and  C_17
REMARK    7  A    between atoms: C_17  and  C_19
REMARK                            x       y       z     vdW  Elec       q    Type
REMARK                         _______ _______ _______ _____ _____    ______ ____
ROOT
ATOM      1  C   UNL     1       1.833   8.411  19.168  0.00  0.00    +0.000 A 
ATOM      2  C   UNL     1       1.833   7.470  20.206  0.00  0.00    +0.000 A 
ATOM      3  C   UNL     1       2.585   6.297  20.108  0.00  0.00    +0.000 A 
ATOM      4  C   UNL     1       3.329   6.040  18.956  0.00  0.00    +0.000 A 
ATOM      5  C   UNL     1       3.362   6.984  17.924  0.00  0.00    +0.000 A 
ATOM      6  C   UNL     1       2.612   8.170  18.029  0.00  0.00    +0.000 A 
ENDROOT
BRANCH   1   8
ATOM      7  O   UNL     1       1.186  10.310  20.394  0.00  0.00    +0.000 OA
ATOM      8  C   UNL     1       1.020   9.640  19.378  0.00  0.00    +0.000 C 
BRANCH   8   9
ATOM      9  C   UNL     1      -0.015   9.991  18.372  0.00  0.00    +0.000 C 
ATOM     10  C   UNL     1      -1.251  10.304  18.791  0.00  0.00    +0.000 C 
BRANCH  10  11
ATOM     11  C   UNL     1      -2.309  10.652  17.845  0.00  0.00    +0.000 A 
ATOM     12  C   UNL     1      -3.461  11.317  18.276  0.00  0.00    +0.000 A 
ATOM     13  C   UNL     1      -4.486  11.604  17.370  0.00  0.00    +0.000 A 
ATOM     14  C   UNL     1      -4.364  11.227  16.032  0.00  0.00    +0.000 A 
ATOM     15  C   UNL     1      -3.210  10.575  15.609  0.00  0.00    +0.000 A 
ATOM     16  C   UNL     1      -2.182  10.290  16.501  0.00  0.00    +0.000 A 
BRANCH  15  17
ATOM     17  O   UNL     1      -3.050  10.184  14.313  0.00  0.00    +0.000 OA
ATOM     18  H   UNL     1      -2.520   9.371  14.296  0.00  0.00    +0.000 HD
ENDBRANCH  15  17
ENDBRANCH  10  11
ENDBRANCH   8   9
ENDBRANCH   1   8
BRANCH   4  19
ATOM     19  O   UNL     1       4.130   4.878  18.796  0.00  0.00    +0.000 OA
BRANCH  19  20
ATOM     20  C   UNL     1       5.530   4.976  18.712  0.00  0.00    +0.000 C 
ATOM     21  O   UNL     1       6.265   5.189  19.675  0.00  0.00    +0.000 OA
BRANCH  20  22
ATOM     22  C   UNL     1       5.993   4.783  17.345  0.00  0.00    +0.000 A 
ATOM     23  C   UNL     1       7.114   5.244  16.680  0.00  0.00    +0.000 A 
ATOM     24  C   UNL     1       7.175   4.788  15.324  0.00  0.00    +0.000 A 
ATOM     25  C   UNL     1       6.098   3.997  14.996  0.00  0.00    +0.000 A 
ATOM     26  S   UNL     1       5.019   3.817  16.299  0.00  0.00    +0.000 S 
ENDBRANCH  20  22
ENDBRANCH  19  20
ENDBRANCH   4  19
TORSDOF 7
ENDMDL
MODEL 4
REMARK VINA RESULT:      -7.6      3.804      9.179
REMARK  Name = 
REMARK  7 active torsions:
REMARK  status: ('A' for Active; 'I' for Inactive)
REMARK    1  A    between atoms: C_2  and  C_3
REMARK    2  A    between atoms: C_2  and  C_12
REMARK    3  A    between atoms: C_4  and  C_5
REMARK    4  A    between atoms: C_9  and  O_10
REMARK    5  A    between atoms: C_15  and  O_16
REMARK    6  A    between atoms: O_16  and  C_17
REMARK    7  A    between atoms: C_17  and  C_19
REMARK                            x       y       z     vdW  Elec       q    Type
REMARK                         _______ _______ _______ _____ _____    ______ ____
ROOT
ATOM      1  C   UNL     1       3.848   6.341  18.362  0.00  0.00    +0.000 A 
ATOM      2  C   UNL     1       3.053   6.225  19.510  0.00  0.00    +0.000 A 
ATOM      3  C   UNL     1       2.029   7.140  19.765  0.00  0.00    +0.000 A 
ATOM      4  C   UNL     1       1.803   8.198  18.885  0.00  0.00    +0.000 A 
ATOM      5  C   UNL     1       2.569   8.309  17.719  0.00  0.00    +0.000 A 
ATOM      6  C   UNL     1       3.593   7.380  17.457  0.00  0.00    +0.000 A 
ENDROOT
BRANCH   1   8
ATOM      7  O   UNL     1       5.150   4.517  19.075  0.00  0.00    +0.000 OA
ATOM      8  C   UNL     1       4.896   5.303  18.165  0.00  0.00    +0.000 C 
BRANCH   8   9
ATOM      9  C   UNL     1       5.652   5.285  16.886  0.00  0.00    +0.000 C 
ATOM     10  C   UNL     1       5.204   4.527  15.874  0.00  0.00    +0.000 C 
BRANCH  10  11
ATOM     11  C   UNL     1       5.911   4.468  14.597  0.00  0.00    +0.000 A 
ATOM     12  C   UNL     1       5.473   3.617  13.577  0.00  0.00    +0.000 A 
ATOM     13  C   UNL     1       6.186   3.535  12.377  0.00  0.00    +0.000 A 
ATOM     14  C   UNL     1       7.336   4.303  12.192  0.00  0.00    +0.000 A 
ATOM     15  C   UNL     1       7.759   5.155  13.207  0.00  0.00    +0.000 A 
ATOM     16  C   UNL     1       7.054   5.248  14.403  0.00  0.00    +0.000 A 
BRANCH  15  17
ATOM     17  O   UNL     1       8.880   5.920  13.072  0.00  0.00    +0.000 OA
ATOM     18  H   UNL     1       9.509   5.452  12.499  0.00  0.00    +0.000 HD
ENDBRANCH  15  17
ENDBRANCH  10  11
ENDBRANCH   8   9
ENDBRANCH   1   8
BRANCH   4  19
ATOM     19  O   UNL     1       0.769   9.153  19.072  0.00  0.00    +0.000 OA
BRANCH  19  20
ATOM     20  C   UNL     1       1.000  10.326  19.813  0.00  0.00    +0.000 C 
ATOM     21  O   UNL     1       1.653  11.284  19.401  0.00  0.00    +0.000 OA
BRANCH  20  22
ATOM     22  C   UNL     1       0.360  10.262  21.119  0.00  0.00    +0.000 A 
ATOM     23  C   UNL     1       0.432   9.325  22.134  0.00  0.00    +0.000 A 
ATOM     24  C   UNL     1      -0.368   9.681  23.267  0.00  0.00    +0.000 A 
ATOM     25  C   UNL     1      -1.027  10.874  23.081  0.00  0.00    +0.000 A 
ATOM     26  S   UNL     1      -0.700  11.551  21.555  0.00  0.00    +0.000 S 
ENDBRANCH  20  22
ENDBRANCH  19  20
ENDBRANCH   4  19
TORSDOF 7
ENDMDL
MODEL 5
REMARK VINA RESULT:      -7.6      0.934      1.483
REMARK  Name = 
REMARK  7 active torsions:
REMARK  status: ('A' for Active; 'I' for Inactive)
REMARK    1  A    between atoms: C_2  and  C_3
REMARK    2  A    between atoms: C_2  and  C_12
REMARK    3  A    between atoms: C_4  and  C_5
REMARK    4  A    between atoms: C_9  and  O_10
REMARK    5  A    between atoms: C_15  and  O_16
REMARK    6  A    between atoms: O_16  and  C_17
REMARK    7  A    between atoms: C_17  and  C_19
REMARK                            x       y       z     vdW  Elec       q    Type
REMARK                         _______ _______ _______ _____ _____    ______ ____
ROOT
ATOM      1  C   UNL     1       1.730   7.611  20.131  0.00  0.00    +0.000 A 
ATOM      2  C   UNL     1       1.682   6.382  20.801  0.00  0.00    +0.000 A 
ATOM      3  C   UNL     1       2.276   5.244  20.249  0.00  0.00    +0.000 A 
ATOM      4  C   UNL     1       2.905   5.319  19.007  0.00  0.00    +0.000 A 
ATOM      5  C   UNL     1       2.986   6.546  18.340  0.00  0.00    +0.000 A 
ATOM      6  C   UNL     1       2.397   7.694  18.902  0.00  0.00    +0.000 A 
ENDROOT
BRANCH   1   8
ATOM      7  O   UNL     1       1.594   9.224  21.837  0.00  0.00    +0.000 OA
ATOM      8  C   UNL     1       1.091   8.770  20.812  0.00  0.00    +0.000 C 
BRANCH   8   9
ATOM      9  C   UNL     1      -0.179   9.311  20.261  0.00  0.00    +0.000 C 
ATOM     10  C   UNL     1      -0.166   9.908  19.059  0.00  0.00    +0.000 C 
BRANCH  10  11
ATOM     11  C   UNL     1      -1.385  10.462  18.474  0.00  0.00    +0.000 A 
ATOM     12  C   UNL     1      -2.141  11.412  19.167  0.00  0.00    +0.000 A 
ATOM     13  C   UNL     1      -3.330  11.901  18.617  0.00  0.00    +0.000 A 
ATOM     14  C   UNL     1      -3.766  11.441  17.374  0.00  0.00    +0.000 A 
ATOM     15  C   UNL     1      -3.003  10.503  16.686  0.00  0.00    +0.000 A 
ATOM     16  C   UNL     1      -1.816  10.016  17.222  0.00  0.00    +0.000 A 
BRANCH  15  17
ATOM     17  O   UNL     1      -3.394  10.023  15.471  0.00  0.00    +0.000 OA
ATOM     18  H   UNL     1      -2.767  10.334  14.798  0.00  0.00    +0.000 HD
ENDBRANCH  15  17
ENDBRANCH  10  11
ENDBRANCH   8   9
ENDBRANCH   1   8
BRANCH   4  19
ATOM     19  O   UNL     1       3.544   4.207  18.395  0.00  0.00    +0.000 OA
BRANCH  19  20
ATOM     20  C   UNL     1       4.945   4.090  18.403  0.00  0.00    +0.000 C 
ATOM     21  O   UNL     1       5.611   3.855  19.410  0.00  0.00    +0.000 OA
BRANCH  20  22
ATOM     22  C   UNL     1       5.499   4.272  17.069  0.00  0.00    +0.000 A 
ATOM     23  C   UNL     1       4.927   4.174  15.813  0.00  0.00    +0.000 A 
ATOM     24  C   UNL     1       5.858   4.454  14.762  0.00  0.00    +0.000 A 
ATOM     25  C   UNL     1       7.110   4.753  15.246  0.00  0.00    +0.000 A 
ATOM     26  S   UNL     1       7.170   4.683  16.946  0.00  0.00    +0.000 S 
ENDBRANCH  20  22
ENDBRANCH  19  20
ENDBRANCH   4  19
TORSDOF 7
ENDMDL
MODEL 6
REMARK VINA RESULT:      -7.5      3.109      9.081
REMARK  Name = 
REMARK  7 active torsions:
REMARK  status: ('A' for Active; 'I' for Inactive)
REMARK    1  A    between atoms: C_2  and  C_3
REMARK    2  A    between atoms: C_2  and  C_12
REMARK    3  A    between atoms: C_4  and  C_5
REMARK    4  A    between atoms: C_9  and  O_10
REMARK    5  A    between atoms: C_15  and  O_16
REMARK    6  A    between atoms: O_16  and  C_17
REMARK    7  A    between atoms: C_17  and  C_19
REMARK                            x       y       z     vdW  Elec       q    Type
REMARK                         _______ _______ _______ _____ _____    ______ ____
ROOT
ATOM      1  C   UNL     1       1.941   7.682  19.510  0.00  0.00    +0.000 A 
ATOM      2  C   UNL     1       1.260   8.288  20.573  0.00  0.00    +0.000 A 
ATOM      3  C   UNL     1       0.627   9.522  20.405  0.00  0.00    +0.000 A 
ATOM      4  C   UNL     1       0.688  10.176  19.175  0.00  0.00    +0.000 A 
ATOM      5  C   UNL     1       1.340   9.569  18.096  0.00  0.00    +0.000 A 
ATOM      6  C   UNL     1       1.968   8.321  18.263  0.00  0.00    +0.000 A 
ENDROOT
BRANCH   1   8
ATOM      7  O   UNL     1       2.051   5.606  20.608  0.00  0.00    +0.000 OA
ATOM      8  C   UNL     1       2.562   6.356  19.780  0.00  0.00    +0.000 C 
BRANCH   8   9
ATOM      9  C   UNL     1       3.822   6.001  19.078  0.00  0.00    +0.000 C 
ATOM     10  C   UNL     1       3.787   5.747  17.761  0.00  0.00    +0.000 C 
BRANCH  10  11
ATOM     11  C   UNL     1       4.996   5.388  17.024  0.00  0.00    +0.000 A 
ATOM     12  C   UNL     1       5.039   5.496  15.630  0.00  0.00    +0.000 A 
ATOM     13  C   UNL     1       6.186   5.106  14.931  0.00  0.00    +0.000 A 
ATOM     14  C   UNL     1       7.291   4.607  15.623  0.00  0.00    +0.000 A 
ATOM     15  C   UNL     1       7.243   4.512  17.009  0.00  0.00    +0.000 A 
ATOM     16  C   UNL     1       6.110   4.903  17.714  0.00  0.00    +0.000 A 
BRANCH  15  17
ATOM     17  O   UNL     1       8.297   4.026  17.725  0.00  0.00    +0.000 OA
ATOM     18  H   UNL     1       8.944   4.740  17.849  0.00  0.00    +0.000 HD
ENDBRANCH  15  17
ENDBRANCH  10  11
ENDBRANCH   8   9
ENDBRANCH   1   8
BRANCH   4  19
ATOM     19  O   UNL     1       0.053  11.422  18.929  0.00  0.00    +0.000 OA
BRANCH  19  20
ATOM     20  C   UNL     1      -1.282  11.637  19.313  0.00  0.00    +0.000 C 
ATOM     21  O   UNL     1      -1.622  12.052  20.420  0.00  0.00    +0.000 OA
BRANCH  20  22
ATOM     22  C   UNL     1      -2.202  11.316  18.232  0.00  0.00    +0.000 A 
ATOM     23  C   UNL     1      -1.992  10.789  16.971  0.00  0.00    +0.000 A 
ATOM     24  C   UNL     1      -3.209  10.624  16.235  0.00  0.00    +0.000 A 
ATOM     25  C   UNL     1      -4.308  11.033  16.954  0.00  0.00    +0.000 A 
ATOM     26  S   UNL     1      -3.880  11.622  18.492  0.00  0.00    +0.000 S 
ENDBRANCH  20  22
ENDBRANCH  19  20
ENDBRANCH   4  19
TORSDOF 7
ENDMDL
MODEL 7
REMARK VINA RESULT:      -7.5      1.484      1.859
REMARK  Name = 
REMARK  7 active torsions:
REMARK  status: ('A' for Active; 'I' for Inactive)
REMARK    1  A    between atoms: C_2  and  C_3
REMARK    2  A    between atoms: C_2  and  C_12
REMARK    3  A    between atoms: C_4  and  C_5
REMARK    4  A    between atoms: C_9  and  O_10
REMARK    5  A    between atoms: C_15  and  O_16
REMARK    6  A    between atoms: O_16  and  C_17
REMARK    7  A    between atoms: C_17  and  C_19
REMARK                            x       y       z     vdW  Elec       q    Type
REMARK                         _______ _______ _______ _____ _____    ______ ____
ROOT
ATOM      1  C   UNL     1       1.723   7.590  20.256  0.00  0.00    +0.000 A 
ATOM      2  C   UNL     1       2.407   7.743  19.043  0.00  0.00    +0.000 A 
ATOM      3  C   UNL     1       3.033   6.653  18.434  0.00  0.00    +0.000 A 
ATOM      4  C   UNL     1       3.002   5.399  19.044  0.00  0.00    +0.000 A 
ATOM      5  C   UNL     1       2.298   5.225  20.241  0.00  0.00    +0.000 A 
ATOM      6  C   UNL     1       1.658   6.321  20.848  0.00  0.00    +0.000 A 
ENDROOT
BRANCH   1   8
ATOM      7  O   UNL     1       1.586   9.393  21.758  0.00  0.00    +0.000 OA
ATOM      8  C   UNL     1       1.067   8.804  20.813  0.00  0.00    +0.000 C 
BRANCH   8   9
ATOM      9  C   UNL     1      -0.236   9.237  20.244  0.00  0.00    +0.000 C 
ATOM     10  C   UNL     1      -0.243  10.031  19.163  0.00  0.00    +0.000 C 
BRANCH  10  11
ATOM     11  C   UNL     1      -1.496  10.490  18.567  0.00  0.00    +0.000 A 
ATOM     12  C   UNL     1      -1.915  10.003  17.324  0.00  0.00    +0.000 A 
ATOM     13  C   UNL     1      -3.092  10.485  16.742  0.00  0.00    +0.000 A 
ATOM     14  C   UNL     1      -3.852  11.453  17.399  0.00  0.00    +0.000 A 
ATOM     15  C   UNL     1      -3.434  11.924  18.639  0.00  0.00    +0.000 A 
ATOM     16  C   UNL     1      -2.268  11.448  19.230  0.00  0.00    +0.000 A 
BRANCH  15  17
ATOM     17  O   UNL     1      -4.143  12.873  19.315  0.00  0.00    +0.000 OA
ATOM     18  H   UNL     1      -3.687  13.726  19.224  0.00  0.00    +0.000 HD
ENDBRANCH  15  17
ENDBRANCH  10  11
ENDBRANCH   8   9
ENDBRANCH   1   8
BRANCH   4  19
ATOM     19  O   UNL     1       3.602   4.245  18.473  0.00  0.00    +0.000 OA
BRANCH  19  20
ATOM     20  C   UNL     1       5.000   4.102  18.443  0.00  0.00    +0.000 C 
ATOM     21  O   UNL     1       5.688   3.838  19.428  0.00  0.00    +0.000 OA
BRANCH  20  22
ATOM     22  C   UNL     1       5.522   4.295  17.098  0.00  0.00    +0.000 A 
ATOM     23  C   UNL     1       4.914   4.240  15.857  0.00  0.00    +0.000 A 
ATOM     24  C   UNL     1       5.823   4.515  14.786  0.00  0.00    +0.000 A 
ATOM     25  C   UNL     1       7.097   4.768  15.241  0.00  0.00    +0.000 A 
ATOM     26  S   UNL     1       7.201   4.662  16.936  0.00  0.00    +0.000 S 
ENDBRANCH  20  22
ENDBRANCH  19  20
ENDBRANCH   4  19
TORSDOF 7
ENDMDL
MODEL 8
REMARK VINA RESULT:      -7.5      1.719      2.371
REMARK  Name = 
REMARK  7 active torsions:
REMARK  status: ('A' for Active; 'I' for Inactive)
REMARK    1  A    between atoms: C_2  and  C_3
REMARK    2  A    between atoms: C_2  and  C_12
REMARK    3  A    between atoms: C_4  and  C_5
REMARK    4  A    between atoms: C_9  and  O_10
REMARK    5  A    between atoms: C_15  and  O_16
REMARK    6  A    between atoms: O_16  and  C_17
REMARK    7  A    between atoms: C_17  and  C_19
REMARK                            x       y       z     vdW  Elec       q    Type
REMARK                         _______ _______ _______ _____ _____    ______ ____
ROOT
ATOM      1  C   UNL     1       1.638   8.047  19.786  0.00  0.00    +0.000 A 
ATOM      2  C   UNL     1       1.645   6.896  20.584  0.00  0.00    +0.000 A 
ATOM      3  C   UNL     1       2.280   5.729  20.151  0.00  0.00    +0.000 A 
ATOM      4  C   UNL     1       2.897   5.694  18.901  0.00  0.00    +0.000 A 
ATOM      5  C   UNL     1       2.924   6.844  18.105  0.00  0.00    +0.000 A 
ATOM      6  C   UNL     1       2.294   8.022  18.547  0.00  0.00    +0.000 A 
ENDROOT
BRANCH   1   8
ATOM      7  O   UNL     1       1.486   9.870  21.262  0.00  0.00    +0.000 OA
ATOM      8  C   UNL     1       0.958   9.246  20.344  0.00  0.00    +0.000 C 
BRANCH   8   9
ATOM      9  C   UNL     1      -0.376   9.624  19.812  0.00  0.00    +0.000 C 
ATOM     10  C   UNL     1      -0.472  10.070  18.550  0.00  0.00    +0.000 C 
BRANCH  10  11
ATOM     11  C   UNL     1      -1.759  10.460  17.978  0.00  0.00    +0.000 A 
ATOM     12  C   UNL     1      -2.154   9.988  16.721  0.00  0.00    +0.000 A 
ATOM     13  C   UNL     1      -3.367  10.405  16.165  0.00  0.00    +0.000 A 
ATOM     14  C   UNL     1      -4.188  11.293  16.860  0.00  0.00    +0.000 A 
ATOM     15  C   UNL     1      -3.793  11.749  18.113  0.00  0.00    +0.000 A 
ATOM     16  C   UNL     1      -2.591  11.336  18.679  0.00  0.00    +0.000 A 
BRANCH  15  17
ATOM     17  O   UNL     1      -4.562  12.621  18.827  0.00  0.00    +0.000 OA
ATOM     18  H   UNL     1      -5.166  12.113  19.391  0.00  0.00    +0.000 HD
ENDBRANCH  15  17
ENDBRANCH  10  11
ENDBRANCH   8   9
ENDBRANCH   1   8
BRANCH   4  19
ATOM     19  O   UNL     1       3.576   4.548  18.406  0.00  0.00    +0.000 OA
BRANCH  19  20
ATOM     20  C   UNL     1       4.791   4.130  18.976  0.00  0.00    +0.000 C 
ATOM     21  O   UNL     1       4.908   3.142  19.700  0.00  0.00    +0.000 OA
BRANCH  20  22
ATOM     22  C   UNL     1       5.886   5.008  18.592  0.00  0.00    +0.000 A 
ATOM     23  C   UNL     1       6.870   5.632  19.337  0.00  0.00    +0.000 A 
ATOM     24  C   UNL     1       7.764   6.405  18.530  0.00  0.00    +0.000 A 
ATOM     25  C   UNL     1       7.434   6.351  17.195  0.00  0.00    +0.000 A 
ATOM     26  S   UNL     1       6.055   5.393  16.919  0.00  0.00    +0.000 S 
ENDBRANCH  20  22
ENDBRANCH  19  20
ENDBRANCH   4  19
TORSDOF 7
ENDMDL
MODEL 9
REMARK VINA RESULT:      -7.5      1.498      2.056
REMARK  Name = 
REMARK  7 active torsions:
REMARK  status: ('A' for Active; 'I' for Inactive)
REMARK    1  A    between atoms: C_2  and  C_3
REMARK    2  A    between atoms: C_2  and  C_12
REMARK    3  A    between atoms: C_4  and  C_5
REMARK    4  A    between atoms: C_9  and  O_10
REMARK    5  A    between atoms: C_15  and  O_16
REMARK    6  A    between atoms: O_16  and  C_17
REMARK    7  A    between atoms: C_17  and  C_19
REMARK                            x       y       z     vdW  Elec       q    Type
REMARK                         _______ _______ _______ _____ _____    ______ ____
ROOT
ATOM      1  C   UNL     1       1.228   9.175  19.726  0.00  0.00    +0.000 A 
ATOM      2  C   UNL     1       1.881   8.810  18.542  0.00  0.00    +0.000 A 
ATOM      3  C   UNL     1       2.527   7.576  18.433  0.00  0.00    +0.000 A 
ATOM      4  C   UNL     1       2.548   6.702  19.518  0.00  0.00    +0.000 A 
ATOM      5  C   UNL     1       1.876   7.040  20.698  0.00  0.00    +0.000 A 
ATOM      6  C   UNL     1       1.216   8.278  20.803  0.00  0.00    +0.000 A 
ENDROOT
BRANCH   1   8
ATOM      7  O   UNL     1       0.744  11.274  20.669  0.00  0.00    +0.000 OA
ATOM      8  C   UNL     1       0.547  10.498  19.736  0.00  0.00    +0.000 C 
BRANCH   8   9
ATOM      9  C   UNL     1      -0.403  10.821  18.641  0.00  0.00    +0.000 C 
ATOM     10  C   UNL     1      -1.423   9.985  18.394  0.00  0.00    +0.000 C 
BRANCH  10  11
ATOM     11  C   UNL     1      -2.383  10.252  17.326  0.00  0.00    +0.000 A 
ATOM     12  C   UNL     1      -2.149   9.791  16.026  0.00  0.00    +0.000 A 
ATOM     13  C   UNL     1      -3.052  10.092  15.002  0.00  0.00    +0.000 A 
ATOM     14  C   UNL     1      -4.189  10.855  15.273  0.00  0.00    +0.000 A 
ATOM     15  C   UNL     1      -4.419  11.301  16.570  0.00  0.00    +0.000 A 
ATOM     16  C   UNL     1      -3.531  11.001  17.597  0.00  0.00    +0.000 A 
BRANCH  15  17
ATOM     17  O   UNL     1      -5.514  12.052  16.879  0.00  0.00    +0.000 OA
ATOM     18  H   UNL     1      -5.599  12.095  17.845  0.00  0.00    +0.000 HD
ENDBRANCH  15  17
ENDBRANCH  10  11
ENDBRANCH   8   9
ENDBRANCH   1   8
BRANCH   4  19
ATOM     19  O   UNL     1       3.171   5.425  19.472  0.00  0.00    +0.000 OA
BRANCH  19  20
ATOM     20  C   UNL     1       3.490   4.826  18.242  0.00  0.00    +0.000 C 
ATOM     21  O   UNL     1       2.659   4.348  17.471  0.00  0.00    +0.000 OA
BRANCH  20  22
ATOM     22  C   UNL     1       4.924   4.854  17.996  0.00  0.00    +0.000 A 
ATOM     23  C   UNL     1       5.986   5.252  18.787  0.00  0.00    +0.000 A 
ATOM     24  C   UNL     1       7.250   5.091  18.133  0.00  0.00    +0.000 A 
ATOM     25  C   UNL     1       7.114   4.578  16.864  0.00  0.00    +0.000 A 
ATOM     26  S   UNL     1       5.483   4.308  16.458  0.00  0.00    +0.000 S 
ENDBRANCH  20  22
ENDBRANCH  19  20
ENDBRANCH   4  19
TORSDOF 7
ENDMDL
