MODEL 1
REMARK VINA RESULT:      -8.4      0.000      0.000
REMARK  Name = 
REMARK  3 active torsions:
REMARK  status: ('A' for Active; 'I' for Inactive)
REMARK    1  A    between atoms: C_1  and  C_2
REMARK    2  A    between atoms: N_4  and  C_5
REMARK    3  A    between atoms: C_15  and  C_16
REMARK                            x       y       z     vdW  Elec       q    Type
REMARK                         _______ _______ _______ _____ _____    ______ ____
ROOT
ATOM      1  C   UNL     1       2.089   3.422  21.684  0.00  0.00    +0.000 C 
ATOM      2  C   UNL     1       2.217   4.680  20.892  0.00  0.00    +0.000 C 
ATOM      3  N   UNL     1       1.587   5.787  21.187  0.00  0.00    +0.000 NA
ATOM      4  N   UNL     1       1.939   6.710  20.201  0.00  0.00    +0.000 N 
ATOM      5  C   UNL     1       2.780   6.194  19.212  0.00  0.00    +0.000 C 
ATOM      6  O   UNL     1       3.190   6.681  18.172  0.00  0.00    +0.000 OA
ATOM      7  C   UNL     1       3.070   4.828  19.702  0.00  0.00    +0.000 C 
ATOM      8  C   UNL     1       3.957   3.970  19.182  0.00  0.00    +0.000 C 
ENDROOT
BRANCH   8   9
ATOM      9  C   UNL     1       4.858   4.280  18.084  0.00  0.00    +0.000 A 
ATOM     10  C   UNL     1       6.074   4.817  18.278  0.00  0.00    +0.000 A 
ATOM     11  O   UNL     1       6.992   5.153  17.315  0.00  0.00    +0.000 OA
ATOM     12  C   UNL     1       6.690   4.838  16.017  0.00  0.00    +0.000 A 
ATOM     13  C   UNL     1       7.673   5.093  15.061  0.00  0.00    +0.000 A 
ATOM     14  C   UNL     1       7.443   4.761  13.726  0.00  0.00    +0.000 A 
ATOM     15  C   UNL     1       6.228   4.184  13.349  0.00  0.00    +0.000 A 
ATOM     16  C   UNL     1       5.237   3.944  14.303  0.00  0.00    +0.000 A 
ATOM     17  C   UNL     1       5.474   4.270  15.641  0.00  0.00    +0.000 A 
ATOM     18  C   UNL     1       4.459   4.000  16.679  0.00  0.00    +0.000 A 
ATOM     19  O   UNL     1       3.352   3.553  16.398  0.00  0.00    +0.000 OA
ENDBRANCH   8   9
BRANCH   4  20
ATOM     20  C   UNL     1       1.430   8.027  20.265  0.00  0.00    +0.000 A 
ATOM     21  C   UNL     1       1.537   8.899  19.167  0.00  0.00    +0.000 A 
ATOM     22  C   UNL     1       1.037  10.201  19.227  0.00  0.00    +0.000 A 
ATOM     23  C   UNL     1       0.427  10.653  20.389  0.00  0.00    +0.000 A 
ATOM     24  C   UNL     1       0.323   9.802  21.487  0.00  0.00    +0.000 A 
ATOM     25 CL   UNL     1      -0.430  10.368  22.929  0.00  0.00    +0.000 Cl
ATOM     26  C   UNL     1       0.818   8.498  21.432  0.00  0.00    +0.000 A 
ENDBRANCH   4  20
TORSDOF 2
ENDMDL
MODEL 2
REMARK VINA RESULT:      -7.9      1.014      1.386
REMARK  Name = 
REMARK  3 active torsions:
REMARK  status: ('A' for Active; 'I' for Inactive)
REMARK    1  A    between atoms: C_1  and  C_2
REMARK    2  A    between atoms: N_4  and  C_5
REMARK    3  A    between atoms: C_15  and  C_16
REMARK                            x       y       z     vdW  Elec       q    Type
REMARK                         _______ _______ _______ _____ _____    ______ ____
ROOT
ATOM      1  C   UNL     1       1.956   3.244  21.682  0.00  0.00    +0.000 C 
ATOM      2  C   UNL     1       2.135   4.533  20.953  0.00  0.00    +0.000 C 
ATOM      3  N   UNL     1       1.544   5.647  21.299  0.00  0.00    +0.000 NA
ATOM      4  N   UNL     1       1.935   6.602  20.360  0.00  0.00    +0.000 N 
ATOM      5  C   UNL     1       2.761   6.104  19.350  0.00  0.00    +0.000 C 
ATOM      6  O   UNL     1       3.194   6.626  18.336  0.00  0.00    +0.000 OA
ATOM      7  C   UNL     1       2.998   4.707  19.774  0.00  0.00    +0.000 C 
ATOM      8  C   UNL     1       3.855   3.843  19.216  0.00  0.00    +0.000 C 
ENDROOT
BRANCH   8   9
ATOM      9  C   UNL     1       4.773   4.172  18.137  0.00  0.00    +0.000 A 
ATOM     10  C   UNL     1       5.991   4.694  18.359  0.00  0.00    +0.000 A 
ATOM     11  O   UNL     1       6.923   5.045  17.416  0.00  0.00    +0.000 OA
ATOM     12  C   UNL     1       6.635   4.765  16.107  0.00  0.00    +0.000 A 
ATOM     13  C   UNL     1       7.632   5.035  15.170  0.00  0.00    +0.000 A 
ATOM     14  C   UNL     1       7.416   4.737  13.825  0.00  0.00    +0.000 A 
ATOM     15  C   UNL     1       6.201   4.180  13.418  0.00  0.00    +0.000 A 
ATOM     16  C   UNL     1       5.196   3.925  14.354  0.00  0.00    +0.000 A 
ATOM     17  C   UNL     1       5.419   4.217  15.702  0.00  0.00    +0.000 A 
ATOM     18  C   UNL     1       4.389   3.929  16.720  0.00  0.00    +0.000 A 
ATOM     19  O   UNL     1       3.282   3.498  16.415  0.00  0.00    +0.000 OA
ENDBRANCH   8   9
BRANCH   4  20
ATOM     20  C   UNL     1       1.475   7.933  20.486  0.00  0.00    +0.000 A 
ATOM     21  C   UNL     1       0.899   8.391  21.685  0.00  0.00    +0.000 A 
ATOM     22  C   UNL     1       0.443   9.703  21.813  0.00  0.00    +0.000 A 
ATOM     23  C   UNL     1       0.549  10.578  20.741  0.00  0.00    +0.000 A 
ATOM     24  C   UNL     1       1.109  10.135  19.544  0.00  0.00    +0.000 A 
ATOM     25 CL   UNL     1       1.234  11.222  18.214  0.00  0.00    +0.000 Cl
ATOM     26  C   UNL     1       1.570   8.824  19.411  0.00  0.00    +0.000 A 
ENDBRANCH   4  20
TORSDOF 2
ENDMDL
MODEL 3
REMARK VINA RESULT:      -7.7      0.982      1.164
REMARK  Name = 
REMARK  3 active torsions:
REMARK  status: ('A' for Active; 'I' for Inactive)
REMARK    1  A    between atoms: C_1  and  C_2
REMARK    2  A    between atoms: N_4  and  C_5
REMARK    3  A    between atoms: C_15  and  C_16
REMARK                            x       y       z     vdW  Elec       q    Type
REMARK                         _______ _______ _______ _____ _____    ______ ____
ROOT
ATOM      1  C   UNL     1       3.232   3.600  20.993  0.00  0.00    +0.000 C 
ATOM      2  C   UNL     1       3.148   4.801  20.112  0.00  0.00    +0.000 C 
ATOM      3  N   UNL     1       2.432   5.858  20.397  0.00  0.00    +0.000 NA
ATOM      4  N   UNL     1       2.587   6.734  19.323  0.00  0.00    +0.000 N 
ATOM      5  C   UNL     1       3.383   6.234  18.290  0.00  0.00    +0.000 C 
ATOM      6  O   UNL     1       3.638   6.681  17.184  0.00  0.00    +0.000 OA
ATOM      7  C   UNL     1       3.864   4.945  18.835  0.00  0.00    +0.000 C 
ATOM      8  C   UNL     1       4.786   4.145  18.284  0.00  0.00    +0.000 C 
ENDROOT
BRANCH   8   9
ATOM      9  C   UNL     1       5.541   4.462  17.083  0.00  0.00    +0.000 A 
ATOM     10  C   UNL     1       6.667   5.194  17.110  0.00  0.00    +0.000 A 
ATOM     11  O   UNL     1       7.444   5.553  16.038  0.00  0.00    +0.000 OA
ATOM     12  C   UNL     1       7.099   5.053  14.811  0.00  0.00    +0.000 A 
ATOM     13  C   UNL     1       7.955   5.344  13.748  0.00  0.00    +0.000 A 
ATOM     14  C   UNL     1       7.680   4.833  12.479  0.00  0.00    +0.000 A 
ATOM     15  C   UNL     1       6.546   4.042  12.274  0.00  0.00    +0.000 A 
ATOM     16  C   UNL     1       5.681   3.765  13.335  0.00  0.00    +0.000 A 
ATOM     17  C   UNL     1       5.964   4.271  14.606  0.00  0.00    +0.000 A 
ATOM     18  C   UNL     1       5.086   3.969  15.755  0.00  0.00    +0.000 A 
ATOM     19  O   UNL     1       4.046   3.332  15.623  0.00  0.00    +0.000 OA
ENDBRANCH   8   9
BRANCH   4  20
ATOM     20  C   UNL     1       1.947   7.994  19.353  0.00  0.00    +0.000 A 
ATOM     21  C   UNL     1       1.935   8.829  18.221  0.00  0.00    +0.000 A 
ATOM     22  C   UNL     1       1.305  10.073  18.247  0.00  0.00    +0.000 A 
ATOM     23  C   UNL     1       0.682  10.507  19.409  0.00  0.00    +0.000 A 
ATOM     24  C   UNL     1       0.694   9.694  20.541  0.00  0.00    +0.000 A 
ATOM     25 CL   UNL     1      -0.076  10.238  21.982  0.00  0.00    +0.000 Cl
ATOM     26  C   UNL     1       1.320   8.446  20.519  0.00  0.00    +0.000 A 
ENDBRANCH   4  20
TORSDOF 2
ENDMDL
MODEL 4
REMARK VINA RESULT:      -7.3      4.176      7.015
REMARK  Name = 
REMARK  3 active torsions:
REMARK  status: ('A' for Active; 'I' for Inactive)
REMARK    1  A    between atoms: C_1  and  C_2
REMARK    2  A    between atoms: N_4  and  C_5
REMARK    3  A    between atoms: C_15  and  C_16
REMARK                            x       y       z     vdW  Elec       q    Type
REMARK                         _______ _______ _______ _____ _____    ______ ____
ROOT
ATOM      1  C   UNL     1       0.473  13.894  20.833  0.00  0.00    +0.000 C 
ATOM      2  C   UNL     1      -0.403  12.886  20.168  0.00  0.00    +0.000 C 
ATOM      3  N   UNL     1      -1.630  13.133  19.789  0.00  0.00    +0.000 NA
ATOM      4  N   UNL     1      -2.116  11.942  19.249  0.00  0.00    +0.000 N 
ATOM      5  C   UNL     1      -1.214  10.877  19.311  0.00  0.00    +0.000 C 
ATOM      6  O   UNL     1      -1.345   9.697  19.032  0.00  0.00    +0.000 OA
ATOM      7  C   UNL     1       0.009  11.509  19.852  0.00  0.00    +0.000 C 
ATOM      8  C   UNL     1       1.215  10.938  19.961  0.00  0.00    +0.000 C 
ENDROOT
BRANCH   8   9
ATOM      9  C   UNL     1       1.545   9.608  19.476  0.00  0.00    +0.000 A 
ATOM     10  C   UNL     1       1.955   9.379  18.218  0.00  0.00    +0.000 A 
ATOM     11  O   UNL     1       2.281   8.167  17.664  0.00  0.00    +0.000 OA
ATOM     12  C   UNL     1       2.274   7.073  18.486  0.00  0.00    +0.000 A 
ATOM     13  C   UNL     1       2.704   5.866  17.934  0.00  0.00    +0.000 A 
ATOM     14  C   UNL     1       2.756   4.721  18.730  0.00  0.00    +0.000 A 
ATOM     15  C   UNL     1       2.370   4.783  20.071  0.00  0.00    +0.000 A 
ATOM     16  C   UNL     1       1.924   5.988  20.619  0.00  0.00    +0.000 A 
ATOM     17  C   UNL     1       1.880   7.135  19.822  0.00  0.00    +0.000 A 
ATOM     18  C   UNL     1       1.444   8.430  20.381  0.00  0.00    +0.000 A 
ATOM     19  O   UNL     1       1.036   8.532  21.532  0.00  0.00    +0.000 OA
ENDBRANCH   8   9
BRANCH   4  20
ATOM     20  C   UNL     1      -3.426  11.900  18.719  0.00  0.00    +0.000 A 
ATOM     21  C   UNL     1      -3.659  11.512  17.388  0.00  0.00    +0.000 A 
ATOM     22  C   UNL     1      -4.950  11.471  16.861  0.00  0.00    +0.000 A 
ATOM     23  C   UNL     1      -6.031  11.824  17.657  0.00  0.00    +0.000 A 
ATOM     24  C   UNL     1      -5.815  12.219  18.976  0.00  0.00    +0.000 A 
ATOM     25 CL   UNL     1      -7.158  12.662  19.959  0.00  0.00    +0.000 Cl
ATOM     26  C   UNL     1      -4.525  12.259  19.509  0.00  0.00    +0.000 A 
ENDBRANCH   4  20
TORSDOF 2
ENDMDL
MODEL 5
REMARK VINA RESULT:      -7.3      4.060      6.706
REMARK  Name = 
REMARK  3 active torsions:
REMARK  status: ('A' for Active; 'I' for Inactive)
REMARK    1  A    between atoms: C_1  and  C_2
REMARK    2  A    between atoms: N_4  and  C_5
REMARK    3  A    between atoms: C_15  and  C_16
REMARK                            x       y       z     vdW  Elec       q    Type
REMARK                         _______ _______ _______ _____ _____    ______ ____
ROOT
ATOM      1  C   UNL     1       1.567  13.555  18.509  0.00  0.00    +0.000 C 
ATOM      2  C   UNL     1       0.450  12.569  18.589  0.00  0.00    +0.000 C 
ATOM      3  N   UNL     1      -0.787  12.851  18.272  0.00  0.00    +0.000 NA
ATOM      4  N   UNL     1      -1.524  11.691  18.512  0.00  0.00    +0.000 N 
ATOM      5  C   UNL     1      -0.773  10.637  19.039  0.00  0.00    +0.000 C 
ATOM      6  O   UNL     1      -1.109   9.540  19.453  0.00  0.00    +0.000 OA
ATOM      7  C   UNL     1       0.607  11.170  19.019  0.00  0.00    +0.000 C 
ATOM      8  C   UNL     1       1.726  10.486  19.286  0.00  0.00    +0.000 C 
ENDROOT
BRANCH   8   9
ATOM      9  C   UNL     1       1.774   9.058  19.559  0.00  0.00    +0.000 A 
ATOM     10  C   UNL     1       1.456   8.541  20.758  0.00  0.00    +0.000 A 
ATOM     11  O   UNL     1       1.476   7.218  21.118  0.00  0.00    +0.000 OA
ATOM     12  C   UNL     1       1.768   6.302  20.143  0.00  0.00    +0.000 A 
ATOM     13  C   UNL     1       1.687   4.955  20.498  0.00  0.00    +0.000 A 
ATOM     14  C   UNL     1       1.936   3.971  19.541  0.00  0.00    +0.000 A 
ATOM     15  C   UNL     1       2.275   4.335  18.236  0.00  0.00    +0.000 A 
ATOM     16  C   UNL     1       2.373   5.683  17.884  0.00  0.00    +0.000 A 
ATOM     17  C   UNL     1       2.115   6.667  18.843  0.00  0.00    +0.000 A 
ATOM     18  C   UNL     1       2.178   8.100  18.495  0.00  0.00    +0.000 A 
ATOM     19  O   UNL     1       2.530   8.479  17.383  0.00  0.00    +0.000 OA
ENDBRANCH   8   9
BRANCH   4  20
ATOM     20  C   UNL     1      -2.910  11.675  18.234  0.00  0.00    +0.000 A 
ATOM     21  C   UNL     1      -3.390  11.312  16.963  0.00  0.00    +0.000 A 
ATOM     22  C   UNL     1      -4.757  11.296  16.683  0.00  0.00    +0.000 A 
ATOM     23  C   UNL     1      -5.667  11.650  17.670  0.00  0.00    +0.000 A 
ATOM     24  C   UNL     1      -5.205  12.021  18.932  0.00  0.00    +0.000 A 
ATOM     25 CL   UNL     1      -6.336  12.464  20.152  0.00  0.00    +0.000 Cl
ATOM     26  C   UNL     1      -3.838  12.035  19.217  0.00  0.00    +0.000 A 
ENDBRANCH   4  20
TORSDOF 2
ENDMDL
MODEL 6
REMARK VINA RESULT:      -7.2      4.203      7.775
REMARK  Name = 
REMARK  3 active torsions:
REMARK  status: ('A' for Active; 'I' for Inactive)
REMARK    1  A    between atoms: C_1  and  C_2
REMARK    2  A    between atoms: N_4  and  C_5
REMARK    3  A    between atoms: C_15  and  C_16
REMARK                            x       y       z     vdW  Elec       q    Type
REMARK                         _______ _______ _______ _____ _____    ______ ____
ROOT
ATOM      1  C   UNL     1       8.297   7.612  18.329  0.00  0.00    +0.000 C 
ATOM      2  C   UNL     1       7.468   6.778  17.411  0.00  0.00    +0.000 C 
ATOM      3  N   UNL     1       7.843   6.442  16.203  0.00  0.00    +0.000 NA
ATOM      4  N   UNL     1       6.792   5.701  15.662  0.00  0.00    +0.000 N 
ATOM      5  C   UNL     1       5.685   5.582  16.506  0.00  0.00    +0.000 C 
ATOM      6  O   UNL     1       4.580   5.101  16.318  0.00  0.00    +0.000 OA
ATOM      7  C   UNL     1       6.147   6.228  17.754  0.00  0.00    +0.000 C 
ATOM      8  C   UNL     1       5.502   6.242  18.927  0.00  0.00    +0.000 C 
ENDROOT
BRANCH   8   9
ATOM      9  C   UNL     1       4.259   5.534  19.192  0.00  0.00    +0.000 A 
ATOM     10  C   UNL     1       3.090   6.170  19.370  0.00  0.00    +0.000 A 
ATOM     11  O   UNL     1       1.871   5.599  19.632  0.00  0.00    +0.000 OA
ATOM     12  C   UNL     1       1.800   4.232  19.634  0.00  0.00    +0.000 A 
ATOM     13  C   UNL     1       0.537   3.665  19.802  0.00  0.00    +0.000 A 
ATOM     14  C   UNL     1       0.392   2.278  19.777  0.00  0.00    +0.000 A 
ATOM     15  C   UNL     1       1.510   1.461  19.593  0.00  0.00    +0.000 A 
ATOM     16  C   UNL     1       2.777   2.028  19.442  0.00  0.00    +0.000 A 
ATOM     17  C   UNL     1       2.919   3.418  19.460  0.00  0.00    +0.000 A 
ATOM     18  C   UNL     1       4.240   4.048  19.270  0.00  0.00    +0.000 A 
ATOM     19  O   UNL     1       5.264   3.382  19.167  0.00  0.00    +0.000 OA
ENDBRANCH   8   9
BRANCH   4  20
ATOM     20  C   UNL     1       6.914   5.168  14.359  0.00  0.00    +0.000 A 
ATOM     21  C   UNL     1       7.921   5.613  13.484  0.00  0.00    +0.000 A 
ATOM     22  C   UNL     1       8.044   5.089  12.197  0.00  0.00    +0.000 A 
ATOM     23  C   UNL     1       7.157   4.115  11.761  0.00  0.00    +0.000 A 
ATOM     24  C   UNL     1       6.149   3.671  12.614  0.00  0.00    +0.000 A 
ATOM     25 CL   UNL     1       5.046   2.466  12.067  0.00  0.00    +0.000 Cl
ATOM     26  C   UNL     1       6.023   4.189  13.904  0.00  0.00    +0.000 A 
ENDBRANCH   4  20
TORSDOF 2
ENDMDL
MODEL 7
REMARK VINA RESULT:      -7.0      3.062      7.792
REMARK  Name = 
REMARK  3 active torsions:
REMARK  status: ('A' for Active; 'I' for Inactive)
REMARK    1  A    between atoms: C_1  and  C_2
REMARK    2  A    between atoms: N_4  and  C_5
REMARK    3  A    between atoms: C_15  and  C_16
REMARK                            x       y       z     vdW  Elec       q    Type
REMARK                         _______ _______ _______ _____ _____    ______ ____
ROOT
ATOM      1  C   UNL     1       1.854   3.628  21.202  0.00  0.00    +0.000 C 
ATOM      2  C   UNL     1       2.640   4.438  20.227  0.00  0.00    +0.000 C 
ATOM      3  N   UNL     1       3.572   3.938  19.457  0.00  0.00    +0.000 NA
ATOM      4  N   UNL     1       4.087   5.009  18.725  0.00  0.00    +0.000 N 
ATOM      5  C   UNL     1       3.520   6.244  19.046  0.00  0.00    +0.000 C 
ATOM      6  O   UNL     1       3.799   7.374  18.682  0.00  0.00    +0.000 OA
ATOM      7  C   UNL     1       2.455   5.882  20.007  0.00  0.00    +0.000 C 
ATOM      8  C   UNL     1       1.519   6.702  20.501  0.00  0.00    +0.000 C 
ENDROOT
BRANCH   8   9
ATOM      9  C   UNL     1       1.341   8.087  20.098  0.00  0.00    +0.000 A 
ATOM     10  C   UNL     1       1.396   8.479  18.814  0.00  0.00    +0.000 A 
ATOM     11  O   UNL     1       1.249   9.755  18.333  0.00  0.00    +0.000 OA
ATOM     12  C   UNL     1       0.930  10.737  19.232  0.00  0.00    +0.000 A 
ATOM     13  C   UNL     1       0.685  12.009  18.716  0.00  0.00    +0.000 A 
ATOM     14  C   UNL     1       0.319  13.046  19.575  0.00  0.00    +0.000 A 
ATOM     15  C   UNL     1       0.207  12.810  20.947  0.00  0.00    +0.000 A 
ATOM     16  C   UNL     1       0.468  11.540  21.466  0.00  0.00    +0.000 A 
ATOM     17  C   UNL     1       0.827  10.502  20.602  0.00  0.00    +0.000 A 
ATOM     18  C   UNL     1       1.078   9.140  21.116  0.00  0.00    +0.000 A 
ATOM     19  O   UNL     1       1.055   8.889  22.316  0.00  0.00    +0.000 OA
ENDBRANCH   8   9
BRANCH   4  20
ATOM     20  C   UNL     1       5.105   4.776  17.772  0.00  0.00    +0.000 A 
ATOM     21  C   UNL     1       6.461   4.775  18.145  0.00  0.00    +0.000 A 
ATOM     22  C   UNL     1       7.468   4.547  17.207  0.00  0.00    +0.000 A 
ATOM     23  C   UNL     1       7.136   4.321  15.879  0.00  0.00    +0.000 A 
ATOM     24  C   UNL     1       5.796   4.328  15.493  0.00  0.00    +0.000 A 
ATOM     25 CL   UNL     1       5.388   4.053  13.843  0.00  0.00    +0.000 Cl
ATOM     26  C   UNL     1       4.784   4.552  16.428  0.00  0.00    +0.000 A 
ENDBRANCH   4  20
TORSDOF 2
ENDMDL
MODEL 8
REMARK VINA RESULT:      -7.0      4.539     10.235
REMARK  Name = 
REMARK  3 active torsions:
REMARK  status: ('A' for Active; 'I' for Inactive)
REMARK    1  A    between atoms: C_1  and  C_2
REMARK    2  A    between atoms: N_4  and  C_5
REMARK    3  A    between atoms: C_15  and  C_16
REMARK                            x       y       z     vdW  Elec       q    Type
REMARK                         _______ _______ _______ _____ _____    ______ ____
ROOT
ATOM      1  C   UNL     1       2.313  12.516  17.768  0.00  0.00    +0.000 C 
ATOM      2  C   UNL     1       1.778  11.359  18.543  0.00  0.00    +0.000 C 
ATOM      3  N   UNL     1       2.263  10.148  18.462  0.00  0.00    +0.000 NA
ATOM      4  N   UNL     1       1.478   9.357  19.302  0.00  0.00    +0.000 N 
ATOM      5  C   UNL     1       0.428  10.045  19.915  0.00  0.00    +0.000 C 
ATOM      6  O   UNL     1      -0.491   9.651  20.613  0.00  0.00    +0.000 OA
ATOM      7  C   UNL     1       0.656  11.444  19.492  0.00  0.00    +0.000 C 
ATOM      8  C   UNL     1       0.002  12.525  19.938  0.00  0.00    +0.000 C 
ENDROOT
BRANCH   8   9
ATOM      9  C   UNL     1      -0.997  12.506  20.994  0.00  0.00    +0.000 A 
ATOM     10  C   UNL     1      -0.671  12.463  22.296  0.00  0.00    +0.000 A 
ATOM     11  O   UNL     1      -1.532  12.435  23.363  0.00  0.00    +0.000 OA
ATOM     12  C   UNL     1      -2.871  12.546  23.097  0.00  0.00    +0.000 A 
ATOM     13  C   UNL     1      -3.728  12.617  24.196  0.00  0.00    +0.000 A 
ATOM     14  C   UNL     1      -5.100  12.768  23.994  0.00  0.00    +0.000 A 
ATOM     15  C   UNL     1      -5.613  12.838  22.696  0.00  0.00    +0.000 A 
ATOM     16  C   UNL     1      -4.756  12.750  21.596  0.00  0.00    +0.000 A 
ATOM     17  C   UNL     1      -3.381  12.607  21.802  0.00  0.00    +0.000 A 
ATOM     18  C   UNL     1      -2.447  12.544  20.660  0.00  0.00    +0.000 A 
ATOM     19  O   UNL     1      -2.844  12.539  19.500  0.00  0.00    +0.000 OA
ENDBRANCH   8   9
BRANCH   4  20
ATOM     20  C   UNL     1       1.780   7.984  19.450  0.00  0.00    +0.000 A 
ATOM     21  C   UNL     1       1.438   7.289  20.624  0.00  0.00    +0.000 A 
ATOM     22  C   UNL     1       1.735   5.934  20.774  0.00  0.00    +0.000 A 
ATOM     23  C   UNL     1       2.385   5.253  19.754  0.00  0.00    +0.000 A 
ATOM     24  C   UNL     1       2.738   5.932  18.589  0.00  0.00    +0.000 A 
ATOM     25 CL   UNL     1       3.550   5.085  17.328  0.00  0.00    +0.000 Cl
ATOM     26  C   UNL     1       2.440   7.287  18.432  0.00  0.00    +0.000 A 
ENDBRANCH   4  20
TORSDOF 2
ENDMDL
MODEL 9
REMARK VINA RESULT:      -6.9      7.290     11.502
REMARK  Name = 
REMARK  3 active torsions:
REMARK  status: ('A' for Active; 'I' for Inactive)
REMARK    1  A    between atoms: C_1  and  C_2
REMARK    2  A    between atoms: N_4  and  C_5
REMARK    3  A    between atoms: C_15  and  C_16
REMARK                            x       y       z     vdW  Elec       q    Type
REMARK                         _______ _______ _______ _____ _____    ______ ____
ROOT
ATOM      1  C   UNL     1       0.919   9.260  21.184  0.00  0.00    +0.000 C 
ATOM      2  C   UNL     1      -0.170  10.087  20.586  0.00  0.00    +0.000 C 
ATOM      3  N   UNL     1      -0.706   9.842  19.419  0.00  0.00    +0.000 NA
ATOM      4  N   UNL     1      -1.650  10.847  19.206  0.00  0.00    +0.000 N 
ATOM      5  C   UNL     1      -1.709  11.799  20.226  0.00  0.00    +0.000 C 
ATOM      6  O   UNL     1      -2.333  12.844  20.315  0.00  0.00    +0.000 OA
ATOM      7  C   UNL     1      -0.773  11.261  21.237  0.00  0.00    +0.000 C 
ATOM      8  C   UNL     1      -0.586  11.732  22.477  0.00  0.00    +0.000 C 
ENDROOT
BRANCH   8   9
ATOM      9  C   UNL     1      -1.351  12.818  23.070  0.00  0.00    +0.000 A 
ATOM     10  C   UNL     1      -2.562  12.631  23.619  0.00  0.00    +0.000 A 
ATOM     11  O   UNL     1      -3.364  13.584  24.194  0.00  0.00    +0.000 OA
ATOM     12  C   UNL     1      -2.858  14.852  24.305  0.00  0.00    +0.000 A 
ATOM     13  C   UNL     1      -3.643  15.787  24.981  0.00  0.00    +0.000 A 
ATOM     14  C   UNL     1      -3.169  17.087  25.161  0.00  0.00    +0.000 A 
ATOM     15  C   UNL     1      -1.918  17.451  24.657  0.00  0.00    +0.000 A 
ATOM     16  C   UNL     1      -1.140  16.520  23.966  0.00  0.00    +0.000 A 
ATOM     17  C   UNL     1      -1.614  15.216  23.794  0.00  0.00    +0.000 A 
ATOM     18  C   UNL     1      -0.801  14.200  23.096  0.00  0.00    +0.000 A 
ATOM     19  O   UNL     1       0.275  14.478  22.579  0.00  0.00    +0.000 OA
ENDBRANCH   8   9
BRANCH   4  20
ATOM     20  C   UNL     1      -2.425  10.836  18.024  0.00  0.00    +0.000 A 
ATOM     21  C   UNL     1      -1.999  10.133  16.883  0.00  0.00    +0.000 A 
ATOM     22  C   UNL     1      -2.761  10.120  15.714  0.00  0.00    +0.000 A 
ATOM     23  C   UNL     1      -3.960  10.817  15.666  0.00  0.00    +0.000 A 
ATOM     24  C   UNL     1      -4.391  11.526  16.786  0.00  0.00    +0.000 A 
ATOM     25 CL   UNL     1      -5.877  12.394  16.720  0.00  0.00    +0.000 Cl
ATOM     26  C   UNL     1      -3.634  11.539  17.959  0.00  0.00    +0.000 A 
ENDBRANCH   4  20
TORSDOF 2
ENDMDL
