MODEL 1
REMARK VINA RESULT:      -7.1      0.000      0.000
REMARK  Name = 
REMARK  8 active torsions:
REMARK  status: ('A' for Active; 'I' for Inactive)
REMARK    1  A    between atoms: C_1  and  O_2
REMARK    2  A    between atoms: O_2  and  C_3
REMARK    3  A    between atoms: C_6  and  S_7
REMARK    4  A    between atoms: S_7  and  N_10
REMARK    5  A    between atoms: N_10  and  C_11
REMARK    6  A    between atoms: C_11  and  C_12
REMARK    7  A    between atoms: C_11  and  C_13
REMARK    8  A    between atoms: N_15  and  O_16
REMARK                            x       y       z     vdW  Elec       q    Type
REMARK                         _______ _______ _______ _____ _____    ______ ____
ROOT
ATOM      1  S   UNL     1       5.639   5.559  16.262  0.00  0.00    +0.000 S 
ATOM      2  O   UNL     1       6.638   4.518  16.318  0.00  0.00    +0.000 OA
ATOM      3  O   UNL     1       5.234   6.161  15.011  0.00  0.00    +0.000 OA
ENDROOT
BRANCH   1   7
ATOM      4  C   UNL     1       1.977   4.005  18.505  0.00  0.00    +0.000 A 
ATOM      5  C   UNL     1       2.865   3.115  17.898  0.00  0.00    +0.000 A 
ATOM      6  C   UNL     1       3.991   3.585  17.221  0.00  0.00    +0.000 A 
ATOM      7  C   UNL     1       4.208   4.961  17.120  0.00  0.00    +0.000 A 
ATOM      8  C   UNL     1       3.323   5.863  17.717  0.00  0.00    +0.000 A 
ATOM      9  C   UNL     1       2.203   5.382  18.409  0.00  0.00    +0.000 A 
BRANCH   4  11
ATOM     10  C   UNL     1       0.636   2.072  18.751  0.00  0.00    +0.000 C 
ATOM     11  O   UNL     1       0.909   3.418  19.124  0.00  0.00    +0.000 OA
ENDBRANCH   4  11
ENDBRANCH   1   7
BRANCH   1  12
ATOM     12  N   UNL     1       6.230   6.796  17.257  0.00  0.00    +0.000 NA
ATOM     13  H   UNL     1       5.470   7.050  17.897  0.00  0.00    +0.000 HD
BRANCH  12  14
ATOM     14  C   UNL     1       7.554   6.598  17.919  0.00  0.00    +0.000 C 
ATOM     15  C   UNL     1       8.259   7.919  18.187  0.00  0.00    +0.000 C 
BRANCH  14  16
ATOM     16  C   UNL     1       7.353   5.891  19.261  0.00  0.00    +0.000 C 
ATOM     17  O   UNL     1       6.253   5.526  19.676  0.00  0.00    +0.000 OA
ATOM     18  N   UNL     1       8.511   5.614  19.947  0.00  0.00    +0.000 N 
ATOM     19  H   UNL     1       9.383   6.094  19.749  0.00  0.00    +0.000 HD
BRANCH  18  20
ATOM     20  O   UNL     1       8.361   5.024  21.222  0.00  0.00    +0.000 OA
ATOM     21  H   UNL     1       8.452   5.794  21.826  0.00  0.00    +0.000 HD
ENDBRANCH  18  20
ENDBRANCH  14  16
ENDBRANCH  12  14
ENDBRANCH   1  12
TORSDOF 6
ENDMDL
MODEL 2
REMARK VINA RESULT:      -6.8      2.797      3.924
REMARK  Name = 
REMARK  8 active torsions:
REMARK  status: ('A' for Active; 'I' for Inactive)
REMARK    1  A    between atoms: C_1  and  O_2
REMARK    2  A    between atoms: O_2  and  C_3
REMARK    3  A    between atoms: C_6  and  S_7
REMARK    4  A    between atoms: S_7  and  N_10
REMARK    5  A    between atoms: N_10  and  C_11
REMARK    6  A    between atoms: C_11  and  C_12
REMARK    7  A    between atoms: C_11  and  C_13
REMARK    8  A    between atoms: N_15  and  O_16
REMARK                            x       y       z     vdW  Elec       q    Type
REMARK                         _______ _______ _______ _____ _____    ______ ____
ROOT
ATOM      1  S   UNL     1       3.375   3.850  17.572  0.00  0.00    +0.000 S 
ATOM      2  O   UNL     1       4.234   3.014  18.377  0.00  0.00    +0.000 OA
ATOM      3  O   UNL     1       2.272   3.302  16.814  0.00  0.00    +0.000 OA
ENDROOT
BRANCH   1   7
ATOM      4  C   UNL     1       1.818   7.217  20.235  0.00  0.00    +0.000 A 
ATOM      5  C   UNL     1       2.315   7.496  18.961  0.00  0.00    +0.000 A 
ATOM      6  C   UNL     1       2.782   6.470  18.139  0.00  0.00    +0.000 A 
ATOM      7  C   UNL     1       2.784   5.156  18.615  0.00  0.00    +0.000 A 
ATOM      8  C   UNL     1       2.295   4.864  19.891  0.00  0.00    +0.000 A 
ATOM      9  C   UNL     1       1.813   5.900  20.703  0.00  0.00    +0.000 A 
BRANCH   4  11
ATOM     10  C   UNL     1       0.886   9.391  20.172  0.00  0.00    +0.000 C 
ATOM     11  O   UNL     1       1.404   8.312  20.942  0.00  0.00    +0.000 OA
ENDBRANCH   4  11
ENDBRANCH   1   7
BRANCH   1  12
ATOM     12  N   UNL     1       4.409   4.629  16.480  0.00  0.00    +0.000 NA
ATOM     13  H   UNL     1       4.532   5.588  16.821  0.00  0.00    +0.000 HD
BRANCH  12  14
ATOM     14  C   UNL     1       5.678   3.942  16.096  0.00  0.00    +0.000 C 
ATOM     15  C   UNL     1       5.939   4.022  14.600  0.00  0.00    +0.000 C 
BRANCH  14  16
ATOM     16  C   UNL     1       6.855   4.607  16.815  0.00  0.00    +0.000 C 
ATOM     17  O   UNL     1       7.587   5.442  16.285  0.00  0.00    +0.000 OA
ATOM     18  N   UNL     1       6.993   4.262  18.138  0.00  0.00    +0.000 N 
ATOM     19  H   UNL     1       6.564   3.429  18.526  0.00  0.00    +0.000 HD
BRANCH  18  20
ATOM     20  O   UNL     1       8.110   4.802  18.816  0.00  0.00    +0.000 OA
ATOM     21  H   UNL     1       7.789   4.863  19.742  0.00  0.00    +0.000 HD
ENDBRANCH  18  20
ENDBRANCH  14  16
ENDBRANCH  12  14
ENDBRANCH   1  12
TORSDOF 6
ENDMDL
MODEL 3
REMARK VINA RESULT:      -6.8      2.583      4.012
REMARK  Name = 
REMARK  8 active torsions:
REMARK  status: ('A' for Active; 'I' for Inactive)
REMARK    1  A    between atoms: C_1  and  O_2
REMARK    2  A    between atoms: O_2  and  C_3
REMARK    3  A    between atoms: C_6  and  S_7
REMARK    4  A    between atoms: S_7  and  N_10
REMARK    5  A    between atoms: N_10  and  C_11
REMARK    6  A    between atoms: C_11  and  C_12
REMARK    7  A    between atoms: C_11  and  C_13
REMARK    8  A    between atoms: N_15  and  O_16
REMARK                            x       y       z     vdW  Elec       q    Type
REMARK                         _______ _______ _______ _____ _____    ______ ____
ROOT
ATOM      1  S   UNL     1       4.304   3.624  18.612  0.00  0.00    +0.000 S 
ATOM      2  O   UNL     1       3.841   2.794  19.699  0.00  0.00    +0.000 OA
ATOM      3  O   UNL     1       4.231   3.187  17.235  0.00  0.00    +0.000 OA
ENDROOT
BRANCH   1   7
ATOM      4  C   UNL     1       2.270   7.689  19.059  0.00  0.00    +0.000 A 
ATOM      5  C   UNL     1       2.164   6.730  20.069  0.00  0.00    +0.000 A 
ATOM      6  C   UNL     1       2.793   5.491  19.942  0.00  0.00    +0.000 A 
ATOM      7  C   UNL     1       3.502   5.198  18.775  0.00  0.00    +0.000 A 
ATOM      8  C   UNL     1       3.610   6.146  17.754  0.00  0.00    +0.000 A 
ATOM      9  C   UNL     1       2.989   7.394  17.897  0.00  0.00    +0.000 A 
BRANCH   4  11
ATOM     10  C   UNL     1       1.497   9.756  18.206  0.00  0.00    +0.000 C 
ATOM     11  O   UNL     1       1.598   8.854  19.302  0.00  0.00    +0.000 OA
ENDBRANCH   4  11
ENDBRANCH   1   7
BRANCH   1  12
ATOM     12  N   UNL     1       5.928   3.950  18.961  0.00  0.00    +0.000 NA
ATOM     13  H   UNL     1       6.461   3.113  18.702  0.00  0.00    +0.000 HD
BRANCH  12  14
ATOM     14  C   UNL     1       6.513   5.232  18.467  0.00  0.00    +0.000 C 
ATOM     15  C   UNL     1       7.511   5.819  19.454  0.00  0.00    +0.000 C 
BRANCH  14  16
ATOM     16  C   UNL     1       7.248   4.982  17.148  0.00  0.00    +0.000 C 
ATOM     17  O   UNL     1       8.161   4.166  17.025  0.00  0.00    +0.000 OA
ATOM     18  N   UNL     1       6.758   5.684  16.072  0.00  0.00    +0.000 N 
ATOM     19  H   UNL     1       6.180   6.510  16.186  0.00  0.00    +0.000 HD
BRANCH  18  20
ATOM     20  O   UNL     1       7.455   5.532  14.853  0.00  0.00    +0.000 OA
ATOM     21  H   UNL     1       6.769   5.755  14.185  0.00  0.00    +0.000 HD
ENDBRANCH  18  20
ENDBRANCH  14  16
ENDBRANCH  12  14
ENDBRANCH   1  12
TORSDOF 6
ENDMDL
MODEL 4
REMARK VINA RESULT:      -6.8      2.862      5.588
REMARK  Name = 
REMARK  8 active torsions:
REMARK  status: ('A' for Active; 'I' for Inactive)
REMARK    1  A    between atoms: C_1  and  O_2
REMARK    2  A    between atoms: O_2  and  C_3
REMARK    3  A    between atoms: C_6  and  S_7
REMARK    4  A    between atoms: S_7  and  N_10
REMARK    5  A    between atoms: N_10  and  C_11
REMARK    6  A    between atoms: C_11  and  C_12
REMARK    7  A    between atoms: C_11  and  C_13
REMARK    8  A    between atoms: N_15  and  O_16
REMARK                            x       y       z     vdW  Elec       q    Type
REMARK                         _______ _______ _______ _____ _____    ______ ____
ROOT
ATOM      1  S   UNL     1       5.502   4.585  19.137  0.00  0.00    +0.000 S 
ATOM      2  O   UNL     1       5.202   3.229  19.533  0.00  0.00    +0.000 OA
ATOM      3  O   UNL     1       6.507   5.372  19.817  0.00  0.00    +0.000 OA
ENDROOT
BRANCH   1   7
ATOM      4  C   UNL     1       6.414   4.481  14.663  0.00  0.00    +0.000 A 
ATOM      5  C   UNL     1       7.432   4.722  15.587  0.00  0.00    +0.000 A 
ATOM      6  C   UNL     1       7.161   4.744  16.955  0.00  0.00    +0.000 A 
ATOM      7  C   UNL     1       5.849   4.559  17.398  0.00  0.00    +0.000 A 
ATOM      8  C   UNL     1       4.819   4.324  16.484  0.00  0.00    +0.000 A 
ATOM      9  C   UNL     1       5.104   4.288  15.112  0.00  0.00    +0.000 A 
BRANCH   4  11
ATOM     10  C   UNL     1       6.257   3.486  12.522  0.00  0.00    +0.000 C 
ATOM     11  O   UNL     1       6.810   4.499  13.355  0.00  0.00    +0.000 OA
ENDBRANCH   4  11
ENDBRANCH   1   7
BRANCH   1  12
ATOM     12  N   UNL     1       4.033   5.418  19.253  0.00  0.00    +0.000 NA
ATOM     13  H   UNL     1       3.840   5.808  18.325  0.00  0.00    +0.000 HD
BRANCH  12  14
ATOM     14  C   UNL     1       2.873   4.719  19.883  0.00  0.00    +0.000 C 
ATOM     15  C   UNL     1       1.900   5.697  20.523  0.00  0.00    +0.000 C 
BRANCH  14  16
ATOM     16  C   UNL     1       2.112   3.929  18.816  0.00  0.00    +0.000 C 
ATOM     17  O   UNL     1       1.503   4.460  17.887  0.00  0.00    +0.000 OA
ATOM     18  N   UNL     1       2.223   2.563  18.920  0.00  0.00    +0.000 N 
ATOM     19  H   UNL     1       2.513   2.110  19.780  0.00  0.00    +0.000 HD
BRANCH  18  20
ATOM     20  O   UNL     1       1.477   1.800  17.994  0.00  0.00    +0.000 OA
ATOM     21  H   UNL     1       0.879   2.470  17.596  0.00  0.00    +0.000 HD
ENDBRANCH  18  20
ENDBRANCH  14  16
ENDBRANCH  12  14
ENDBRANCH   1  12
TORSDOF 6
ENDMDL
MODEL 5
REMARK VINA RESULT:      -6.7      2.630      3.944
REMARK  Name = 
REMARK  8 active torsions:
REMARK  status: ('A' for Active; 'I' for Inactive)
REMARK    1  A    between atoms: C_1  and  O_2
REMARK    2  A    between atoms: O_2  and  C_3
REMARK    3  A    between atoms: C_6  and  S_7
REMARK    4  A    between atoms: S_7  and  N_10
REMARK    5  A    between atoms: N_10  and  C_11
REMARK    6  A    between atoms: C_11  and  C_12
REMARK    7  A    between atoms: C_11  and  C_13
REMARK    8  A    between atoms: N_15  and  O_16
REMARK                            x       y       z     vdW  Elec       q    Type
REMARK                         _______ _______ _______ _____ _____    ______ ____
ROOT
ATOM      1  S   UNL     1       4.069   3.624  18.332  0.00  0.00    +0.000 S 
ATOM      2  O   UNL     1       3.563   2.546  19.150  0.00  0.00    +0.000 OA
ATOM      3  O   UNL     1       4.037   3.564  16.887  0.00  0.00    +0.000 OA
ENDROOT
BRANCH   1   7
ATOM      4  C   UNL     1       1.999   7.453  19.714  0.00  0.00    +0.000 A 
ATOM      5  C   UNL     1       2.626   7.398  18.468  0.00  0.00    +0.000 A 
ATOM      6  C   UNL     1       3.251   6.228  18.037  0.00  0.00    +0.000 A 
ATOM      7  C   UNL     1       3.278   5.114  18.879  0.00  0.00    +0.000 A 
ATOM      8  C   UNL     1       2.659   5.157  20.131  0.00  0.00    +0.000 A 
ATOM      9  C   UNL     1       2.020   6.332  20.549  0.00  0.00    +0.000 A 
BRANCH   4  11
ATOM     10  C   UNL     1       0.700   8.715  21.237  0.00  0.00    +0.000 C 
ATOM     11  O   UNL     1       1.437   8.661  20.020  0.00  0.00    +0.000 OA
ENDBRANCH   4  11
ENDBRANCH   1   7
BRANCH   1  12
ATOM     12  N   UNL     1       5.684   3.818  18.801  0.00  0.00    +0.000 NA
ATOM     13  H   UNL     1       6.179   2.964  18.519  0.00  0.00    +0.000 HD
BRANCH  12  14
ATOM     14  C   UNL     1       6.380   5.086  18.429  0.00  0.00    +0.000 C 
ATOM     15  C   UNL     1       7.298   5.576  19.538  0.00  0.00    +0.000 C 
BRANCH  14  16
ATOM     16  C   UNL     1       7.233   4.853  17.180  0.00  0.00    +0.000 C 
ATOM     17  O   UNL     1       8.259   4.172  17.179  0.00  0.00    +0.000 OA
ATOM     18  N   UNL     1       6.727   5.397  16.025  0.00  0.00    +0.000 N 
ATOM     19  H   UNL     1       6.032   6.136  16.036  0.00  0.00    +0.000 HD
BRANCH  18  20
ATOM     20  O   UNL     1       7.522   5.262  14.865  0.00  0.00    +0.000 OA
ATOM     21  H   UNL     1       8.432   5.213  15.233  0.00  0.00    +0.000 HD
ENDBRANCH  18  20
ENDBRANCH  14  16
ENDBRANCH  12  14
ENDBRANCH   1  12
TORSDOF 6
ENDMDL
MODEL 6
REMARK VINA RESULT:      -6.7      2.996      5.494
REMARK  Name = 
REMARK  8 active torsions:
REMARK  status: ('A' for Active; 'I' for Inactive)
REMARK    1  A    between atoms: C_1  and  O_2
REMARK    2  A    between atoms: O_2  and  C_3
REMARK    3  A    between atoms: C_6  and  S_7
REMARK    4  A    between atoms: S_7  and  N_10
REMARK    5  A    between atoms: N_10  and  C_11
REMARK    6  A    between atoms: C_11  and  C_12
REMARK    7  A    between atoms: C_11  and  C_13
REMARK    8  A    between atoms: N_15  and  O_16
REMARK                            x       y       z     vdW  Elec       q    Type
REMARK                         _______ _______ _______ _____ _____    ______ ____
ROOT
ATOM      1  S   UNL     1       3.118   5.683  18.594  0.00  0.00    +0.000 S 
ATOM      2  O   UNL     1       3.600   5.490  19.942  0.00  0.00    +0.000 OA
ATOM      3  O   UNL     1       2.315   6.829  18.228  0.00  0.00    +0.000 OA
ENDROOT
BRANCH   1   7
ATOM      4  C   UNL     1       6.709   5.431  15.783  0.00  0.00    +0.000 A 
ATOM      5  C   UNL     1       5.601   4.604  15.591  0.00  0.00    +0.000 A 
ATOM      6  C   UNL     1       4.497   4.685  16.440  0.00  0.00    +0.000 A 
ATOM      7  C   UNL     1       4.521   5.577  17.515  0.00  0.00    +0.000 A 
ATOM      8  C   UNL     1       5.626   6.406  17.723  0.00  0.00    +0.000 A 
ATOM      9  C   UNL     1       6.725   6.330  16.855  0.00  0.00    +0.000 A 
BRANCH   4  11
ATOM     10  C   UNL     1       7.344   4.806  13.592  0.00  0.00    +0.000 C 
ATOM     11  O   UNL     1       7.727   5.244  14.891  0.00  0.00    +0.000 OA
ENDBRANCH   4  11
ENDBRANCH   1   7
BRANCH   1  12
ATOM     12  N   UNL     1       2.219   4.293  18.240  0.00  0.00    +0.000 NA
ATOM     13  H   UNL     1       2.564   3.937  17.342  0.00  0.00    +0.000 HD
BRANCH  12  14
ATOM     14  C   UNL     1       2.078   3.253  19.302  0.00  0.00    +0.000 C 
ATOM     15  C   UNL     1       0.774   2.481  19.174  0.00  0.00    +0.000 C 
BRANCH  14  16
ATOM     16  C   UNL     1       3.230   2.251  19.192  0.00  0.00    +0.000 C 
ATOM     17  O   UNL     1       3.318   1.417  18.291  0.00  0.00    +0.000 OA
ATOM     18  N   UNL     1       4.218   2.400  20.136  0.00  0.00    +0.000 N 
ATOM     19  H   UNL     1       4.064   2.907  21.001  0.00  0.00    +0.000 HD
BRANCH  18  20
ATOM     20  O   UNL     1       5.263   1.450  20.109  0.00  0.00    +0.000 OA
ATOM     21  H   UNL     1       5.417   1.328  19.146  0.00  0.00    +0.000 HD
ENDBRANCH  18  20
ENDBRANCH  14  16
ENDBRANCH  12  14
ENDBRANCH   1  12
TORSDOF 6
ENDMDL
MODEL 7
REMARK VINA RESULT:      -6.7      3.063      5.775
REMARK  Name = 
REMARK  8 active torsions:
REMARK  status: ('A' for Active; 'I' for Inactive)
REMARK    1  A    between atoms: C_1  and  O_2
REMARK    2  A    between atoms: O_2  and  C_3
REMARK    3  A    between atoms: C_6  and  S_7
REMARK    4  A    between atoms: S_7  and  N_10
REMARK    5  A    between atoms: N_10  and  C_11
REMARK    6  A    between atoms: C_11  and  C_12
REMARK    7  A    between atoms: C_11  and  C_13
REMARK    8  A    between atoms: N_15  and  O_16
REMARK                            x       y       z     vdW  Elec       q    Type
REMARK                         _______ _______ _______ _____ _____    ______ ____
ROOT
ATOM      1  S   UNL     1       4.301   2.868  19.306  0.00  0.00    +0.000 S 
ATOM      2  O   UNL     1       3.478   2.240  18.300  0.00  0.00    +0.000 OA
ATOM      3  O   UNL     1       5.148   2.096  20.188  0.00  0.00    +0.000 OA
ENDROOT
BRANCH   1   7
ATOM      4  C   UNL     1       6.835   6.040  17.215  0.00  0.00    +0.000 A 
ATOM      5  C   UNL     1       6.911   5.873  18.599  0.00  0.00    +0.000 A 
ATOM      6  C   UNL     1       6.147   4.898  19.241  0.00  0.00    +0.000 A 
ATOM      7  C   UNL     1       5.271   4.109  18.493  0.00  0.00    +0.000 A 
ATOM      8  C   UNL     1       5.180   4.270  17.108  0.00  0.00    +0.000 A 
ATOM      9  C   UNL     1       5.963   5.241  16.468  0.00  0.00    +0.000 A 
BRANCH   4  11
ATOM     10  C   UNL     1       7.791   8.179  17.546  0.00  0.00    +0.000 C 
ATOM     11  O   UNL     1       7.624   7.037  16.713  0.00  0.00    +0.000 OA
ENDBRANCH   4  11
ENDBRANCH   1   7
BRANCH   1  12
ATOM     12  N   UNL     1       3.227   3.751  20.272  0.00  0.00    +0.000 NA
ATOM     13  H   UNL     1       3.798   4.317  20.909  0.00  0.00    +0.000 HD
BRANCH  12  14
ATOM     14  C   UNL     1       2.124   4.500  19.599  0.00  0.00    +0.000 C 
ATOM     15  C   UNL     1       0.761   4.140  20.169  0.00  0.00    +0.000 C 
BRANCH  14  16
ATOM     16  C   UNL     1       2.335   6.003  19.797  0.00  0.00    +0.000 C 
ATOM     17  O   UNL     1       2.907   6.721  18.976  0.00  0.00    +0.000 OA
ATOM     18  N   UNL     1       1.763   6.523  20.934  0.00  0.00    +0.000 N 
ATOM     19  H   UNL     1       1.497   5.937  21.719  0.00  0.00    +0.000 HD
BRANCH  18  20
ATOM     20  O   UNL     1       1.996   7.893  21.186  0.00  0.00    +0.000 OA
ATOM     21  H   UNL     1       2.067   7.922  22.166  0.00  0.00    +0.000 HD
ENDBRANCH  18  20
ENDBRANCH  14  16
ENDBRANCH  12  14
ENDBRANCH   1  12
TORSDOF 6
ENDMDL
MODEL 8
REMARK VINA RESULT:      -6.7      2.837      3.935
REMARK  Name = 
REMARK  8 active torsions:
REMARK  status: ('A' for Active; 'I' for Inactive)
REMARK    1  A    between atoms: C_1  and  O_2
REMARK    2  A    between atoms: O_2  and  C_3
REMARK    3  A    between atoms: C_6  and  S_7
REMARK    4  A    between atoms: S_7  and  N_10
REMARK    5  A    between atoms: N_10  and  C_11
REMARK    6  A    between atoms: C_11  and  C_12
REMARK    7  A    between atoms: C_11  and  C_13
REMARK    8  A    between atoms: N_15  and  O_16
REMARK                            x       y       z     vdW  Elec       q    Type
REMARK                         _______ _______ _______ _____ _____    ______ ____
ROOT
ATOM      1  S   UNL     1       3.317   4.014  17.738  0.00  0.00    +0.000 S 
ATOM      2  O   UNL     1       4.143   3.234  18.629  0.00  0.00    +0.000 OA
ATOM      3  O   UNL     1       2.221   3.423  17.003  0.00  0.00    +0.000 OA
ENDROOT
BRANCH   1   7
ATOM      4  C   UNL     1       1.834   7.612  20.127  0.00  0.00    +0.000 A 
ATOM      5  C   UNL     1       1.789   6.329  20.678  0.00  0.00    +0.000 A 
ATOM      6  C   UNL     1       2.251   5.229  19.956  0.00  0.00    +0.000 A 
ATOM      7  C   UNL     1       2.727   5.411  18.656  0.00  0.00    +0.000 A 
ATOM      8  C   UNL     1       2.772   6.688  18.090  0.00  0.00    +0.000 A 
ATOM      9  C   UNL     1       2.321   7.791  18.829  0.00  0.00    +0.000 A 
BRANCH   4  11
ATOM     10  C   UNL     1       0.596   9.623  20.280  0.00  0.00    +0.000 C 
ATOM     11  O   UNL     1       1.339   8.599  20.933  0.00  0.00    +0.000 OA
ENDBRANCH   4  11
ENDBRANCH   1   7
BRANCH   1  12
ATOM     12  N   UNL     1       4.388   4.683  16.610  0.00  0.00    +0.000 NA
ATOM     13  H   UNL     1       4.528   5.663  16.879  0.00  0.00    +0.000 HD
BRANCH  12  14
ATOM     14  C   UNL     1       5.648   3.941  16.305  0.00  0.00    +0.000 C 
ATOM     15  C   UNL     1       5.938   3.902  14.813  0.00  0.00    +0.000 C 
BRANCH  14  16
ATOM     16  C   UNL     1       6.826   4.631  16.996  0.00  0.00    +0.000 C 
ATOM     17  O   UNL     1       7.537   5.471  16.445  0.00  0.00    +0.000 OA
ATOM     18  N   UNL     1       6.991   4.303  18.321  0.00  0.00    +0.000 N 
ATOM     19  H   UNL     1       6.582   3.467  18.724  0.00  0.00    +0.000 HD
BRANCH  18  20
ATOM     20  O   UNL     1       8.111   4.867  18.973  0.00  0.00    +0.000 OA
ATOM     21  H   UNL     1       7.699   5.519  19.581  0.00  0.00    +0.000 HD
ENDBRANCH  18  20
ENDBRANCH  14  16
ENDBRANCH  12  14
ENDBRANCH   1  12
TORSDOF 6
ENDMDL
MODEL 9
REMARK VINA RESULT:      -6.7      3.001      5.685
REMARK  Name = 
REMARK  8 active torsions:
REMARK  status: ('A' for Active; 'I' for Inactive)
REMARK    1  A    between atoms: C_1  and  O_2
REMARK    2  A    between atoms: O_2  and  C_3
REMARK    3  A    between atoms: C_6  and  S_7
REMARK    4  A    between atoms: S_7  and  N_10
REMARK    5  A    between atoms: N_10  and  C_11
REMARK    6  A    between atoms: C_11  and  C_12
REMARK    7  A    between atoms: C_11  and  C_13
REMARK    8  A    between atoms: N_15  and  O_16
REMARK                            x       y       z     vdW  Elec       q    Type
REMARK                         _______ _______ _______ _____ _____    ______ ____
ROOT
ATOM      1  S   UNL     1       5.452   4.780  19.020  0.00  0.00    +0.000 S 
ATOM      2  O   UNL     1       6.674   5.042  19.744  0.00  0.00    +0.000 OA
ATOM      3  O   UNL     1       4.272   5.598  19.196  0.00  0.00    +0.000 OA
ENDROOT
BRANCH   1   7
ATOM      4  C   UNL     1       6.543   4.553  14.590  0.00  0.00    +0.000 A 
ATOM      5  C   UNL     1       7.509   4.888  15.541  0.00  0.00    +0.000 A 
ATOM      6  C   UNL     1       7.184   4.948  16.896  0.00  0.00    +0.000 A 
ATOM      7  C   UNL     1       5.868   4.706  17.297  0.00  0.00    +0.000 A 
ATOM      8  C   UNL     1       4.889   4.376  16.356  0.00  0.00    +0.000 A 
ATOM      9  C   UNL     1       5.229   4.302  14.998  0.00  0.00    +0.000 A 
BRANCH   4  11
ATOM     10  C   UNL     1       6.387   3.580  12.439  0.00  0.00    +0.000 C 
ATOM     11  O   UNL     1       6.989   4.542  13.298  0.00  0.00    +0.000 OA
ENDBRANCH   4  11
ENDBRANCH   1   7
BRANCH   1  12
ATOM     12  N   UNL     1       5.035   3.187  19.412  0.00  0.00    +0.000 NA
ATOM     13  H   UNL     1       5.207   3.074  20.417  0.00  0.00    +0.000 HD
BRANCH  12  14
ATOM     14  C   UNL     1       3.712   2.669  18.951  0.00  0.00    +0.000 C 
ATOM     15  C   UNL     1       3.754   1.176  18.664  0.00  0.00    +0.000 C 
BRANCH  14  16
ATOM     16  C   UNL     1       2.663   2.910  20.038  0.00  0.00    +0.000 C 
ATOM     17  O   UNL     1       2.778   2.500  21.193  0.00  0.00    +0.000 OA
ATOM     18  N   UNL     1       1.602   3.695  19.654  0.00  0.00    +0.000 N 
ATOM     19  H   UNL     1       1.369   3.847  18.678  0.00  0.00    +0.000 HD
BRANCH  18  20
ATOM     20  O   UNL     1       0.578   3.882  20.610  0.00  0.00    +0.000 OA
ATOM     21  H   UNL     1       1.084   4.012  21.443  0.00  0.00    +0.000 HD
ENDBRANCH  18  20
ENDBRANCH  14  16
ENDBRANCH  12  14
ENDBRANCH   1  12
TORSDOF 6
ENDMDL
