MODEL 1
REMARK VINA RESULT:      -7.6      0.000      0.000
REMARK  Name = 
REMARK  5 active torsions:
REMARK  status: ('A' for Active; 'I' for Inactive)
REMARK    1  A    between atoms: C_1  and  N_2
REMARK    2  A    between atoms: N_6  and  C_7
REMARK    3  A    between atoms: C_7  and  C_8
REMARK    4  A    between atoms: C_7  and  C_10
REMARK    5  A    between atoms: C_7  and  C_13
REMARK                            x       y       z     vdW  Elec       q    Type
REMARK                         _______ _______ _______ _____ _____    ______ ____
ROOT
ATOM      1  C   UNL     1       8.588   8.465  18.944  0.00  0.00    +0.000 C 
ATOM      2  N   UNL     1       8.109   8.161  17.620  0.00  0.00    +0.000 N 
ATOM      3  C   UNL     1       7.396   6.985  17.456  0.00  0.00    +0.000 A 
ATOM      4  N   UNL     1       6.728   6.440  18.470  0.00  0.00    +0.000 NA
ATOM      5  C   UNL     1       6.000   5.371  18.195  0.00  0.00    +0.000 A 
ATOM      6  N   UNL     1       5.325   4.804  19.260  0.00  0.00    +0.000 N 
ATOM      7  N   UNL     1       5.922   4.821  16.995  0.00  0.00    +0.000 NA
ATOM      8  C   UNL     1       6.649   5.413  16.044  0.00  0.00    +0.000 A 
ATOM      9  N   UNL     1       6.602   4.820  14.745  0.00  0.00    +0.000 N 
ATOM     10  C   UNL     1       5.795   3.781  14.356  0.00  0.00    +0.000 A 
ATOM     11  N   UNL     1       6.058   3.429  13.117  0.00  0.00    +0.000 NA
ATOM     12  C   UNL     1       7.037   4.307  12.763  0.00  0.00    +0.000 A 
ATOM     13  N   UNL     1       7.395   5.188  13.700  0.00  0.00    +0.000 NA
ATOM     14  N   UNL     1       7.415   6.487  16.229  0.00  0.00    +0.000 NA
ATOM     15  H   UNL     1       8.780   8.231  16.863  0.00  0.00    +0.000 HD
ATOM     16  H   UNL     1       5.449   5.405  20.059  0.00  0.00    +0.000 HD
ENDROOT
BRANCH   6  17
ATOM     17  C   UNL     1       3.989   4.231  19.054  0.00  0.00    +0.000 C 
BRANCH  17  18
ATOM     18  C   UNL     1       3.308   5.089  17.991  0.00  0.00    +0.000 C 
ATOM     19  C   UNL     1       1.796   5.076  17.857  0.00  0.00    +0.000 C 
ATOM     20  C   UNL     1       2.505   6.350  18.214  0.00  0.00    +0.000 C 
ENDBRANCH  17  18
BRANCH  17  21
ATOM     21  C   UNL     1       4.044   2.732  18.800  0.00  0.00    +0.000 C 
ATOM     22  C   UNL     1       2.831   1.822  18.843  0.00  0.00    +0.000 C 
ATOM     23  C   UNL     1       3.509   2.076  17.530  0.00  0.00    +0.000 C 
ENDBRANCH  17  21
BRANCH  17  24
ATOM     24  C   UNL     1       3.055   4.355  20.247  0.00  0.00    +0.000 C 
ATOM     25  N   UNL     1       2.281   4.458  21.236  0.00  0.00    +0.000 NA
ENDBRANCH  17  24
ENDBRANCH   6  17
TORSDOF 4
ENDMDL
MODEL 2
REMARK VINA RESULT:      -7.4      1.019      2.119
REMARK  Name = 
REMARK  5 active torsions:
REMARK  status: ('A' for Active; 'I' for Inactive)
REMARK    1  A    between atoms: C_1  and  N_2
REMARK    2  A    between atoms: N_6  and  C_7
REMARK    3  A    between atoms: C_7  and  C_8
REMARK    4  A    between atoms: C_7  and  C_10
REMARK    5  A    between atoms: C_7  and  C_13
REMARK                            x       y       z     vdW  Elec       q    Type
REMARK                         _______ _______ _______ _____ _____    ______ ____
ROOT
ATOM      1  C   UNL     1       8.493   8.210  18.803  0.00  0.00    +0.000 C 
ATOM      2  N   UNL     1       8.006   7.935  17.476  0.00  0.00    +0.000 N 
ATOM      3  C   UNL     1       7.278   6.770  17.294  0.00  0.00    +0.000 A 
ATOM      4  N   UNL     1       6.608   6.216  18.301  0.00  0.00    +0.000 NA
ATOM      5  C   UNL     1       5.866   5.160  18.010  0.00  0.00    +0.000 A 
ATOM      6  N   UNL     1       5.189   4.582  19.068  0.00  0.00    +0.000 N 
ATOM      7  N   UNL     1       5.777   4.632  16.801  0.00  0.00    +0.000 NA
ATOM      8  C   UNL     1       6.507   5.232  15.858  0.00  0.00    +0.000 A 
ATOM      9  N   UNL     1       6.449   4.663  14.548  0.00  0.00    +0.000 N 
ATOM     10  C   UNL     1       5.628   3.640  14.144  0.00  0.00    +0.000 A 
ATOM     11  N   UNL     1       5.882   3.307  12.899  0.00  0.00    +0.000 NA
ATOM     12  C   UNL     1       6.870   4.180  12.557  0.00  0.00    +0.000 A 
ATOM     13  N   UNL     1       7.242   5.039  13.507  0.00  0.00    +0.000 NA
ATOM     14  N   UNL     1       7.286   6.294  16.059  0.00  0.00    +0.000 NA
ATOM     15  H   UNL     1       8.675   8.010  16.717  0.00  0.00    +0.000 HD
ATOM     16  H   UNL     1       5.322   5.167  19.877  0.00  0.00    +0.000 HD
ENDROOT
BRANCH   6  17
ATOM     17  C   UNL     1       3.846   4.029  18.857  0.00  0.00    +0.000 C 
BRANCH  17  18
ATOM     18  C   UNL     1       3.179   3.972  20.230  0.00  0.00    +0.000 C 
ATOM     19  C   UNL     1       1.824   3.307  20.390  0.00  0.00    +0.000 C 
ATOM     20  C   UNL     1       3.017   2.757  21.115  0.00  0.00    +0.000 C 
ENDBRANCH  17  18
BRANCH  17  21
ATOM     21  C   UNL     1       3.093   4.761  17.755  0.00  0.00    +0.000 C 
ATOM     22  C   UNL     1       1.582   4.769  17.625  0.00  0.00    +0.000 C 
ATOM     23  C   UNL     1       2.293   6.038  17.991  0.00  0.00    +0.000 C 
ENDBRANCH  17  21
BRANCH  17  24
ATOM     24  C   UNL     1       3.820   2.579  18.402  0.00  0.00    +0.000 C 
ATOM     25  N   UNL     1       3.800   1.376  18.024  0.00  0.00    +0.000 NA
ENDBRANCH  17  24
ENDBRANCH   6  17
TORSDOF 4
ENDMDL
MODEL 3
REMARK VINA RESULT:      -7.4      2.287      6.075
REMARK  Name = 
REMARK  5 active torsions:
REMARK  status: ('A' for Active; 'I' for Inactive)
REMARK    1  A    between atoms: C_1  and  N_2
REMARK    2  A    between atoms: N_6  and  C_7
REMARK    3  A    between atoms: C_7  and  C_8
REMARK    4  A    between atoms: C_7  and  C_10
REMARK    5  A    between atoms: C_7  and  C_13
REMARK                            x       y       z     vdW  Elec       q    Type
REMARK                         _______ _______ _______ _____ _____    ______ ____
ROOT
ATOM      1  C   UNL     1       1.474   9.828  18.146  0.00  0.00    +0.000 C 
ATOM      2  N   UNL     1       1.570   8.829  19.178  0.00  0.00    +0.000 N 
ATOM      3  C   UNL     1       2.318   7.697  18.900  0.00  0.00    +0.000 A 
ATOM      4  N   UNL     1       3.306   7.729  18.009  0.00  0.00    +0.000 NA
ATOM      5  C   UNL     1       4.025   6.627  17.879  0.00  0.00    +0.000 A 
ATOM      6  N   UNL     1       5.036   6.667  16.937  0.00  0.00    +0.000 N 
ATOM      7  N   UNL     1       3.801   5.517  18.562  0.00  0.00    +0.000 NA
ATOM      8  C   UNL     1       2.771   5.562  19.410  0.00  0.00    +0.000 A 
ATOM      9  N   UNL     1       2.493   4.366  20.140  0.00  0.00    +0.000 N 
ATOM     10  C   UNL     1       3.251   3.221  20.141  0.00  0.00    +0.000 A 
ATOM     11  N   UNL     1       2.672   2.283  20.856  0.00  0.00    +0.000 NA
ATOM     12  C   UNL     1       1.549   2.908  21.307  0.00  0.00    +0.000 A 
ATOM     13  N   UNL     1       1.395   4.177  20.924  0.00  0.00    +0.000 NA
ATOM     14  N   UNL     1       1.990   6.624  19.602  0.00  0.00    +0.000 NA
ATOM     15  H   UNL     1       0.702   8.535  19.613  0.00  0.00    +0.000 HD
ATOM     16  H   UNL     1       5.093   7.609  16.586  0.00  0.00    +0.000 HD
ENDROOT
BRANCH   6  17
ATOM     17  C   UNL     1       6.303   5.973  17.200  0.00  0.00    +0.000 C 
BRANCH  17  18
ATOM     18  C   UNL     1       6.334   4.759  16.275  0.00  0.00    +0.000 C 
ATOM     19  C   UNL     1       5.559   4.776  14.970  0.00  0.00    +0.000 C 
ATOM     20  C   UNL     1       7.054   4.639  14.951  0.00  0.00    +0.000 C 
ENDBRANCH  17  18
BRANCH  17  21
ATOM     21  C   UNL     1       7.495   6.918  17.136  0.00  0.00    +0.000 C 
ATOM     22  C   UNL     1       7.448   8.368  17.577  0.00  0.00    +0.000 C 
ATOM     23  C   UNL     1       8.261   7.387  18.369  0.00  0.00    +0.000 C 
ENDBRANCH  17  21
BRANCH  17  24
ATOM     24  C   UNL     1       6.414   5.355  18.584  0.00  0.00    +0.000 C 
ATOM     25  N   UNL     1       6.505   4.841  19.731  0.00  0.00    +0.000 NA
ENDBRANCH  17  24
ENDBRANCH   6  17
TORSDOF 4
ENDMDL
MODEL 4
REMARK VINA RESULT:      -7.2      1.002      1.993
REMARK  Name = 
REMARK  5 active torsions:
REMARK  status: ('A' for Active; 'I' for Inactive)
REMARK    1  A    between atoms: C_1  and  N_2
REMARK    2  A    between atoms: N_6  and  C_7
REMARK    3  A    between atoms: C_7  and  C_8
REMARK    4  A    between atoms: C_7  and  C_10
REMARK    5  A    between atoms: C_7  and  C_13
REMARK                            x       y       z     vdW  Elec       q    Type
REMARK                         _______ _______ _______ _____ _____    ______ ____
ROOT
ATOM      1  C   UNL     1       8.584   8.227  18.941  0.00  0.00    +0.000 C 
ATOM      2  N   UNL     1       8.103   7.973  17.607  0.00  0.00    +0.000 N 
ATOM      3  C   UNL     1       7.323   6.845  17.416  0.00  0.00    +0.000 A 
ATOM      4  N   UNL     1       6.611   6.326  18.413  0.00  0.00    +0.000 NA
ATOM      5  C   UNL     1       5.823   5.307  18.113  0.00  0.00    +0.000 A 
ATOM      6  N   UNL     1       5.103   4.764  19.161  0.00  0.00    +0.000 N 
ATOM      7  N   UNL     1       5.727   4.782  16.903  0.00  0.00    +0.000 NA
ATOM      8  C   UNL     1       6.499   5.343  15.970  0.00  0.00    +0.000 A 
ATOM      9  N   UNL     1       6.432   4.776  14.661  0.00  0.00    +0.000 N 
ATOM     10  C   UNL     1       5.568   3.793  14.246  0.00  0.00    +0.000 A 
ATOM     11  N   UNL     1       5.824   3.446  13.004  0.00  0.00    +0.000 NA
ATOM     12  C   UNL     1       6.858   4.269  12.676  0.00  0.00    +0.000 A 
ATOM     13  N   UNL     1       7.258   5.111  13.630  0.00  0.00    +0.000 NA
ATOM     14  N   UNL     1       7.326   6.366  16.181  0.00  0.00    +0.000 NA
ATOM     15  H   UNL     1       8.786   8.015  16.858  0.00  0.00    +0.000 HD
ATOM     16  H   UNL     1       5.253   5.344  19.971  0.00  0.00    +0.000 HD
ENDROOT
BRANCH   6  17
ATOM     17  C   UNL     1       3.738   4.277  18.932  0.00  0.00    +0.000 C 
BRANCH  17  18
ATOM     18  C   UNL     1       3.846   3.144  17.914  0.00  0.00    +0.000 C 
ATOM     19  C   UNL     1       3.637   1.706  18.351  0.00  0.00    +0.000 C 
ATOM     20  C   UNL     1       2.713   2.322  17.341  0.00  0.00    +0.000 C 
ENDBRANCH  17  18
BRANCH  17  21
ATOM     21  C   UNL     1       3.016   3.966  20.235  0.00  0.00    +0.000 C 
ATOM     22  C   UNL     1       2.145   4.961  20.977  0.00  0.00    +0.000 C 
ATOM     23  C   UNL     1       1.507   3.767  20.332  0.00  0.00    +0.000 C 
ENDBRANCH  17  21
BRANCH  17  24
ATOM     24  C   UNL     1       2.816   5.271  18.244  0.00  0.00    +0.000 C 
ATOM     25  N   UNL     1       2.052   6.095  17.674  0.00  0.00    +0.000 NA
ENDBRANCH  17  24
ENDBRANCH   6  17
TORSDOF 4
ENDMDL
MODEL 5
REMARK VINA RESULT:      -6.9      2.146      3.340
REMARK  Name = 
REMARK  5 active torsions:
REMARK  status: ('A' for Active; 'I' for Inactive)
REMARK    1  A    between atoms: C_1  and  N_2
REMARK    2  A    between atoms: N_6  and  C_7
REMARK    3  A    between atoms: C_7  and  C_8
REMARK    4  A    between atoms: C_7  and  C_10
REMARK    5  A    between atoms: C_7  and  C_13
REMARK                            x       y       z     vdW  Elec       q    Type
REMARK                         _______ _______ _______ _____ _____    ______ ____
ROOT
ATOM      1  C   UNL     1       1.772   8.898  19.027  0.00  0.00    +0.000 C 
ATOM      2  N   UNL     1       2.353   8.306  17.850  0.00  0.00    +0.000 N 
ATOM      3  C   UNL     1       3.101   7.153  18.020  0.00  0.00    +0.000 A 
ATOM      4  N   UNL     1       2.881   6.338  19.049  0.00  0.00    +0.000 NA
ATOM      5  C   UNL     1       3.578   5.214  19.077  0.00  0.00    +0.000 A 
ATOM      6  N   UNL     1       3.354   4.385  20.160  0.00  0.00    +0.000 N 
ATOM      7  N   UNL     1       4.474   4.881  18.163  0.00  0.00    +0.000 NA
ATOM      8  C   UNL     1       4.655   5.771  17.184  0.00  0.00    +0.000 A 
ATOM      9  N   UNL     1       5.638   5.445  16.200  0.00  0.00    +0.000 N 
ATOM     10  C   UNL     1       6.324   4.261  16.100  0.00  0.00    +0.000 A 
ATOM     11  N   UNL     1       7.209   4.320  15.131  0.00  0.00    +0.000 NA
ATOM     12  C   UNL     1       7.019   5.573  14.633  0.00  0.00    +0.000 A 
ATOM     13  N   UNL     1       6.067   6.296  15.226  0.00  0.00    +0.000 NA
ATOM     14  N   UNL     1       4.004   6.928  17.079  0.00  0.00    +0.000 NA
ATOM     15  H   UNL     1       2.864   8.925  17.231  0.00  0.00    +0.000 HD
ATOM     16  H   UNL     1       2.592   4.773  20.693  0.00  0.00    +0.000 HD
ENDROOT
BRANCH   6  17
ATOM     17  C   UNL     1       3.369   2.929  19.977  0.00  0.00    +0.000 C 
BRANCH  17  18
ATOM     18  C   UNL     1       2.085   2.398  20.610  0.00  0.00    +0.000 C 
ATOM     19  C   UNL     1       1.548   3.024  21.883  0.00  0.00    +0.000 C 
ATOM     20  C   UNL     1       0.731   3.069  20.625  0.00  0.00    +0.000 C 
ENDBRANCH  17  18
BRANCH  17  21
ATOM     21  C   UNL     1       3.637   2.538  18.531  0.00  0.00    +0.000 C 
ATOM     22  C   UNL     1       3.659   1.105  18.032  0.00  0.00    +0.000 C 
ATOM     23  C   UNL     1       2.556   2.019  17.587  0.00  0.00    +0.000 C 
ENDBRANCH  17  21
BRANCH  17  24
ATOM     24  C   UNL     1       4.458   2.203  20.749  0.00  0.00    +0.000 C 
ATOM     25  N   UNL     1       5.363   1.602  21.390  0.00  0.00    +0.000 NA
ENDBRANCH  17  24
ENDBRANCH   6  17
TORSDOF 4
ENDMDL
MODEL 6
REMARK VINA RESULT:      -6.6      1.826      2.898
REMARK  Name = 
REMARK  5 active torsions:
REMARK  status: ('A' for Active; 'I' for Inactive)
REMARK    1  A    between atoms: C_1  and  N_2
REMARK    2  A    between atoms: N_6  and  C_7
REMARK    3  A    between atoms: C_7  and  C_8
REMARK    4  A    between atoms: C_7  and  C_10
REMARK    5  A    between atoms: C_7  and  C_13
REMARK                            x       y       z     vdW  Elec       q    Type
REMARK                         _______ _______ _______ _____ _____    ______ ____
ROOT
ATOM      1  C   UNL     1       8.766   5.139  20.856  0.00  0.00    +0.000 C 
ATOM      2  N   UNL     1       8.599   5.493  19.470  0.00  0.00    +0.000 N 
ATOM      3  C   UNL     1       7.409   5.133  18.860  0.00  0.00    +0.000 A 
ATOM      4  N   UNL     1       6.296   4.972  19.570  0.00  0.00    +0.000 NA
ATOM      5  C   UNL     1       5.189   4.721  18.891  0.00  0.00    +0.000 A 
ATOM      6  N   UNL     1       4.042   4.537  19.641  0.00  0.00    +0.000 N 
ATOM      7  N   UNL     1       5.142   4.610  17.574  0.00  0.00    +0.000 NA
ATOM      8  C   UNL     1       6.310   4.755  16.944  0.00  0.00    +0.000 A 
ATOM      9  N   UNL     1       6.289   4.612  15.522  0.00  0.00    +0.000 N 
ATOM     10  C   UNL     1       5.173   4.458  14.738  0.00  0.00    +0.000 A 
ATOM     11  N   UNL     1       5.512   4.275  13.482  0.00  0.00    +0.000 NA
ATOM     12  C   UNL     1       6.871   4.346  13.530  0.00  0.00    +0.000 A 
ATOM     13  N   UNL     1       7.400   4.569  14.734  0.00  0.00    +0.000 NA
ATOM     14  N   UNL     1       7.473   5.002  17.544  0.00  0.00    +0.000 NA
ATOM     15  H   UNL     1       9.360   5.256  18.842  0.00  0.00    +0.000 HD
ATOM     16  H   UNL     1       4.267   4.736  20.603  0.00  0.00    +0.000 HD
ENDROOT
BRANCH   6  17
ATOM     17  C   UNL     1       2.756   5.033  19.139  0.00  0.00    +0.000 C 
BRANCH  17  18
ATOM     18  C   UNL     1       1.726   4.755  20.232  0.00  0.00    +0.000 C 
ATOM     19  C   UNL     1       1.036   3.406  20.302  0.00  0.00    +0.000 C 
ATOM     20  C   UNL     1       1.898   3.865  21.441  0.00  0.00    +0.000 C 
ENDBRANCH  17  18
BRANCH  17  21
ATOM     21  C   UNL     1       2.855   6.465  18.634  0.00  0.00    +0.000 C 
ATOM     22  C   UNL     1       1.697   7.225  18.014  0.00  0.00    +0.000 C 
ATOM     23  C   UNL     1       2.223   7.654  19.352  0.00  0.00    +0.000 C 
ENDBRANCH  17  21
BRANCH  17  24
ATOM     24  C   UNL     1       2.204   4.272  17.945  0.00  0.00    +0.000 C 
ATOM     25  N   UNL     1       1.747   3.641  16.954  0.00  0.00    +0.000 NA
ENDBRANCH  17  24
ENDBRANCH   6  17
TORSDOF 4
ENDMDL
MODEL 7
REMARK VINA RESULT:      -6.6      2.256      3.556
REMARK  Name = 
REMARK  5 active torsions:
REMARK  status: ('A' for Active; 'I' for Inactive)
REMARK    1  A    between atoms: C_1  and  N_2
REMARK    2  A    between atoms: N_6  and  C_7
REMARK    3  A    between atoms: C_7  and  C_8
REMARK    4  A    between atoms: C_7  and  C_10
REMARK    5  A    between atoms: C_7  and  C_13
REMARK                            x       y       z     vdW  Elec       q    Type
REMARK                         _______ _______ _______ _____ _____    ______ ____
ROOT
ATOM      1  C   UNL     1       1.450   9.815  18.854  0.00  0.00    +0.000 C 
ATOM      2  N   UNL     1       2.149   9.115  17.808  0.00  0.00    +0.000 N 
ATOM      3  C   UNL     1       2.749   7.911  18.139  0.00  0.00    +0.000 A 
ATOM      4  N   UNL     1       2.293   7.172  19.147  0.00  0.00    +0.000 NA
ATOM      5  C   UNL     1       2.868   5.995  19.329  0.00  0.00    +0.000 A 
ATOM      6  N   UNL     1       2.399   5.245  20.391  0.00  0.00    +0.000 N 
ATOM      7  N   UNL     1       3.861   5.538  18.584  0.00  0.00    +0.000 NA
ATOM      8  C   UNL     1       4.276   6.357  17.615  0.00  0.00    +0.000 A 
ATOM      9  N   UNL     1       5.366   5.896  16.815  0.00  0.00    +0.000 N 
ATOM     10  C   UNL     1       5.945   4.652  16.870  0.00  0.00    +0.000 A 
ATOM     11  N   UNL     1       6.973   4.584  16.055  0.00  0.00    +0.000 NA
ATOM     12  C   UNL     1       6.983   5.822  15.488  0.00  0.00    +0.000 A 
ATOM     13  N   UNL     1       6.022   6.655  15.892  0.00  0.00    +0.000 NA
ATOM     14  N   UNL     1       3.763   7.560  17.364  0.00  0.00    +0.000 NA
ATOM     15  H   UNL     1       2.808   9.655  17.257  0.00  0.00    +0.000 HD
ATOM     16  H   UNL     1       1.603   5.725  20.780  0.00  0.00    +0.000 HD
ENDROOT
BRANCH   6  17
ATOM     17  C   UNL     1       2.304   3.786  20.266  0.00  0.00    +0.000 C 
BRANCH  17  18
ATOM     18  C   UNL     1       1.243   3.507  19.204  0.00  0.00    +0.000 C 
ATOM     19  C   UNL     1       1.647   2.945  17.854  0.00  0.00    +0.000 C 
ATOM     20  C   UNL     1       0.739   2.156  18.752  0.00  0.00    +0.000 C 
ENDBRANCH  17  18
BRANCH  17  21
ATOM     21  C   UNL     1       3.668   3.141  20.064  0.00  0.00    +0.000 C 
ATOM     22  C   UNL     1       4.161   1.941  20.851  0.00  0.00    +0.000 C 
ATOM     23  C   UNL     1       3.864   1.786  19.389  0.00  0.00    +0.000 C 
ENDBRANCH  17  21
BRANCH  17  24
ATOM     24  C   UNL     1       1.755   3.078  21.494  0.00  0.00    +0.000 C 
ATOM     25  N   UNL     1       1.300   2.490  22.513  0.00  0.00    +0.000 NA
ENDBRANCH  17  24
ENDBRANCH   6  17
TORSDOF 4
ENDMDL
MODEL 8
REMARK VINA RESULT:      -6.6      1.136      2.422
REMARK  Name = 
REMARK  5 active torsions:
REMARK  status: ('A' for Active; 'I' for Inactive)
REMARK    1  A    between atoms: C_1  and  N_2
REMARK    2  A    between atoms: N_6  and  C_7
REMARK    3  A    between atoms: C_7  and  C_8
REMARK    4  A    between atoms: C_7  and  C_10
REMARK    5  A    between atoms: C_7  and  C_13
REMARK                            x       y       z     vdW  Elec       q    Type
REMARK                         _______ _______ _______ _____ _____    ______ ____
ROOT
ATOM      1  C   UNL     1       8.601   8.537  18.789  0.00  0.00    +0.000 C 
ATOM      2  N   UNL     1       8.169   8.193  17.459  0.00  0.00    +0.000 N 
ATOM      3  C   UNL     1       7.287   7.133  17.331  0.00  0.00    +0.000 A 
ATOM      4  N   UNL     1       6.473   6.794  18.327  0.00  0.00    +0.000 NA
ATOM      5  C   UNL     1       5.600   5.831  18.080  0.00  0.00    +0.000 A 
ATOM      6  N   UNL     1       4.773   5.474  19.129  0.00  0.00    +0.000 N 
ATOM      7  N   UNL     1       5.514   5.194  16.925  0.00  0.00    +0.000 NA
ATOM      8  C   UNL     1       6.389   5.576  15.992  0.00  0.00    +0.000 A 
ATOM      9  N   UNL     1       6.334   4.884  14.743  0.00  0.00    +0.000 N 
ATOM     10  C   UNL     1       5.396   3.952  14.373  0.00  0.00    +0.000 A 
ATOM     11  N   UNL     1       5.681   3.453  13.191  0.00  0.00    +0.000 NA
ATOM     12  C   UNL     1       6.811   4.132  12.849  0.00  0.00    +0.000 A 
ATOM     13  N   UNL     1       7.244   5.027  13.739  0.00  0.00    +0.000 NA
ATOM     14  N   UNL     1       7.306   6.530  16.153  0.00  0.00    +0.000 NA
ATOM     15  H   UNL     1       8.891   8.089  16.755  0.00  0.00    +0.000 HD
ATOM     16  H   UNL     1       4.939   6.119  19.885  0.00  0.00    +0.000 HD
ENDROOT
BRANCH   6  17
ATOM     17  C   UNL     1       3.378   5.102  18.862  0.00  0.00    +0.000 C 
BRANCH  17  18
ATOM     18  C   UNL     1       2.831   4.510  20.158  0.00  0.00    +0.000 C 
ATOM     19  C   UNL     1       1.332   4.401  20.372  0.00  0.00    +0.000 C 
ATOM     20  C   UNL     1       2.175   3.160  20.338  0.00  0.00    +0.000 C 
ENDBRANCH  17  18
BRANCH  17  21
ATOM     21  C   UNL     1       2.591   6.246  18.240  0.00  0.00    +0.000 C 
ATOM     22  C   UNL     1       2.235   7.524  18.975  0.00  0.00    +0.000 C 
ATOM     23  C   UNL     1       3.219   7.579  17.844  0.00  0.00    +0.000 C 
ENDBRANCH  17  21
BRANCH  17  24
ATOM     24  C   UNL     1       3.204   3.967  17.865  0.00  0.00    +0.000 C 
ATOM     25  N   UNL     1       3.060   3.026  17.039  0.00  0.00    +0.000 NA
ENDBRANCH  17  24
ENDBRANCH   6  17
TORSDOF 4
ENDMDL
MODEL 9
REMARK VINA RESULT:      -6.6      2.597      6.337
REMARK  Name = 
REMARK  5 active torsions:
REMARK  status: ('A' for Active; 'I' for Inactive)
REMARK    1  A    between atoms: C_1  and  N_2
REMARK    2  A    between atoms: N_6  and  C_7
REMARK    3  A    between atoms: C_7  and  C_8
REMARK    4  A    between atoms: C_7  and  C_10
REMARK    5  A    between atoms: C_7  and  C_13
REMARK                            x       y       z     vdW  Elec       q    Type
REMARK                         _______ _______ _______ _____ _____    ______ ____
ROOT
ATOM      1  C   UNL     1       1.546   2.925  21.424  0.00  0.00    +0.000 C 
ATOM      2  N   UNL     1       1.092   3.965  20.537  0.00  0.00    +0.000 N 
ATOM      3  C   UNL     1       2.049   4.824  20.020  0.00  0.00    +0.000 A 
ATOM      4  N   UNL     1       3.315   4.438  19.886  0.00  0.00    +0.000 NA
ATOM      5  C   UNL     1       4.137   5.291  19.296  0.00  0.00    +0.000 A 
ATOM      6  N   UNL     1       5.453   4.886  19.179  0.00  0.00    +0.000 N 
ATOM      7  N   UNL     1       3.771   6.485  18.862  0.00  0.00    +0.000 NA
ATOM      8  C   UNL     1       2.491   6.803  19.066  0.00  0.00    +0.000 A 
ATOM      9  N   UNL     1       2.078   8.099  18.629  0.00  0.00    +0.000 N 
ATOM     10  C   UNL     1       2.837   8.996  17.919  0.00  0.00    +0.000 A 
ATOM     11  N   UNL     1       2.183  10.122  17.749  0.00  0.00    +0.000 NA
ATOM     12  C   UNL     1       0.993   9.868  18.360  0.00  0.00    +0.000 A 
ATOM     13  N   UNL     1       0.862   8.652  18.895  0.00  0.00    +0.000 NA
ATOM     14  N   UNL     1       1.595   6.012  19.655  0.00  0.00    +0.000 NA
ATOM     15  H   UNL     1       0.304   4.523  20.850  0.00  0.00    +0.000 HD
ATOM     16  H   UNL     1       5.512   3.931  19.495  0.00  0.00    +0.000 HD
ENDROOT
BRANCH   6  17
ATOM     17  C   UNL     1       6.221   5.242  17.980  0.00  0.00    +0.000 C 
BRANCH  17  18
ATOM     18  C   UNL     1       5.445   4.689  16.787  0.00  0.00    +0.000 C 
ATOM     19  C   UNL     1       5.250   5.539  15.545  0.00  0.00    +0.000 C 
ATOM     20  C   UNL     1       6.012   4.249  15.456  0.00  0.00    +0.000 C 
ENDBRANCH  17  18
BRANCH  17  21
ATOM     21  C   UNL     1       6.573   6.723  17.946  0.00  0.00    +0.000 C 
ATOM     22  C   UNL     1       7.892   7.289  18.435  0.00  0.00    +0.000 C 
ATOM     23  C   UNL     1       7.577   7.325  16.969  0.00  0.00    +0.000 C 
ENDBRANCH  17  21
BRANCH  17  24
ATOM     24  C   UNL     1       7.570   4.553  17.862  0.00  0.00    +0.000 C 
ATOM     25  N   UNL     1       8.690   3.983  17.765  0.00  0.00    +0.000 NA
ENDBRANCH  17  24
ENDBRANCH   6  17
TORSDOF 4
ENDMDL
