MODEL 1
REMARK VINA RESULT:      -8.1      0.000      0.000
REMARK  Name = 
REMARK  4 active torsions:
REMARK  status: ('A' for Active; 'I' for Inactive)
REMARK    1  A    between atoms: N_8  and  C_9
REMARK    2  A    between atoms: C_9  and  C_10
REMARK    3  A    between atoms: N_18  and  C_19
REMARK    4  A    between atoms: C_19  and  C_20
REMARK                            x       y       z     vdW  Elec       q    Type
REMARK                         _______ _______ _______ _____ _____    ______ ____
ROOT
ATOM      1  O   UNL     1       8.665   4.065  17.349  0.00  0.00    +0.000 OA
ATOM      2  C   UNL     1       7.544   4.367  17.726  0.00  0.00    +0.000 C 
ATOM      3  N   UNL     1       7.251   4.900  18.937  0.00  0.00    +0.000 N 
ATOM      4  C   UNL     1       5.923   5.105  19.126  0.00  0.00    +0.000 C 
ATOM      5  O   UNL     1       5.430   5.558  20.146  0.00  0.00    +0.000 OA
ATOM      6  C   UNL     1       5.169   4.669  17.880  0.00  0.00    +0.000 C 
ATOM      7  C   UNL     1       6.281   4.299  16.895  0.00  0.00    +0.000 C 
ATOM      8  N   UNL     1       6.219   5.343  15.889  0.00  0.00    +0.000 N 
ATOM      9  C   UNL     1       5.121   6.173  16.079  0.00  0.00    +0.000 C 
ATOM     10  O   UNL     1       4.776   7.087  15.348  0.00  0.00    +0.000 OA
ATOM     11  N   UNL     1       4.452   5.738  17.216  0.00  0.00    +0.000 N 
ATOM     12  H   UNL     1       7.948   5.114  19.634  0.00  0.00    +0.000 HD
ENDROOT
BRANCH   8  13
ATOM     13  C   UNL     1       7.054   5.366  14.704  0.00  0.00    +0.000 C 
BRANCH  13  14
ATOM     14  C   UNL     1       6.535   4.490  13.588  0.00  0.00    +0.000 A 
ATOM     15  C   UNL     1       7.399   4.067  12.564  0.00  0.00    +0.000 A 
ATOM     16  C   UNL     1       6.952   3.207  11.559  0.00  0.00    +0.000 A 
ATOM     17  C   UNL     1       5.633   2.767  11.559  0.00  0.00    +0.000 A 
ATOM     18  C   UNL     1       4.757   3.197  12.556  0.00  0.00    +0.000 A 
ATOM     19  C   UNL     1       5.204   4.057  13.562  0.00  0.00    +0.000 A 
ENDBRANCH  13  14
ENDBRANCH   8  13
BRANCH  11  20
ATOM     20  C   UNL     1       3.077   6.082  17.517  0.00  0.00    +0.000 C 
BRANCH  20  21
ATOM     21  C   UNL     1       2.342   5.096  18.384  0.00  0.00    +0.000 A 
ATOM     22  C   UNL     1       2.091   5.374  19.735  0.00  0.00    +0.000 A 
ATOM     23  C   UNL     1       1.310   4.509  20.507  0.00  0.00    +0.000 A 
ATOM     24  C   UNL     1       0.769   3.361  19.936  0.00  0.00    +0.000 A 
ATOM     25  C   UNL     1       1.018   3.066  18.597  0.00  0.00    +0.000 A 
ATOM     26  C   UNL     1       1.801   3.928  17.826  0.00  0.00    +0.000 A 
ENDBRANCH  20  21
ENDBRANCH  11  20
TORSDOF 4
ENDMDL
MODEL 2
REMARK VINA RESULT:      -8.1      1.667      6.308
REMARK  Name = 
REMARK  4 active torsions:
REMARK  status: ('A' for Active; 'I' for Inactive)
REMARK    1  A    between atoms: N_8  and  C_9
REMARK    2  A    between atoms: C_9  and  C_10
REMARK    3  A    between atoms: N_18  and  C_19
REMARK    4  A    between atoms: C_19  and  C_20
REMARK                            x       y       z     vdW  Elec       q    Type
REMARK                         _______ _______ _______ _____ _____    ______ ____
ROOT
ATOM      1  O   UNL     1       7.271   5.335  20.522  0.00  0.00    +0.000 OA
ATOM      2  C   UNL     1       7.017   5.639  19.367  0.00  0.00    +0.000 C 
ATOM      3  N   UNL     1       7.936   6.027  18.448  0.00  0.00    +0.000 N 
ATOM      4  C   UNL     1       7.390   6.350  17.248  0.00  0.00    +0.000 C 
ATOM      5  O   UNL     1       8.025   6.741  16.282  0.00  0.00    +0.000 OA
ATOM      6  C   UNL     1       5.884   6.159  17.317  0.00  0.00    +0.000 C 
ATOM      7  C   UNL     1       5.659   5.553  18.705  0.00  0.00    +0.000 C 
ATOM      8  N   UNL     1       5.259   4.185  18.430  0.00  0.00    +0.000 N 
ATOM      9  C   UNL     1       5.072   3.971  17.070  0.00  0.00    +0.000 C 
ATOM     10  O   UNL     1       4.666   2.943  16.554  0.00  0.00    +0.000 OA
ATOM     11  N   UNL     1       5.371   5.155  16.408  0.00  0.00    +0.000 N 
ATOM     12  H   UNL     1       8.925   6.079  18.638  0.00  0.00    +0.000 HD
ENDROOT
BRANCH   8  13
ATOM     13  C   UNL     1       4.871   3.240  19.458  0.00  0.00    +0.000 C 
BRANCH  13  14
ATOM     14  C   UNL     1       3.383   3.215  19.718  0.00  0.00    +0.000 A 
ATOM     15  C   UNL     1       2.782   4.233  20.478  0.00  0.00    +0.000 A 
ATOM     16  C   UNL     1       1.401   4.260  20.675  0.00  0.00    +0.000 A 
ATOM     17  C   UNL     1       0.602   3.263  20.125  0.00  0.00    +0.000 A 
ATOM     18  C   UNL     1       1.186   2.232  19.388  0.00  0.00    +0.000 A 
ATOM     19  C   UNL     1       2.569   2.206  19.189  0.00  0.00    +0.000 A 
ENDBRANCH  13  14
ENDBRANCH   8  13
BRANCH  11  20
ATOM     20  C   UNL     1       4.932   5.452  15.060  0.00  0.00    +0.000 C 
BRANCH  20  21
ATOM     21  C   UNL     1       5.671   4.726  13.968  0.00  0.00    +0.000 A 
ATOM     22  C   UNL     1       5.023   3.767  13.176  0.00  0.00    +0.000 A 
ATOM     23  C   UNL     1       5.679   3.179  12.092  0.00  0.00    +0.000 A 
ATOM     24  C   UNL     1       6.986   3.546  11.784  0.00  0.00    +0.000 A 
ATOM     25  C   UNL     1       7.646   4.490  12.567  0.00  0.00    +0.000 A 
ATOM     26  C   UNL     1       6.993   5.075  13.653  0.00  0.00    +0.000 A 
ENDBRANCH  20  21
ENDBRANCH  11  20
TORSDOF 4
ENDMDL
MODEL 3
REMARK VINA RESULT:      -7.7      1.665      6.220
REMARK  Name = 
REMARK  4 active torsions:
REMARK  status: ('A' for Active; 'I' for Inactive)
REMARK    1  A    between atoms: N_8  and  C_9
REMARK    2  A    between atoms: C_9  and  C_10
REMARK    3  A    between atoms: N_18  and  C_19
REMARK    4  A    between atoms: C_19  and  C_20
REMARK                            x       y       z     vdW  Elec       q    Type
REMARK                         _______ _______ _______ _____ _____    ______ ____
ROOT
ATOM      1  O   UNL     1       7.276   5.254  20.516  0.00  0.00    +0.000 OA
ATOM      2  C   UNL     1       7.030   5.614  19.376  0.00  0.00    +0.000 C 
ATOM      3  N   UNL     1       7.956   6.037  18.480  0.00  0.00    +0.000 N 
ATOM      4  C   UNL     1       7.419   6.421  17.295  0.00  0.00    +0.000 C 
ATOM      5  O   UNL     1       8.061   6.853  16.351  0.00  0.00    +0.000 OA
ATOM      6  C   UNL     1       5.910   6.241  17.349  0.00  0.00    +0.000 C 
ATOM      7  C   UNL     1       5.674   5.571  18.705  0.00  0.00    +0.000 C 
ATOM      8  N   UNL     1       5.263   4.222  18.364  0.00  0.00    +0.000 N 
ATOM      9  C   UNL     1       5.081   4.074  16.994  0.00  0.00    +0.000 C 
ATOM     10  O   UNL     1       4.667   3.075  16.429  0.00  0.00    +0.000 OA
ATOM     11  N   UNL     1       5.393   5.286  16.391  0.00  0.00    +0.000 N 
ATOM     12  H   UNL     1       8.945   6.071  18.677  0.00  0.00    +0.000 HD
ENDROOT
BRANCH   8  13
ATOM     13  C   UNL     1       4.863   3.232  19.345  0.00  0.00    +0.000 C 
BRANCH  13  14
ATOM     14  C   UNL     1       3.377   3.227  19.617  0.00  0.00    +0.000 A 
ATOM     15  C   UNL     1       2.560   2.233  19.052  0.00  0.00    +0.000 A 
ATOM     16  C   UNL     1       1.197   2.176  19.343  0.00  0.00    +0.000 A 
ATOM     17  C   UNL     1       0.628   3.117  20.194  0.00  0.00    +0.000 A 
ATOM     18  C   UNL     1       1.422   4.124  20.745  0.00  0.00    +0.000 A 
ATOM     19  C   UNL     1       2.787   4.182  20.455  0.00  0.00    +0.000 A 
ENDBRANCH  13  14
ENDBRANCH   8  13
BRANCH  11  20
ATOM     20  C   UNL     1       4.962   5.650  15.056  0.00  0.00    +0.000 C 
BRANCH  20  21
ATOM     21  C   UNL     1       5.681   4.949  13.934  0.00  0.00    +0.000 A 
ATOM     22  C   UNL     1       7.037   5.201  13.682  0.00  0.00    +0.000 A 
ATOM     23  C   UNL     1       7.729   4.467  12.716  0.00  0.00    +0.000 A 
ATOM     24  C   UNL     1       7.076   3.471  11.995  0.00  0.00    +0.000 A 
ATOM     25  C   UNL     1       5.726   3.216  12.228  0.00  0.00    +0.000 A 
ATOM     26  C   UNL     1       5.032   3.952  13.191  0.00  0.00    +0.000 A 
ENDBRANCH  20  21
ENDBRANCH  11  20
TORSDOF 4
ENDMDL
MODEL 4
REMARK VINA RESULT:      -7.7      1.571      2.049
REMARK  Name = 
REMARK  4 active torsions:
REMARK  status: ('A' for Active; 'I' for Inactive)
REMARK    1  A    between atoms: N_8  and  C_9
REMARK    2  A    between atoms: C_9  and  C_10
REMARK    3  A    between atoms: N_18  and  C_19
REMARK    4  A    between atoms: C_19  and  C_20
REMARK                            x       y       z     vdW  Elec       q    Type
REMARK                         _______ _______ _______ _____ _____    ______ ____
ROOT
ATOM      1  O   UNL     1       8.004   7.119  16.294  0.00  0.00    +0.000 OA
ATOM      2  C   UNL     1       7.590   6.322  17.120  0.00  0.00    +0.000 C 
ATOM      3  N   UNL     1       7.588   6.526  18.461  0.00  0.00    +0.000 N 
ATOM      4  C   UNL     1       7.112   5.467  19.164  0.00  0.00    +0.000 C 
ATOM      5  O   UNL     1       7.036   5.422  20.381  0.00  0.00    +0.000 OA
ATOM      6  C   UNL     1       6.714   4.365  18.196  0.00  0.00    +0.000 C 
ATOM      7  C   UNL     1       6.914   5.002  16.819  0.00  0.00    +0.000 C 
ATOM      8  N   UNL     1       5.565   5.170  16.310  0.00  0.00    +0.000 N 
ATOM      9  C   UNL     1       4.627   4.572  17.142  0.00  0.00    +0.000 C 
ATOM     10  O   UNL     1       3.428   4.490  16.931  0.00  0.00    +0.000 OA
ATOM     11  N   UNL     1       5.305   4.030  18.227  0.00  0.00    +0.000 N 
ATOM     12  H   UNL     1       7.916   7.376  18.894  0.00  0.00    +0.000 HD
ENDROOT
BRANCH   8  13
ATOM     13  C   UNL     1       5.264   5.681  14.987  0.00  0.00    +0.000 C 
BRANCH  13  14
ATOM     14  C   UNL     1       5.837   4.836  13.874  0.00  0.00    +0.000 A 
ATOM     15  C   UNL     1       5.079   3.792  13.319  0.00  0.00    +0.000 A 
ATOM     16  C   UNL     1       5.568   3.042  12.248  0.00  0.00    +0.000 A 
ATOM     17  C   UNL     1       6.826   3.319  11.724  0.00  0.00    +0.000 A 
ATOM     18  C   UNL     1       7.601   4.338  12.280  0.00  0.00    +0.000 A 
ATOM     19  C   UNL     1       7.112   5.089  13.351  0.00  0.00    +0.000 A 
ENDBRANCH  13  14
ENDBRANCH   8  13
BRANCH  11  20
ATOM     20  C   UNL     1       4.747   3.009  19.091  0.00  0.00    +0.000 C 
BRANCH  20  21
ATOM     21  C   UNL     1       3.383   3.314  19.650  0.00  0.00    +0.000 A 
ATOM     22  C   UNL     1       3.137   4.518  20.326  0.00  0.00    +0.000 A 
ATOM     23  C   UNL     1       1.845   4.847  20.743  0.00  0.00    +0.000 A 
ATOM     24  C   UNL     1       0.786   3.981  20.485  0.00  0.00    +0.000 A 
ATOM     25  C   UNL     1       1.017   2.778  19.823  0.00  0.00    +0.000 A 
ATOM     26  C   UNL     1       2.309   2.445  19.409  0.00  0.00    +0.000 A 
ENDBRANCH  20  21
ENDBRANCH  11  20
TORSDOF 4
ENDMDL
MODEL 5
REMARK VINA RESULT:      -7.2      1.743      6.770
REMARK  Name = 
REMARK  4 active torsions:
REMARK  status: ('A' for Active; 'I' for Inactive)
REMARK    1  A    between atoms: N_8  and  C_9
REMARK    2  A    between atoms: C_9  and  C_10
REMARK    3  A    between atoms: N_18  and  C_19
REMARK    4  A    between atoms: C_19  and  C_20
REMARK                            x       y       z     vdW  Elec       q    Type
REMARK                         _______ _______ _______ _____ _____    ______ ____
ROOT
ATOM      1  O   UNL     1       2.979   7.866  18.251  0.00  0.00    +0.000 OA
ATOM      2  C   UNL     1       3.907   7.283  17.714  0.00  0.00    +0.000 C 
ATOM      3  N   UNL     1       5.216   7.471  18.013  0.00  0.00    +0.000 N 
ATOM      4  C   UNL     1       6.053   6.731  17.242  0.00  0.00    +0.000 C 
ATOM      5  O   UNL     1       7.271   6.754  17.323  0.00  0.00    +0.000 OA
ATOM      6  C   UNL     1       5.232   5.900  16.270  0.00  0.00    +0.000 C 
ATOM      7  C   UNL     1       3.786   6.179  16.687  0.00  0.00    +0.000 C 
ATOM      8  N   UNL     1       3.340   4.925  17.266  0.00  0.00    +0.000 N 
ATOM      9  C   UNL     1       4.283   3.918  17.096  0.00  0.00    +0.000 C 
ATOM     10  O   UNL     1       4.150   2.748  17.414  0.00  0.00    +0.000 OA
ATOM     11  N   UNL     1       5.379   4.469  16.443  0.00  0.00    +0.000 N 
ATOM     12  H   UNL     1       5.538   8.102  18.730  0.00  0.00    +0.000 HD
ENDROOT
BRANCH   8  13
ATOM     13  C   UNL     1       1.990   4.696  17.742  0.00  0.00    +0.000 C 
BRANCH  13  14
ATOM     14  C   UNL     1       1.936   4.126  19.140  0.00  0.00    +0.000 A 
ATOM     15  C   UNL     1       2.523   4.823  20.209  0.00  0.00    +0.000 A 
ATOM     16  C   UNL     1       2.429   4.342  21.516  0.00  0.00    +0.000 A 
ATOM     17  C   UNL     1       1.756   3.152  21.771  0.00  0.00    +0.000 A 
ATOM     18  C   UNL     1       1.188   2.436  20.716  0.00  0.00    +0.000 A 
ATOM     19  C   UNL     1       1.281   2.917  19.408  0.00  0.00    +0.000 A 
ENDBRANCH  13  14
ENDBRANCH   8  13
BRANCH  11  20
ATOM     20  C   UNL     1       6.376   3.680  15.748  0.00  0.00    +0.000 C 
BRANCH  20  21
ATOM     21  C   UNL     1       6.608   4.060  14.310  0.00  0.00    +0.000 A 
ATOM     22  C   UNL     1       7.550   5.042  13.969  0.00  0.00    +0.000 A 
ATOM     23  C   UNL     1       7.845   5.310  12.630  0.00  0.00    +0.000 A 
ATOM     24  C   UNL     1       7.207   4.597  11.618  0.00  0.00    +0.000 A 
ATOM     25  C   UNL     1       6.263   3.625  11.942  0.00  0.00    +0.000 A 
ATOM     26  C   UNL     1       5.964   3.359  13.279  0.00  0.00    +0.000 A 
ENDBRANCH  20  21
ENDBRANCH  11  20
TORSDOF 4
ENDMDL
MODEL 6
REMARK VINA RESULT:      -7.2      2.714      4.456
REMARK  Name = 
REMARK  4 active torsions:
REMARK  status: ('A' for Active; 'I' for Inactive)
REMARK    1  A    between atoms: N_8  and  C_9
REMARK    2  A    between atoms: C_9  and  C_10
REMARK    3  A    between atoms: N_18  and  C_19
REMARK    4  A    between atoms: C_19  and  C_20
REMARK                            x       y       z     vdW  Elec       q    Type
REMARK                         _______ _______ _______ _____ _____    ______ ____
ROOT
ATOM      1  O   UNL     1       3.690   0.993  18.147  0.00  0.00    +0.000 OA
ATOM      2  C   UNL     1       3.044   1.870  18.700  0.00  0.00    +0.000 C 
ATOM      3  N   UNL     1       2.261   1.683  19.791  0.00  0.00    +0.000 N 
ATOM      4  C   UNL     1       1.616   2.811  20.186  0.00  0.00    +0.000 C 
ATOM      5  O   UNL     1       0.847   2.873  21.131  0.00  0.00    +0.000 OA
ATOM      6  C   UNL     1       1.996   3.954  19.259  0.00  0.00    +0.000 C 
ATOM      7  C   UNL     1       3.060   3.340  18.345  0.00  0.00    +0.000 C 
ATOM      8  N   UNL     1       4.290   3.997  18.748  0.00  0.00    +0.000 N 
ATOM      9  C   UNL     1       4.050   5.017  19.661  0.00  0.00    +0.000 C 
ATOM     10  O   UNL     1       4.882   5.785  20.115  0.00  0.00    +0.000 OA
ATOM     11  N   UNL     1       2.684   5.046  19.916  0.00  0.00    +0.000 N 
ATOM     12  H   UNL     1       2.159   0.796  20.258  0.00  0.00    +0.000 HD
ENDROOT
BRANCH   8  13
ATOM     13  C   UNL     1       5.568   3.777  18.099  0.00  0.00    +0.000 C 
BRANCH  13  14
ATOM     14  C   UNL     1       5.639   4.355  16.705  0.00  0.00    +0.000 A 
ATOM     15  C   UNL     1       6.014   3.542  15.623  0.00  0.00    +0.000 A 
ATOM     16  C   UNL     1       6.024   4.042  14.320  0.00  0.00    +0.000 A 
ATOM     17  C   UNL     1       5.670   5.366  14.082  0.00  0.00    +0.000 A 
ATOM     18  C   UNL     1       5.318   6.193  15.150  0.00  0.00    +0.000 A 
ATOM     19  C   UNL     1       5.306   5.692  16.454  0.00  0.00    +0.000 A 
ENDBRANCH  13  14
ENDBRANCH   8  13
BRANCH  11  20
ATOM     20  C   UNL     1       2.001   6.187  20.490  0.00  0.00    +0.000 C 
BRANCH  20  21
ATOM     21  C   UNL     1       1.983   7.425  19.633  0.00  0.00    +0.000 A 
ATOM     22  C   UNL     1       2.482   7.399  18.323  0.00  0.00    +0.000 A 
ATOM     23  C   UNL     1       2.360   8.516  17.493  0.00  0.00    +0.000 A 
ATOM     24  C   UNL     1       1.733   9.668  17.961  0.00  0.00    +0.000 A 
ATOM     25  C   UNL     1       1.241   9.711  19.263  0.00  0.00    +0.000 A 
ATOM     26  C   UNL     1       1.367   8.597  20.095  0.00  0.00    +0.000 A 
ENDBRANCH  20  21
ENDBRANCH  11  20
TORSDOF 4
ENDMDL
MODEL 7
REMARK VINA RESULT:      -7.2      3.307      5.171
REMARK  Name = 
REMARK  4 active torsions:
REMARK  status: ('A' for Active; 'I' for Inactive)
REMARK    1  A    between atoms: N_8  and  C_9
REMARK    2  A    between atoms: C_9  and  C_10
REMARK    3  A    between atoms: N_18  and  C_19
REMARK    4  A    between atoms: C_19  and  C_20
REMARK                            x       y       z     vdW  Elec       q    Type
REMARK                         _______ _______ _______ _____ _____    ______ ____
ROOT
ATOM      1  O   UNL     1       3.688   1.231  17.601  0.00  0.00    +0.000 OA
ATOM      2  C   UNL     1       3.025   2.045  18.224  0.00  0.00    +0.000 C 
ATOM      3  N   UNL     1       2.219   1.747  19.273  0.00  0.00    +0.000 N 
ATOM      4  C   UNL     1       1.559   2.827  19.765  0.00  0.00    +0.000 C 
ATOM      5  O   UNL     1       0.768   2.790  20.694  0.00  0.00    +0.000 OA
ATOM      6  C   UNL     1       1.952   4.058  18.966  0.00  0.00    +0.000 C 
ATOM      7  C   UNL     1       3.039   3.544  18.019  0.00  0.00    +0.000 C 
ATOM      8  N   UNL     1       4.255   4.163  18.514  0.00  0.00    +0.000 N 
ATOM      9  C   UNL     1       3.989   5.085  19.519  0.00  0.00    +0.000 C 
ATOM     10  O   UNL     1       4.806   5.806  20.066  0.00  0.00    +0.000 OA
ATOM     11  N   UNL     1       2.618   5.082  19.745  0.00  0.00    +0.000 N 
ATOM     12  H   UNL     1       2.113   0.817  19.647  0.00  0.00    +0.000 HD
ENDROOT
BRANCH   8  13
ATOM     13  C   UNL     1       5.548   4.015  17.875  0.00  0.00    +0.000 C 
BRANCH  13  14
ATOM     14  C   UNL     1       6.322   5.309  17.781  0.00  0.00    +0.000 A 
ATOM     15  C   UNL     1       5.872   6.340  16.940  0.00  0.00    +0.000 A 
ATOM     16  C   UNL     1       6.539   7.565  16.889  0.00  0.00    +0.000 A 
ATOM     17  C   UNL     1       7.672   7.772  17.668  0.00  0.00    +0.000 A 
ATOM     18  C   UNL     1       8.145   6.748  18.491  0.00  0.00    +0.000 A 
ATOM     19  C   UNL     1       7.477   5.523  18.544  0.00  0.00    +0.000 A 
ENDBRANCH  13  14
ENDBRANCH   8  13
BRANCH  11  20
ATOM     20  C   UNL     1       1.915   6.157  20.415  0.00  0.00    +0.000 C 
BRANCH  20  21
ATOM     21  C   UNL     1       1.878   7.465  19.671  0.00  0.00    +0.000 A 
ATOM     22  C   UNL     1       2.354   7.556  18.355  0.00  0.00    +0.000 A 
ATOM     23  C   UNL     1       2.214   8.741  17.628  0.00  0.00    +0.000 A 
ATOM     24  C   UNL     1       1.593   9.845  18.207  0.00  0.00    +0.000 A 
ATOM     25  C   UNL     1       1.125   9.772  19.517  0.00  0.00    +0.000 A 
ATOM     26  C   UNL     1       1.268   8.590  20.245  0.00  0.00    +0.000 A 
ENDBRANCH  20  21
ENDBRANCH  11  20
TORSDOF 4
ENDMDL
MODEL 8
REMARK VINA RESULT:      -7.0      2.715      4.364
REMARK  Name = 
REMARK  4 active torsions:
REMARK  status: ('A' for Active; 'I' for Inactive)
REMARK    1  A    between atoms: N_8  and  C_9
REMARK    2  A    between atoms: C_9  and  C_10
REMARK    3  A    between atoms: N_18  and  C_19
REMARK    4  A    between atoms: C_19  and  C_20
REMARK                            x       y       z     vdW  Elec       q    Type
REMARK                         _______ _______ _______ _____ _____    ______ ____
ROOT
ATOM      1  O   UNL     1       3.337   1.230  17.540  0.00  0.00    +0.000 OA
ATOM      2  C   UNL     1       2.768   2.105  18.174  0.00  0.00    +0.000 C 
ATOM      3  N   UNL     1       1.921   1.885  19.210  0.00  0.00    +0.000 N 
ATOM      4  C   UNL     1       1.387   3.025  19.717  0.00  0.00    +0.000 C 
ATOM      5  O   UNL     1       0.588   3.065  20.638  0.00  0.00    +0.000 OA
ATOM      6  C   UNL     1       1.931   4.216  18.946  0.00  0.00    +0.000 C 
ATOM      7  C   UNL     1       2.961   3.596  17.998  0.00  0.00    +0.000 C 
ATOM      8  N   UNL     1       4.236   4.057  18.516  0.00  0.00    +0.000 N 
ATOM      9  C   UNL     1       4.069   4.985  19.536  0.00  0.00    +0.000 C 
ATOM     10  O   UNL     1       4.959   5.595  20.105  0.00  0.00    +0.000 OA
ATOM     11  N   UNL     1       2.705   5.140  19.750  0.00  0.00    +0.000 N 
ATOM     12  H   UNL     1       1.703   0.966  19.563  0.00  0.00    +0.000 HD
ENDROOT
BRANCH   8  13
ATOM     13  C   UNL     1       5.509   3.769  17.885  0.00  0.00    +0.000 C 
BRANCH  13  14
ATOM     14  C   UNL     1       5.625   4.329  16.486  0.00  0.00    +0.000 A 
ATOM     15  C   UNL     1       5.997   3.493  15.421  0.00  0.00    +0.000 A 
ATOM     16  C   UNL     1       6.048   3.979  14.113  0.00  0.00    +0.000 A 
ATOM     17  C   UNL     1       5.739   5.310  13.854  0.00  0.00    +0.000 A 
ATOM     18  C   UNL     1       5.391   6.159  14.906  0.00  0.00    +0.000 A 
ATOM     19  C   UNL     1       5.339   5.673  16.215  0.00  0.00    +0.000 A 
ENDBRANCH  13  14
ENDBRANCH   8  13
BRANCH  11  20
ATOM     20  C   UNL     1       2.126   6.277  20.436  0.00  0.00    +0.000 C 
BRANCH  20  21
ATOM     21  C   UNL     1       1.913   7.501  19.586  0.00  0.00    +0.000 A 
ATOM     22  C   UNL     1       1.215   8.610  20.085  0.00  0.00    +0.000 A 
ATOM     23  C   UNL     1       1.118   9.785  19.335  0.00  0.00    +0.000 A 
ATOM     24  C   UNL     1       1.721   9.867  18.083  0.00  0.00    +0.000 A 
ATOM     25  C   UNL     1       2.410   8.770  17.571  0.00  0.00    +0.000 A 
ATOM     26  C   UNL     1       2.504   7.593  18.317  0.00  0.00    +0.000 A 
ENDBRANCH  20  21
ENDBRANCH  11  20
TORSDOF 4
ENDMDL
MODEL 9
REMARK VINA RESULT:      -7.0      1.872      2.624
REMARK  Name = 
REMARK  4 active torsions:
REMARK  status: ('A' for Active; 'I' for Inactive)
REMARK    1  A    between atoms: N_8  and  C_9
REMARK    2  A    between atoms: C_9  and  C_10
REMARK    3  A    between atoms: N_18  and  C_19
REMARK    4  A    between atoms: C_19  and  C_20
REMARK                            x       y       z     vdW  Elec       q    Type
REMARK                         _______ _______ _______ _____ _____    ______ ____
ROOT
ATOM      1  O   UNL     1       7.233   7.355  16.792  0.00  0.00    +0.000 OA
ATOM      2  C   UNL     1       6.098   7.094  17.159  0.00  0.00    +0.000 C 
ATOM      3  N   UNL     1       5.025   7.908  16.997  0.00  0.00    +0.000 N 
ATOM      4  C   UNL     1       3.884   7.402  17.531  0.00  0.00    +0.000 C 
ATOM      5  O   UNL     1       2.804   7.970  17.519  0.00  0.00    +0.000 OA
ATOM      6  C   UNL     1       4.181   6.045  18.148  0.00  0.00    +0.000 C 
ATOM      7  C   UNL     1       5.643   5.788  17.774  0.00  0.00    +0.000 C 
ATOM      8  N   UNL     1       5.572   4.710  16.804  0.00  0.00    +0.000 N 
ATOM      9  C   UNL     1       4.282   4.208  16.689  0.00  0.00    +0.000 C 
ATOM     10  O   UNL     1       3.939   3.256  16.009  0.00  0.00    +0.000 OA
ATOM     11  N   UNL     1       3.462   4.946  17.535  0.00  0.00    +0.000 N 
ATOM     12  H   UNL     1       5.071   8.802  16.535  0.00  0.00    +0.000 HD
ENDROOT
BRANCH   8  13
ATOM     13  C   UNL     1       6.739   4.082  16.217  0.00  0.00    +0.000 C 
BRANCH  13  14
ATOM     14  C   UNL     1       6.838   4.280  14.722  0.00  0.00    +0.000 A 
ATOM     15  C   UNL     1       7.675   5.277  14.196  0.00  0.00    +0.000 A 
ATOM     16  C   UNL     1       7.826   5.433  12.818  0.00  0.00    +0.000 A 
ATOM     17  C   UNL     1       7.133   4.600  11.945  0.00  0.00    +0.000 A 
ATOM     18  C   UNL     1       6.279   3.620  12.452  0.00  0.00    +0.000 A 
ATOM     19  C   UNL     1       6.128   3.463  13.832  0.00  0.00    +0.000 A 
ENDBRANCH  13  14
ENDBRANCH   8  13
BRANCH  11  20
ATOM     20  C   UNL     1       2.164   4.492  17.989  0.00  0.00    +0.000 C 
BRANCH  20  21
ATOM     21  C   UNL     1       2.169   3.707  19.273  0.00  0.00    +0.000 A 
ATOM     22  C   UNL     1       3.304   2.984  19.669  0.00  0.00    +0.000 A 
ATOM     23  C   UNL     1       3.346   2.352  20.914  0.00  0.00    +0.000 A 
ATOM     24  C   UNL     1       2.258   2.438  21.778  0.00  0.00    +0.000 A 
ATOM     25  C   UNL     1       1.120   3.144  21.394  0.00  0.00    +0.000 A 
ATOM     26  C   UNL     1       1.075   3.773  20.149  0.00  0.00    +0.000 A 
ENDBRANCH  20  21
ENDBRANCH  11  20
TORSDOF 4
ENDMDL
