MODEL 1
REMARK VINA RESULT:      -7.9      0.000      0.000
REMARK  Name = 
REMARK  10 active torsions:
REMARK  status: ('A' for Active; 'I' for Inactive)
REMARK    1  A    between atoms: C_1  and  C_2
REMARK    2  A    between atoms: C_2  and  O_4
REMARK    3  A    between atoms: O_4  and  C_5
REMARK    4  A    between atoms: C_5  and  C_6
REMARK    5  A    between atoms: C_6  and  O_7
REMARK    6  A    between atoms: O_7  and  C_8
REMARK    7  A    between atoms: C_8  and  N_9
REMARK    8  A    between atoms: C_11  and  C_12
REMARK    9  A    between atoms: C_16  and  S_17
REMARK   10  A    between atoms: S_17  and  C_18
REMARK                            x       y       z     vdW  Elec       q    Type
REMARK                         _______ _______ _______ _____ _____    ______ ____
ROOT
ATOM      1  N   UNL     1       3.889   4.972  19.064  0.00  0.00    +0.000 N 
ATOM      2  N   UNL     1       3.332   3.819  19.500  0.00  0.00    +0.000 NA
ATOM      3  C   UNL     1       2.077   3.915  19.025  0.00  0.00    +0.000 A 
ATOM      4  N   UNL     1       1.839   5.078  18.308  0.00  0.00    +0.000 NA
ATOM      5  C   UNL     1       2.979   5.724  18.376  0.00  0.00    +0.000 A 
ENDROOT
BRANCH   3   6
ATOM      6  C   UNL     1       1.019   2.913  19.240  0.00  0.00    +0.000 C 
ATOM      7  N   UNL     1       0.585   2.844  20.536  0.00  0.00    +0.000 N 
ATOM      8  O   UNL     1       0.545   2.182  18.375  0.00  0.00    +0.000 OA
ATOM      9  H   UNL     1       0.990   3.457  21.236  0.00  0.00    +0.000 HD
ATOM     10  H   UNL     1      -0.132   2.179  20.784  0.00  0.00    +0.000 HD
ENDBRANCH   3   6
BRANCH   1  11
ATOM     11  C   UNL     1       5.259   5.279  19.433  0.00  0.00    +0.000 C 
BRANCH  11  12
ATOM     12  O   UNL     1       6.182   4.317  18.913  0.00  0.00    +0.000 OA
BRANCH  12  13
ATOM     13  C   UNL     1       7.334   4.857  18.260  0.00  0.00    +0.000 C 
BRANCH  13  14
ATOM     14  C   UNL     1       7.399   4.580  16.758  0.00  0.00    +0.000 C 
BRANCH  14  15
ATOM     15  O   UNL     1       6.092   4.317  16.229  0.00  0.00    +0.000 OA
BRANCH  15  17
ATOM     16  C   UNL     1       5.885   4.006  13.919  0.00  0.00    +0.000 C 
ATOM     17  C   UNL     1       5.791   4.960  15.068  0.00  0.00    +0.000 C 
ATOM     18  O   UNL     1       5.507   6.143  14.967  0.00  0.00    +0.000 OA
ENDBRANCH  15  17
ENDBRANCH  14  15
ENDBRANCH  13  14
ENDBRANCH  12  13
ENDBRANCH  11  12
ENDBRANCH   1  11
BRANCH   5  19
ATOM     19  S   UNL     1       3.308   7.267  17.678  0.00  0.00    +0.000 S 
BRANCH  19  20
ATOM     20  C   UNL     1       2.106   8.271  18.546  0.00  0.00    +0.000 A 
ATOM     21  C   UNL     1       1.378   9.286  17.919  0.00  0.00    +0.000 A 
ATOM     22  C   UNL     1       0.513  10.104  18.656  0.00  0.00    +0.000 A 
ATOM     23  C   UNL     1       0.366   9.930  20.042  0.00  0.00    +0.000 A 
ATOM     24  C   UNL     1      -0.468  10.763  20.809  0.00  0.00    +0.000 A 
ATOM     25  C   UNL     1      -0.607  10.565  22.184  0.00  0.00    +0.000 A 
ATOM     26  C   UNL     1       0.081   9.529  22.809  0.00  0.00    +0.000 A 
ATOM     27  C   UNL     1       0.924   8.703  22.064  0.00  0.00    +0.000 A 
ATOM     28  C   UNL     1       1.083   8.895  20.682  0.00  0.00    +0.000 A 
ATOM     29  C   UNL     1       1.952   8.085  19.926  0.00  0.00    +0.000 A 
ENDBRANCH  19  20
ENDBRANCH   5  19
TORSDOF 9
ENDMDL
MODEL 2
REMARK VINA RESULT:      -7.8      1.046      1.733
REMARK  Name = 
REMARK  10 active torsions:
REMARK  status: ('A' for Active; 'I' for Inactive)
REMARK    1  A    between atoms: C_1  and  C_2
REMARK    2  A    between atoms: C_2  and  O_4
REMARK    3  A    between atoms: O_4  and  C_5
REMARK    4  A    between atoms: C_5  and  C_6
REMARK    5  A    between atoms: C_6  and  O_7
REMARK    6  A    between atoms: O_7  and  C_8
REMARK    7  A    between atoms: C_8  and  N_9
REMARK    8  A    between atoms: C_11  and  C_12
REMARK    9  A    between atoms: C_16  and  S_17
REMARK   10  A    between atoms: S_17  and  C_18
REMARK                            x       y       z     vdW  Elec       q    Type
REMARK                         _______ _______ _______ _____ _____    ______ ____
ROOT
ATOM      1  N   UNL     1       4.164   4.932  18.825  0.00  0.00    +0.000 N 
ATOM      2  N   UNL     1       3.756   3.676  19.122  0.00  0.00    +0.000 NA
ATOM      3  C   UNL     1       2.549   3.625  18.530  0.00  0.00    +0.000 A 
ATOM      4  N   UNL     1       2.198   4.796  17.874  0.00  0.00    +0.000 NA
ATOM      5  C   UNL     1       3.213   5.594  18.102  0.00  0.00    +0.000 A 
ENDROOT
BRANCH   3   6
ATOM      6  C   UNL     1       1.644   2.463  18.568  0.00  0.00    +0.000 C 
ATOM      7  N   UNL     1       2.287   1.274  18.786  0.00  0.00    +0.000 N 
ATOM      8  O   UNL     1       0.427   2.504  18.416  0.00  0.00    +0.000 OA
ATOM      9  H   UNL     1       3.294   1.262  18.908  0.00  0.00    +0.000 HD
ATOM     10  H   UNL     1       1.752   0.421  18.818  0.00  0.00    +0.000 HD
ENDBRANCH   3   6
BRANCH   1  11
ATOM     11  C   UNL     1       5.431   5.406  19.351  0.00  0.00    +0.000 C 
BRANCH  11  12
ATOM     12  O   UNL     1       6.531   4.613  18.895  0.00  0.00    +0.000 OA
BRANCH  12  13
ATOM     13  C   UNL     1       7.648   5.344  18.382  0.00  0.00    +0.000 C 
BRANCH  13  14
ATOM     14  C   UNL     1       7.298   6.343  17.280  0.00  0.00    +0.000 C 
BRANCH  14  15
ATOM     15  O   UNL     1       7.344   5.720  15.989  0.00  0.00    +0.000 OA
BRANCH  15  17
ATOM     16  C   UNL     1       5.862   3.991  15.450  0.00  0.00    +0.000 C 
ATOM     17  C   UNL     1       6.134   5.463  15.422  0.00  0.00    +0.000 C 
ATOM     18  O   UNL     1       5.386   6.299  14.940  0.00  0.00    +0.000 OA
ENDBRANCH  15  17
ENDBRANCH  14  15
ENDBRANCH  13  14
ENDBRANCH  12  13
ENDBRANCH  11  12
ENDBRANCH   1  11
BRANCH   5  19
ATOM     19  S   UNL     1       3.360   7.222  17.549  0.00  0.00    +0.000 S 
BRANCH  19  20
ATOM     20  C   UNL     1       2.336   8.061  18.756  0.00  0.00    +0.000 A 
ATOM     21  C   UNL     1       2.102   7.545  20.033  0.00  0.00    +0.000 A 
ATOM     22  C   UNL     1       1.224   8.191  20.914  0.00  0.00    +0.000 A 
ATOM     23  C   UNL     1       0.552   9.361  20.528  0.00  0.00    +0.000 A 
ATOM     24  C   UNL     1      -0.362  10.006  21.381  0.00  0.00    +0.000 A 
ATOM     25  C   UNL     1      -1.012  11.175  20.981  0.00  0.00    +0.000 A 
ATOM     26  C   UNL     1      -0.751  11.719  19.726  0.00  0.00    +0.000 A 
ATOM     27  C   UNL     1       0.142  11.083  18.863  0.00  0.00    +0.000 A 
ATOM     28  C   UNL     1       0.796   9.900  19.246  0.00  0.00    +0.000 A 
ATOM     29  C   UNL     1       1.678   9.236  18.372  0.00  0.00    +0.000 A 
ENDBRANCH  19  20
ENDBRANCH   5  19
TORSDOF 9
ENDMDL
MODEL 3
REMARK VINA RESULT:      -7.7      2.297      4.952
REMARK  Name = 
REMARK  10 active torsions:
REMARK  status: ('A' for Active; 'I' for Inactive)
REMARK    1  A    between atoms: C_1  and  C_2
REMARK    2  A    between atoms: C_2  and  O_4
REMARK    3  A    between atoms: O_4  and  C_5
REMARK    4  A    between atoms: C_5  and  C_6
REMARK    5  A    between atoms: C_6  and  O_7
REMARK    6  A    between atoms: O_7  and  C_8
REMARK    7  A    between atoms: C_8  and  N_9
REMARK    8  A    between atoms: C_11  and  C_12
REMARK    9  A    between atoms: C_16  and  S_17
REMARK   10  A    between atoms: S_17  and  C_18
REMARK                            x       y       z     vdW  Elec       q    Type
REMARK                         _______ _______ _______ _____ _____    ______ ____
ROOT
ATOM      1  N   UNL     1       4.039   4.094  16.936  0.00  0.00    +0.000 N 
ATOM      2  N   UNL     1       4.519   3.860  15.693  0.00  0.00    +0.000 NA
ATOM      3  C   UNL     1       5.682   4.536  15.707  0.00  0.00    +0.000 A 
ATOM      4  N   UNL     1       5.942   5.173  16.911  0.00  0.00    +0.000 NA
ATOM      5  C   UNL     1       4.887   4.900  17.641  0.00  0.00    +0.000 A 
ENDROOT
BRANCH   3   6
ATOM      6  C   UNL     1       6.611   4.634  14.568  0.00  0.00    +0.000 C 
ATOM      7  N   UNL     1       7.682   5.452  14.802  0.00  0.00    +0.000 N 
ATOM      8  O   UNL     1       6.475   4.063  13.490  0.00  0.00    +0.000 OA
ATOM      9  H   UNL     1       7.774   5.916  15.701  0.00  0.00    +0.000 HD
ATOM     10  H   UNL     1       8.368   5.591  14.077  0.00  0.00    +0.000 HD
ENDBRANCH   3   6
BRANCH   1  11
ATOM     11  C   UNL     1       2.736   3.569  17.301  0.00  0.00    +0.000 C 
BRANCH  11  12
ATOM     12  O   UNL     1       2.716   2.138  17.298  0.00  0.00    +0.000 OA
BRANCH  12  13
ATOM     13  C   UNL     1       3.473   1.508  18.334  0.00  0.00    +0.000 C 
BRANCH  13  14
ATOM     14  C   UNL     1       3.333   2.163  19.708  0.00  0.00    +0.000 C 
BRANCH  14  15
ATOM     15  O   UNL     1       1.980   2.083  20.179  0.00  0.00    +0.000 OA
BRANCH  15  17
ATOM     16  C   UNL     1       0.858   4.113  20.484  0.00  0.00    +0.000 C 
ATOM     17  C   UNL     1       1.634   3.002  21.120  0.00  0.00    +0.000 C 
ATOM     18  O   UNL     1       1.926   2.948  22.304  0.00  0.00    +0.000 OA
ENDBRANCH  15  17
ENDBRANCH  14  15
ENDBRANCH  13  14
ENDBRANCH  12  13
ENDBRANCH  11  12
ENDBRANCH   1  11
BRANCH   5  19
ATOM     19  S   UNL     1       4.614   5.433  19.259  0.00  0.00    +0.000 S 
BRANCH  19  20
ATOM     20  C   UNL     1       3.398   6.717  18.968  0.00  0.00    +0.000 A 
ATOM     21  C   UNL     1       3.321   7.422  17.764  0.00  0.00    +0.000 A 
ATOM     22  C   UNL     1       2.412   8.477  17.612  0.00  0.00    +0.000 A 
ATOM     23  C   UNL     1       1.568   8.856  18.669  0.00  0.00    +0.000 A 
ATOM     24  C   UNL     1       0.674   9.935  18.552  0.00  0.00    +0.000 A 
ATOM     25  C   UNL     1      -0.163  10.288  19.612  0.00  0.00    +0.000 A 
ATOM     26  C   UNL     1      -0.123   9.563  20.799  0.00  0.00    +0.000 A 
ATOM     27  C   UNL     1       0.769   8.498  20.936  0.00  0.00    +0.000 A 
ATOM     28  C   UNL     1       1.626   8.137  19.883  0.00  0.00    +0.000 A 
ATOM     29  C   UNL     1       2.548   7.083  20.020  0.00  0.00    +0.000 A 
ENDBRANCH  19  20
ENDBRANCH   5  19
TORSDOF 9
ENDMDL
MODEL 4
REMARK VINA RESULT:      -7.6      1.216      1.235
REMARK  Name = 
REMARK  10 active torsions:
REMARK  status: ('A' for Active; 'I' for Inactive)
REMARK    1  A    between atoms: C_1  and  C_2
REMARK    2  A    between atoms: C_2  and  O_4
REMARK    3  A    between atoms: O_4  and  C_5
REMARK    4  A    between atoms: C_5  and  C_6
REMARK    5  A    between atoms: C_6  and  O_7
REMARK    6  A    between atoms: O_7  and  C_8
REMARK    7  A    between atoms: C_8  and  N_9
REMARK    8  A    between atoms: C_11  and  C_12
REMARK    9  A    between atoms: C_16  and  S_17
REMARK   10  A    between atoms: S_17  and  C_18
REMARK                            x       y       z     vdW  Elec       q    Type
REMARK                         _______ _______ _______ _____ _____    ______ ____
ROOT
ATOM      1  N   UNL     1       4.252   5.036  19.443  0.00  0.00    +0.000 N 
ATOM      2  N   UNL     1       3.891   4.000  20.234  0.00  0.00    +0.000 NA
ATOM      3  C   UNL     1       2.549   4.031  20.146  0.00  0.00    +0.000 A 
ATOM      4  N   UNL     1       2.066   5.040  19.326  0.00  0.00    +0.000 NA
ATOM      5  C   UNL     1       3.151   5.661  18.928  0.00  0.00    +0.000 A 
ENDROOT
BRANCH   3   6
ATOM      6  C   UNL     1       1.640   3.112  20.852  0.00  0.00    +0.000 C 
ATOM      7  N   UNL     1       0.384   3.059  20.311  0.00  0.00    +0.000 N 
ATOM      8  O   UNL     1       1.931   2.443  21.840  0.00  0.00    +0.000 OA
ATOM      9  H   UNL     1       0.164   3.621  19.495  0.00  0.00    +0.000 HD
ATOM     10  H   UNL     1      -0.312   2.465  20.733  0.00  0.00    +0.000 HD
ENDBRANCH   3   6
BRANCH   1  11
ATOM     11  C   UNL     1       5.657   5.378  19.321  0.00  0.00    +0.000 C 
BRANCH  11  12
ATOM     12  O   UNL     1       6.391   4.380  18.603  0.00  0.00    +0.000 OA
BRANCH  12  13
ATOM     13  C   UNL     1       5.965   4.151  17.258  0.00  0.00    +0.000 C 
BRANCH  13  14
ATOM     14  C   UNL     1       6.337   5.264  16.278  0.00  0.00    +0.000 C 
BRANCH  14  15
ATOM     15  O   UNL     1       7.442   4.872  15.451  0.00  0.00    +0.000 OA
BRANCH  15  17
ATOM     16  C   UNL     1       6.158   3.866  13.773  0.00  0.00    +0.000 C 
ATOM     17  C   UNL     1       7.202   4.884  14.112  0.00  0.00    +0.000 C 
ATOM     18  O   UNL     1       7.765   5.599  13.298  0.00  0.00    +0.000 OA
ENDBRANCH  15  17
ENDBRANCH  14  15
ENDBRANCH  13  14
ENDBRANCH  12  13
ENDBRANCH  11  12
ENDBRANCH   1  11
BRANCH   5  19
ATOM     19  S   UNL     1       3.202   7.035  17.885  0.00  0.00    +0.000 S 
BRANCH  19  20
ATOM     20  C   UNL     1       2.027   8.104  18.712  0.00  0.00    +0.000 A 
ATOM     21  C   UNL     1       1.268   9.059  18.029  0.00  0.00    +0.000 A 
ATOM     22  C   UNL     1       0.426   9.933  18.728  0.00  0.00    +0.000 A 
ATOM     23  C   UNL     1       0.334   9.878  20.128  0.00  0.00    +0.000 A 
ATOM     24  C   UNL     1      -0.477  10.769  20.853  0.00  0.00    +0.000 A 
ATOM     25  C   UNL     1      -0.560  10.689  22.244  0.00  0.00    +0.000 A 
ATOM     26  C   UNL     1       0.159   9.712  22.927  0.00  0.00    +0.000 A 
ATOM     27  C   UNL     1       0.978   8.829  22.223  0.00  0.00    +0.000 A 
ATOM     28  C   UNL     1       1.083   8.904  20.824  0.00  0.00    +0.000 A 
ATOM     29  C   UNL     1       1.927   8.036  20.107  0.00  0.00    +0.000 A 
ENDBRANCH  19  20
ENDBRANCH   5  19
TORSDOF 9
ENDMDL
MODEL 5
REMARK VINA RESULT:      -7.6      1.113      1.663
REMARK  Name = 
REMARK  10 active torsions:
REMARK  status: ('A' for Active; 'I' for Inactive)
REMARK    1  A    between atoms: C_1  and  C_2
REMARK    2  A    between atoms: C_2  and  O_4
REMARK    3  A    between atoms: O_4  and  C_5
REMARK    4  A    between atoms: C_5  and  C_6
REMARK    5  A    between atoms: C_6  and  O_7
REMARK    6  A    between atoms: O_7  and  C_8
REMARK    7  A    between atoms: C_8  and  N_9
REMARK    8  A    between atoms: C_11  and  C_12
REMARK    9  A    between atoms: C_16  and  S_17
REMARK   10  A    between atoms: S_17  and  C_18
REMARK                            x       y       z     vdW  Elec       q    Type
REMARK                         _______ _______ _______ _____ _____    ______ ____
ROOT
ATOM      1  N   UNL     1       3.833   4.954  19.011  0.00  0.00    +0.000 N 
ATOM      2  N   UNL     1       3.277   3.813  19.479  0.00  0.00    +0.000 NA
ATOM      3  C   UNL     1       2.003   3.928  19.060  0.00  0.00    +0.000 A 
ATOM      4  N   UNL     1       1.752   5.091  18.347  0.00  0.00    +0.000 NA
ATOM      5  C   UNL     1       2.905   5.716  18.360  0.00  0.00    +0.000 A 
ENDROOT
BRANCH   3   6
ATOM      6  C   UNL     1       0.939   2.945  19.330  0.00  0.00    +0.000 C 
ATOM      7  N   UNL     1       0.612   2.841  20.655  0.00  0.00    +0.000 N 
ATOM      8  O   UNL     1       0.376   2.257  18.484  0.00  0.00    +0.000 OA
ATOM      9  H   UNL     1       1.091   3.418  21.338  0.00  0.00    +0.000 HD
ATOM     10  H   UNL     1      -0.100   2.186  20.939  0.00  0.00    +0.000 HD
ENDBRANCH   3   6
BRANCH   1  11
ATOM     11  C   UNL     1       5.223   5.239  19.315  0.00  0.00    +0.000 C 
BRANCH  11  12
ATOM     12  O   UNL     1       6.114   4.343  18.643  0.00  0.00    +0.000 OA
BRANCH  12  13
ATOM     13  C   UNL     1       5.915   4.218  17.233  0.00  0.00    +0.000 C 
BRANCH  13  14
ATOM     14  C   UNL     1       6.507   5.359  16.406  0.00  0.00    +0.000 C 
BRANCH  14  15
ATOM     15  O   UNL     1       7.649   5.928  17.062  0.00  0.00    +0.000 OA
BRANCH  15  17
ATOM     16  C   UNL     1       8.353   7.462  18.683  0.00  0.00    +0.000 C 
ATOM     17  C   UNL     1       7.504   7.217  17.474  0.00  0.00    +0.000 C 
ATOM     18  O   UNL     1       6.777   8.049  16.955  0.00  0.00    +0.000 OA
ENDBRANCH  15  17
ENDBRANCH  14  15
ENDBRANCH  13  14
ENDBRANCH  12  13
ENDBRANCH  11  12
ENDBRANCH   1  11
BRANCH   5  19
ATOM     19  S   UNL     1       3.228   7.250  17.637  0.00  0.00    +0.000 S 
BRANCH  19  20
ATOM     20  C   UNL     1       2.056   8.272  18.526  0.00  0.00    +0.000 A 
ATOM     21  C   UNL     1       1.334   9.298  17.910  0.00  0.00    +0.000 A 
ATOM     22  C   UNL     1       0.494  10.129  18.662  0.00  0.00    +0.000 A 
ATOM     23  C   UNL     1       0.368   9.958  20.050  0.00  0.00    +0.000 A 
ATOM     24  C   UNL     1      -0.440  10.804  20.830  0.00  0.00    +0.000 A 
ATOM     25  C   UNL     1      -0.558  10.609  22.208  0.00  0.00    +0.000 A 
ATOM     26  C   UNL     1       0.125   9.563  22.821  0.00  0.00    +0.000 A 
ATOM     27  C   UNL     1       0.942   8.724  22.063  0.00  0.00    +0.000 A 
ATOM     28  C   UNL     1       1.081   8.913  20.678  0.00  0.00    +0.000 A 
ATOM     29  C   UNL     1       1.923   8.090  19.908  0.00  0.00    +0.000 A 
ENDBRANCH  19  20
ENDBRANCH   5  19
TORSDOF 9
ENDMDL
MODEL 6
REMARK VINA RESULT:      -7.5      1.551      2.066
REMARK  Name = 
REMARK  10 active torsions:
REMARK  status: ('A' for Active; 'I' for Inactive)
REMARK    1  A    between atoms: C_1  and  C_2
REMARK    2  A    between atoms: C_2  and  O_4
REMARK    3  A    between atoms: O_4  and  C_5
REMARK    4  A    between atoms: C_5  and  C_6
REMARK    5  A    between atoms: C_6  and  O_7
REMARK    6  A    between atoms: O_7  and  C_8
REMARK    7  A    between atoms: C_8  and  N_9
REMARK    8  A    between atoms: C_11  and  C_12
REMARK    9  A    between atoms: C_16  and  S_17
REMARK   10  A    between atoms: S_17  and  C_18
REMARK                            x       y       z     vdW  Elec       q    Type
REMARK                         _______ _______ _______ _____ _____    ______ ____
ROOT
ATOM      1  N   UNL     1       3.920   4.168  18.437  0.00  0.00    +0.000 N 
ATOM      2  N   UNL     1       3.481   3.215  19.291  0.00  0.00    +0.000 NA
ATOM      3  C   UNL     1       2.610   3.898  20.054  0.00  0.00    +0.000 A 
ATOM      4  N   UNL     1       2.489   5.235  19.704  0.00  0.00    +0.000 NA
ATOM      5  C   UNL     1       3.337   5.373  18.713  0.00  0.00    +0.000 A 
ENDROOT
BRANCH   3   6
ATOM      6  C   UNL     1       1.852   3.326  21.181  0.00  0.00    +0.000 C 
ATOM      7  N   UNL     1       0.578   2.952  20.851  0.00  0.00    +0.000 N 
ATOM      8  O   UNL     1       2.276   3.186  22.325  0.00  0.00    +0.000 OA
ATOM      9  H   UNL     1       0.247   3.077  19.899  0.00  0.00    +0.000 HD
ATOM     10  H   UNL     1      -0.022   2.559  21.559  0.00  0.00    +0.000 HD
ENDBRANCH   3   6
BRANCH   1  11
ATOM     11  C   UNL     1       4.945   3.831  17.466  0.00  0.00    +0.000 C 
BRANCH  11  12
ATOM     12  O   UNL     1       4.593   4.260  16.146  0.00  0.00    +0.000 OA
BRANCH  12  13
ATOM     13  C   UNL     1       5.659   4.822  15.377  0.00  0.00    +0.000 C 
BRANCH  13  14
ATOM     14  C   UNL     1       7.012   4.841  16.087  0.00  0.00    +0.000 C 
BRANCH  14  15
ATOM     15  O   UNL     1       7.587   6.155  16.061  0.00  0.00    +0.000 OA
BRANCH  15  17
ATOM     16  C   UNL     1       7.622   6.003  18.396  0.00  0.00    +0.000 C 
ATOM     17  C   UNL     1       7.433   6.883  17.200  0.00  0.00    +0.000 C 
ATOM     18  O   UNL     1       7.160   8.073  17.249  0.00  0.00    +0.000 OA
ENDBRANCH  15  17
ENDBRANCH  14  15
ENDBRANCH  13  14
ENDBRANCH  12  13
ENDBRANCH  11  12
ENDBRANCH   1  11
BRANCH   5  19
ATOM     19  S   UNL     1       3.654   6.835  17.852  0.00  0.00    +0.000 S 
BRANCH  19  20
ATOM     20  C   UNL     1       2.387   7.893  18.548  0.00  0.00    +0.000 A 
ATOM     21  C   UNL     1       1.683   8.827  17.783  0.00  0.00    +0.000 A 
ATOM     22  C   UNL     1       0.764   9.695  18.386  0.00  0.00    +0.000 A 
ATOM     23  C   UNL     1       0.537   9.652  19.771  0.00  0.00    +0.000 A 
ATOM     24  C   UNL     1      -0.354  10.538  20.404  0.00  0.00    +0.000 A 
ATOM     25  C   UNL     1      -0.570  10.471  21.781  0.00  0.00    +0.000 A 
ATOM     26  C   UNL     1       0.094   9.514  22.543  0.00  0.00    +0.000 A 
ATOM     27  C   UNL     1       0.992   8.638  21.932  0.00  0.00    +0.000 A 
ATOM     28  C   UNL     1       1.231   8.699  20.549  0.00  0.00    +0.000 A 
ATOM     29  C   UNL     1       2.154   7.838  19.928  0.00  0.00    +0.000 A 
ENDBRANCH  19  20
ENDBRANCH   5  19
TORSDOF 9
ENDMDL
MODEL 7
REMARK VINA RESULT:      -7.5      1.207      1.873
REMARK  Name = 
REMARK  10 active torsions:
REMARK  status: ('A' for Active; 'I' for Inactive)
REMARK    1  A    between atoms: C_1  and  C_2
REMARK    2  A    between atoms: C_2  and  O_4
REMARK    3  A    between atoms: O_4  and  C_5
REMARK    4  A    between atoms: C_5  and  C_6
REMARK    5  A    between atoms: C_6  and  O_7
REMARK    6  A    between atoms: O_7  and  C_8
REMARK    7  A    between atoms: C_8  and  N_9
REMARK    8  A    between atoms: C_11  and  C_12
REMARK    9  A    between atoms: C_16  and  S_17
REMARK   10  A    between atoms: S_17  and  C_18
REMARK                            x       y       z     vdW  Elec       q    Type
REMARK                         _______ _______ _______ _____ _____    ______ ____
ROOT
ATOM      1  N   UNL     1       4.453   4.917  19.001  0.00  0.00    +0.000 N 
ATOM      2  N   UNL     1       4.164   3.722  19.565  0.00  0.00    +0.000 NA
ATOM      3  C   UNL     1       2.855   3.588  19.287  0.00  0.00    +0.000 A 
ATOM      4  N   UNL     1       2.325   4.649  18.568  0.00  0.00    +0.000 NA
ATOM      5  C   UNL     1       3.340   5.469  18.433  0.00  0.00    +0.000 A 
ENDROOT
BRANCH   3   6
ATOM      6  C   UNL     1       2.020   2.448  19.705  0.00  0.00    +0.000 C 
ATOM      7  N   UNL     1       1.783   1.545  18.704  0.00  0.00    +0.000 N 
ATOM      8  O   UNL     1       1.551   2.285  20.828  0.00  0.00    +0.000 OA
ATOM      9  H   UNL     1       2.179   1.700  17.783  0.00  0.00    +0.000 HD
ATOM     10  H   UNL     1       1.212   0.736  18.892  0.00  0.00    +0.000 HD
ENDBRANCH   3   6
BRANCH   1  11
ATOM     11  C   UNL     1       5.792   5.459  19.140  0.00  0.00    +0.000 C 
BRANCH  11  12
ATOM     12  O   UNL     1       6.798   4.471  18.893  0.00  0.00    +0.000 OA
BRANCH  12  13
ATOM     13  C   UNL     1       7.452   4.559  17.624  0.00  0.00    +0.000 C 
BRANCH  13  14
ATOM     14  C   UNL     1       6.944   5.689  16.728  0.00  0.00    +0.000 C 
BRANCH  14  15
ATOM     15  O   UNL     1       7.517   5.599  15.416  0.00  0.00    +0.000 OA
BRANCH  15  17
ATOM     16  C   UNL     1       7.490   4.897  13.184  0.00  0.00    +0.000 C 
ATOM     17  C   UNL     1       6.780   4.913  14.502  0.00  0.00    +0.000 C 
ATOM     18  O   UNL     1       5.691   4.401  14.710  0.00  0.00    +0.000 OA
ENDBRANCH  15  17
ENDBRANCH  14  15
ENDBRANCH  13  14
ENDBRANCH  12  13
ENDBRANCH  11  12
ENDBRANCH   1  11
BRANCH   5  19
ATOM     19  S   UNL     1       3.304   6.995  17.629  0.00  0.00    +0.000 S 
BRANCH  19  20
ATOM     20  C   UNL     1       2.309   7.938  18.783  0.00  0.00    +0.000 A 
ATOM     21  C   UNL     1       2.067   7.511  20.091  0.00  0.00    +0.000 A 
ATOM     22  C   UNL     1       1.212   8.235  20.931  0.00  0.00    +0.000 A 
ATOM     23  C   UNL     1       0.570   9.398  20.474  0.00  0.00    +0.000 A 
ATOM     24  C   UNL     1      -0.321  10.121  21.286  0.00  0.00    +0.000 A 
ATOM     25  C   UNL     1      -0.940  11.279  20.814  0.00  0.00    +0.000 A 
ATOM     26  C   UNL     1      -0.670  11.734  19.526  0.00  0.00    +0.000 A 
ATOM     27  C   UNL     1       0.201  11.020  18.703  0.00  0.00    +0.000 A 
ATOM     28  C   UNL     1       0.823   9.846  19.159  0.00  0.00    +0.000 A 
ATOM     29  C   UNL     1       1.682   9.104  18.327  0.00  0.00    +0.000 A 
ENDBRANCH  19  20
ENDBRANCH   5  19
TORSDOF 9
ENDMDL
MODEL 8
REMARK VINA RESULT:      -7.4      1.232      1.834
REMARK  Name = 
REMARK  10 active torsions:
REMARK  status: ('A' for Active; 'I' for Inactive)
REMARK    1  A    between atoms: C_1  and  C_2
REMARK    2  A    between atoms: C_2  and  O_4
REMARK    3  A    between atoms: O_4  and  C_5
REMARK    4  A    between atoms: C_5  and  C_6
REMARK    5  A    between atoms: C_6  and  O_7
REMARK    6  A    between atoms: O_7  and  C_8
REMARK    7  A    between atoms: C_8  and  N_9
REMARK    8  A    between atoms: C_11  and  C_12
REMARK    9  A    between atoms: C_16  and  S_17
REMARK   10  A    between atoms: S_17  and  C_18
REMARK                            x       y       z     vdW  Elec       q    Type
REMARK                         _______ _______ _______ _____ _____    ______ ____
ROOT
ATOM      1  N   UNL     1       3.942   5.340  18.645  0.00  0.00    +0.000 N 
ATOM      2  N   UNL     1       3.730   4.017  18.828  0.00  0.00    +0.000 NA
ATOM      3  C   UNL     1       2.472   3.867  18.376  0.00  0.00    +0.000 A 
ATOM      4  N   UNL     1       1.900   5.043  17.915  0.00  0.00    +0.000 NA
ATOM      5  C   UNL     1       2.832   5.943  18.123  0.00  0.00    +0.000 A 
ENDROOT
BRANCH   3   6
ATOM      6  C   UNL     1       1.727   2.596  18.373  0.00  0.00    +0.000 C 
ATOM      7  N   UNL     1       2.446   1.540  17.883  0.00  0.00    +0.000 N 
ATOM      8  O   UNL     1       0.569   2.450  18.754  0.00  0.00    +0.000 OA
ATOM      9  H   UNL     1       3.402   1.683  17.572  0.00  0.00    +0.000 HD
ATOM     10  H   UNL     1       2.017   0.629  17.831  0.00  0.00    +0.000 HD
ENDBRANCH   3   6
BRANCH   1  11
ATOM     11  C   UNL     1       5.199   5.922  19.078  0.00  0.00    +0.000 C 
BRANCH  11  12
ATOM     12  O   UNL     1       5.931   6.489  17.986  0.00  0.00    +0.000 OA
BRANCH  12  13
ATOM     13  C   UNL     1       7.310   6.121  17.910  0.00  0.00    +0.000 C 
BRANCH  13  14
ATOM     14  C   UNL     1       7.555   4.645  17.594  0.00  0.00    +0.000 C 
BRANCH  14  15
ATOM     15  O   UNL     1       7.708   4.443  16.181  0.00  0.00    +0.000 OA
BRANCH  15  17
ATOM     16  C   UNL     1       6.705   4.520  14.069  0.00  0.00    +0.000 C 
ATOM     17  C   UNL     1       6.567   4.134  15.509  0.00  0.00    +0.000 C 
ATOM     18  O   UNL     1       5.566   3.636  16.001  0.00  0.00    +0.000 OA
ENDBRANCH  15  17
ENDBRANCH  14  15
ENDBRANCH  13  14
ENDBRANCH  12  13
ENDBRANCH  11  12
ENDBRANCH   1  11
BRANCH   5  19
ATOM     19  S   UNL     1       2.709   7.625  17.762  0.00  0.00    +0.000 S 
BRANCH  19  20
ATOM     20  C   UNL     1       1.929   8.215  19.263  0.00  0.00    +0.000 A 
ATOM     21  C   UNL     1       1.915   7.471  20.446  0.00  0.00    +0.000 A 
ATOM     22  C   UNL     1       1.218   7.932  21.570  0.00  0.00    +0.000 A 
ATOM     23  C   UNL     1       0.509   9.144  21.530  0.00  0.00    +0.000 A 
ATOM     24  C   UNL     1      -0.228   9.609  22.633  0.00  0.00    +0.000 A 
ATOM     25  C   UNL     1      -0.917  10.822  22.574  0.00  0.00    +0.000 A 
ATOM     26  C   UNL     1      -0.871  11.589  21.413  0.00  0.00    +0.000 A 
ATOM     27  C   UNL     1      -0.156  11.135  20.305  0.00  0.00    +0.000 A 
ATOM     28  C   UNL     1       0.533   9.911  20.344  0.00  0.00    +0.000 A 
ATOM     29  C   UNL     1       1.235   9.431  19.223  0.00  0.00    +0.000 A 
ENDBRANCH  19  20
ENDBRANCH   5  19
TORSDOF 9
ENDMDL
MODEL 9
REMARK VINA RESULT:      -7.4      3.987      5.676
REMARK  Name = 
REMARK  10 active torsions:
REMARK  status: ('A' for Active; 'I' for Inactive)
REMARK    1  A    between atoms: C_1  and  C_2
REMARK    2  A    between atoms: C_2  and  O_4
REMARK    3  A    between atoms: O_4  and  C_5
REMARK    4  A    between atoms: C_5  and  C_6
REMARK    5  A    between atoms: C_6  and  O_7
REMARK    6  A    between atoms: O_7  and  C_8
REMARK    7  A    between atoms: C_8  and  N_9
REMARK    8  A    between atoms: C_11  and  C_12
REMARK    9  A    between atoms: C_16  and  S_17
REMARK   10  A    between atoms: S_17  and  C_18
REMARK                            x       y       z     vdW  Elec       q    Type
REMARK                         _______ _______ _______ _____ _____    ______ ____
ROOT
ATOM      1  N   UNL     1       6.922   5.841  16.820  0.00  0.00    +0.000 N 
ATOM      2  N   UNL     1       7.419   5.846  15.562  0.00  0.00    +0.000 NA
ATOM      3  C   UNL     1       6.711   4.865  14.974  0.00  0.00    +0.000 A 
ATOM      4  N   UNL     1       5.791   4.258  15.817  0.00  0.00    +0.000 NA
ATOM      5  C   UNL     1       5.970   4.871  16.963  0.00  0.00    +0.000 A 
ENDROOT
BRANCH   3   6
ATOM      6  C   UNL     1       6.878   4.429  13.577  0.00  0.00    +0.000 C 
ATOM      7  N   UNL     1       6.178   3.295  13.268  0.00  0.00    +0.000 N 
ATOM      8  O   UNL     1       7.573   4.992  12.735  0.00  0.00    +0.000 OA
ATOM      9  H   UNL     1       5.610   2.845  13.979  0.00  0.00    +0.000 HD
ATOM     10  H   UNL     1       6.237   2.914  12.337  0.00  0.00    +0.000 HD
ENDBRANCH   3   6
BRANCH   1  11
ATOM     11  C   UNL     1       7.487   6.742  17.807  0.00  0.00    +0.000 C 
BRANCH  11  12
ATOM     12  O   UNL     1       7.974   7.950  17.212  0.00  0.00    +0.000 OA
BRANCH  12  13
ATOM     13  C   UNL     1       7.766   9.141  17.976  0.00  0.00    +0.000 C 
BRANCH  13  14
ATOM     14  C   UNL     1       9.031   9.962  18.226  0.00  0.00    +0.000 C 
BRANCH  14  15
ATOM     15  O   UNL     1       9.259  10.136  19.632  0.00  0.00    +0.000 OA
BRANCH  15  17
ATOM     16  C   UNL     1       9.764  12.269  18.812  0.00  0.00    +0.000 C 
ATOM     17  C   UNL     1       9.592  11.397  20.017  0.00  0.00    +0.000 C 
ATOM     18  O   UNL     1       9.752  11.767  21.170  0.00  0.00    +0.000 OA
ENDBRANCH  15  17
ENDBRANCH  14  15
ENDBRANCH  13  14
ENDBRANCH  12  13
ENDBRANCH  11  12
ENDBRANCH   1  11
BRANCH   5  19
ATOM     19  S   UNL     1       5.116   4.545  18.426  0.00  0.00    +0.000 S 
BRANCH  19  20
ATOM     20  C   UNL     1       3.962   5.914  18.433  0.00  0.00    +0.000 A 
ATOM     21  C   UNL     1       3.857   6.816  17.370  0.00  0.00    +0.000 A 
ATOM     22  C   UNL     1       3.003   7.923  17.455  0.00  0.00    +0.000 A 
ATOM     23  C   UNL     1       2.243   8.157  18.612  0.00  0.00    +0.000 A 
ATOM     24  C   UNL     1       1.407   9.281  18.735  0.00  0.00    +0.000 A 
ATOM     25  C   UNL     1       0.653   9.488  19.891  0.00  0.00    +0.000 A 
ATOM     26  C   UNL     1       0.718   8.571  20.936  0.00  0.00    +0.000 A 
ATOM     27  C   UNL     1       1.554   7.458  20.835  0.00  0.00    +0.000 A 
ATOM     28  C   UNL     1       2.328   7.241  19.684  0.00  0.00    +0.000 A 
ATOM     29  C   UNL     1       3.195   6.136  19.583  0.00  0.00    +0.000 A 
ENDBRANCH  19  20
ENDBRANCH   5  19
TORSDOF 9
ENDMDL
