MODEL 1
REMARK VINA RESULT:      -7.7      0.000      0.000
REMARK  Name = 
REMARK  14 active torsions:
REMARK  status: ('A' for Active; 'I' for Inactive)
REMARK    1  A    between atoms: C_1  and  C_2
REMARK    2  A    between atoms: C_5  and  N_6
REMARK    3  A    between atoms: C_7  and  C_9
REMARK    4  A    between atoms: C_9  and  N_10
REMARK    5  A    between atoms: C_12  and  S_13
REMARK    6  A    between atoms: S_13  and  N_16
REMARK    7  A    between atoms: N_16  and  C_17
REMARK    8  A    between atoms: C_17  and  C_18
REMARK    9  A    between atoms: C_17  and  C_19
REMARK   10  A    between atoms: C_20  and  S_21
REMARK   11  A    between atoms: S_21  and  N_24
REMARK   12  A    between atoms: N_24  and  C_25
REMARK   13  A    between atoms: C_25  and  C_26
REMARK   14  A    between atoms: C_25  and  C_27
REMARK                            x       y       z     vdW  Elec       q    Type
REMARK                         _______ _______ _______ _____ _____    ______ ____
ROOT
ATOM      1  N   UNL     1       2.976   7.467  18.032  0.00  0.00    +0.000 N 
ATOM      2  C   UNL     1       2.152   6.385  17.859  0.00  0.00    +0.000 A 
ATOM      3  C   UNL     1       2.883   5.219  18.100  0.00  0.00    +0.000 A 
ATOM      4  C   UNL     1       4.215   5.633  18.395  0.00  0.00    +0.000 A 
ATOM      5  C   UNL     1       4.241   7.015  18.273  0.00  0.00    +0.000 A 
ENDROOT
BRANCH   3   6
ATOM      6  S   UNL     1       2.196   3.629  17.968  0.00  0.00    +0.000 S 
ATOM      7  O   UNL     1       0.796   3.881  17.705  0.00  0.00    +0.000 OA
ATOM      8  O   UNL     1       3.011   2.841  17.084  0.00  0.00    +0.000 OA
BRANCH   6   9
ATOM      9  N   UNL     1       2.245   2.843  19.475  0.00  0.00    +0.000 NA
ATOM     10  H   UNL     1       3.234   2.782  19.728  0.00  0.00    +0.000 HD
BRANCH   9  11
ATOM     11  C   UNL     1       1.422   3.437  20.566  0.00  0.00    +0.000 C 
ATOM     12  C   UNL     1       1.248   2.455  21.710  0.00  0.00    +0.000 C 
ATOM     13  C   UNL     1       2.110   4.700  21.071  0.00  0.00    +0.000 C 
ENDBRANCH   9  11
ENDBRANCH   6   9
ENDBRANCH   3   6
BRANCH   4  14
ATOM     14  S   UNL     1       5.602   4.727  18.905  0.00  0.00    +0.000 S 
ATOM     15  O   UNL     1       6.520   5.645  19.528  0.00  0.00    +0.000 OA
ATOM     16  O   UNL     1       5.055   3.619  19.665  0.00  0.00    +0.000 OA
BRANCH  14  17
ATOM     17  N   UNL     1       6.318   4.086  17.507  0.00  0.00    +0.000 NA
ATOM     18  H   UNL     1       6.217   3.069  17.531  0.00  0.00    +0.000 HD
BRANCH  17  19
ATOM     19  C   UNL     1       6.021   4.714  16.192  0.00  0.00    +0.000 C 
ATOM     20  C   UNL     1       6.992   5.834  15.831  0.00  0.00    +0.000 C 
ATOM     21  C   UNL     1       6.102   3.646  15.101  0.00  0.00    +0.000 C 
ENDBRANCH  17  19
ENDBRANCH  14  17
ENDBRANCH   4  14
BRANCH   1  22
ATOM     22  C   UNL     1       2.647   8.880  17.883  0.00  0.00    +0.000 C 
BRANCH  22  24
ATOM     23  N   UNL     1       0.438   9.941  17.607  0.00  0.00    +0.000 N 
ATOM     24  C   UNL     1       1.301   9.259  18.463  0.00  0.00    +0.000 C 
ATOM     25  O   UNL     1       1.037   8.919  19.620  0.00  0.00    +0.000 OA
ATOM     26  H   UNL     1       0.708  10.036  16.634  0.00  0.00    +0.000 HD
BRANCH  23  31
ATOM     27  C   UNL     1      -4.800  11.960  18.936  0.00  0.00    +0.000 C 
ATOM     28  C   UNL     1      -3.421  11.442  18.632  0.00  0.00    +0.000 A 
ATOM     29  C   UNL     1      -3.287  10.353  17.770  0.00  0.00    +0.000 A 
ATOM     30  C   UNL     1      -2.025   9.847  17.441  0.00  0.00    +0.000 A 
ATOM     31  C   UNL     1      -0.860  10.414  17.952  0.00  0.00    +0.000 A 
ATOM     32  C   UNL     1      -0.984  11.487  18.844  0.00  0.00    +0.000 A 
ATOM     33  C   UNL     1      -2.255  12.001  19.173  0.00  0.00    +0.000 A 
ATOM     34 CL   UNL     1      -2.333  13.346  20.257  0.00  0.00    +0.000 Cl
ENDBRANCH  23  31
ENDBRANCH  22  24
ENDBRANCH   1  22
TORSDOF 9
ENDMDL
MODEL 2
REMARK VINA RESULT:      -7.6      5.030      9.916
REMARK  Name = 
REMARK  14 active torsions:
REMARK  status: ('A' for Active; 'I' for Inactive)
REMARK    1  A    between atoms: C_1  and  C_2
REMARK    2  A    between atoms: C_5  and  N_6
REMARK    3  A    between atoms: C_7  and  C_9
REMARK    4  A    between atoms: C_9  and  N_10
REMARK    5  A    between atoms: C_12  and  S_13
REMARK    6  A    between atoms: S_13  and  N_16
REMARK    7  A    between atoms: N_16  and  C_17
REMARK    8  A    between atoms: C_17  and  C_18
REMARK    9  A    between atoms: C_17  and  C_19
REMARK   10  A    between atoms: C_20  and  S_21
REMARK   11  A    between atoms: S_21  and  N_24
REMARK   12  A    between atoms: N_24  and  C_25
REMARK   13  A    between atoms: C_25  and  C_26
REMARK   14  A    between atoms: C_25  and  C_27
REMARK                            x       y       z     vdW  Elec       q    Type
REMARK                         _______ _______ _______ _____ _____    ______ ____
ROOT
ATOM      1  N   UNL     1      -0.163  10.459  22.190  0.00  0.00    +0.000 N 
ATOM      2  C   UNL     1      -1.173  10.841  23.034  0.00  0.00    +0.000 A 
ATOM      3  C   UNL     1      -1.936  11.827  22.405  0.00  0.00    +0.000 A 
ATOM      4  C   UNL     1      -1.325  12.064  21.140  0.00  0.00    +0.000 A 
ATOM      5  C   UNL     1      -0.200  11.253  21.081  0.00  0.00    +0.000 A 
ENDROOT
BRANCH   3   6
ATOM      6  S   UNL     1      -3.307  12.584  23.158  0.00  0.00    +0.000 S 
ATOM      7  O   UNL     1      -3.646  11.682  24.239  0.00  0.00    +0.000 OA
ATOM      8  O   UNL     1      -3.007  13.971  23.385  0.00  0.00    +0.000 OA
BRANCH   6   9
ATOM      9  N   UNL     1      -4.642  12.559  22.105  0.00  0.00    +0.000 NA
ATOM     10  H   UNL     1      -5.118  11.671  22.277  0.00  0.00    +0.000 HD
BRANCH   9  11
ATOM     11  C   UNL     1      -5.573  13.720  22.179  0.00  0.00    +0.000 C 
ATOM     12  C   UNL     1      -6.320  13.899  20.870  0.00  0.00    +0.000 C 
ATOM     13  C   UNL     1      -6.566  13.483  23.312  0.00  0.00    +0.000 C 
ENDBRANCH   9  11
ENDBRANCH   6   9
ENDBRANCH   3   6
BRANCH   4  14
ATOM     14  S   UNL     1      -1.814  13.061  19.808  0.00  0.00    +0.000 S 
ATOM     15  O   UNL     1      -2.149  14.359  20.332  0.00  0.00    +0.000 OA
ATOM     16  O   UNL     1      -0.745  12.924  18.837  0.00  0.00    +0.000 OA
BRANCH  14  17
ATOM     17  N   UNL     1      -3.205  12.354  19.143  0.00  0.00    +0.000 NA
ATOM     18  H   UNL     1      -3.966  13.034  19.191  0.00  0.00    +0.000 HD
BRANCH  17  19
ATOM     19  C   UNL     1      -3.095  11.628  17.849  0.00  0.00    +0.000 C 
ATOM     20  C   UNL     1      -2.612  10.190  18.009  0.00  0.00    +0.000 C 
ATOM     21  C   UNL     1      -4.470  11.593  17.180  0.00  0.00    +0.000 C 
ENDBRANCH  17  19
ENDBRANCH  14  17
ENDBRANCH   4  14
BRANCH   1  22
ATOM     22  C   UNL     1       0.877   9.464  22.425  0.00  0.00    +0.000 C 
BRANCH  22  24
ATOM     23  N   UNL     1       1.970   7.748  21.031  0.00  0.00    +0.000 N 
ATOM     24  C   UNL     1       0.769   8.246  21.534  0.00  0.00    +0.000 C 
ATOM     25  O   UNL     1      -0.345   7.752  21.336  0.00  0.00    +0.000 OA
ATOM     26  H   UNL     1       2.835   8.148  21.380  0.00  0.00    +0.000 HD
BRANCH  23  31
ATOM     27  C   UNL     1       2.361   3.219  17.479  0.00  0.00    +0.000 C 
ATOM     28  C   UNL     1       2.273   4.373  18.440  0.00  0.00    +0.000 A 
ATOM     29  C   UNL     1       2.654   5.642  18.004  0.00  0.00    +0.000 A 
ATOM     30  C   UNL     1       2.571   6.750  18.852  0.00  0.00    +0.000 A 
ATOM     31  C   UNL     1       2.098   6.632  20.157  0.00  0.00    +0.000 A 
ATOM     32  C   UNL     1       1.742   5.357  20.617  0.00  0.00    +0.000 A 
ATOM     33  C   UNL     1       1.822   4.239  19.761  0.00  0.00    +0.000 A 
ATOM     34 CL   UNL     1       1.338   2.701  20.384  0.00  0.00    +0.000 Cl
ENDBRANCH  23  31
ENDBRANCH  22  24
ENDBRANCH   1  22
TORSDOF 9
ENDMDL
MODEL 3
REMARK VINA RESULT:      -7.5      2.209      2.870
REMARK  Name = 
REMARK  14 active torsions:
REMARK  status: ('A' for Active; 'I' for Inactive)
REMARK    1  A    between atoms: C_1  and  C_2
REMARK    2  A    between atoms: C_5  and  N_6
REMARK    3  A    between atoms: C_7  and  C_9
REMARK    4  A    between atoms: C_9  and  N_10
REMARK    5  A    between atoms: C_12  and  S_13
REMARK    6  A    between atoms: S_13  and  N_16
REMARK    7  A    between atoms: N_16  and  C_17
REMARK    8  A    between atoms: C_17  and  C_18
REMARK    9  A    between atoms: C_17  and  C_19
REMARK   10  A    between atoms: C_20  and  S_21
REMARK   11  A    between atoms: S_21  and  N_24
REMARK   12  A    between atoms: N_24  and  C_25
REMARK   13  A    between atoms: C_25  and  C_26
REMARK   14  A    between atoms: C_25  and  C_27
REMARK                            x       y       z     vdW  Elec       q    Type
REMARK                         _______ _______ _______ _____ _____    ______ ____
ROOT
ATOM      1  N   UNL     1       3.256   7.340  17.673  0.00  0.00    +0.000 N 
ATOM      2  C   UNL     1       3.083   6.275  18.517  0.00  0.00    +0.000 A 
ATOM      3  C   UNL     1       3.986   5.269  18.165  0.00  0.00    +0.000 A 
ATOM      4  C   UNL     1       4.705   5.752  17.033  0.00  0.00    +0.000 A 
ATOM      5  C   UNL     1       4.174   6.997  16.724  0.00  0.00    +0.000 A 
ENDROOT
BRANCH   3   6
ATOM      6  S   UNL     1       4.071   3.744  18.991  0.00  0.00    +0.000 S 
ATOM      7  O   UNL     1       3.352   2.840  18.118  0.00  0.00    +0.000 OA
ATOM      8  O   UNL     1       5.432   3.503  19.388  0.00  0.00    +0.000 OA
BRANCH   6   9
ATOM      9  N   UNL     1       3.167   3.805  20.430  0.00  0.00    +0.000 NA
ATOM     10  H   UNL     1       3.025   4.797  20.631  0.00  0.00    +0.000 HD
BRANCH   9  11
ATOM     11  C   UNL     1       1.889   3.039  20.449  0.00  0.00    +0.000 C 
ATOM     12  C   UNL     1       1.635   2.444  21.823  0.00  0.00    +0.000 C 
ATOM     13  C   UNL     1       0.747   3.977  20.075  0.00  0.00    +0.000 C 
ENDBRANCH   9  11
ENDBRANCH   6   9
ENDBRANCH   3   6
BRANCH   4  14
ATOM     14  S   UNL     1       6.048   5.081  16.166  0.00  0.00    +0.000 S 
ATOM     15  O   UNL     1       5.820   3.666  16.032  0.00  0.00    +0.000 OA
ATOM     16  O   UNL     1       6.171   5.912  14.983  0.00  0.00    +0.000 OA
BRANCH  14  17
ATOM     17  N   UNL     1       7.430   5.334  17.117  0.00  0.00    +0.000 NA
ATOM     18  H   UNL     1       8.226   5.484  16.494  0.00  0.00    +0.000 HD
BRANCH  17  19
ATOM     19  C   UNL     1       7.350   6.272  18.269  0.00  0.00    +0.000 C 
ATOM     20  C   UNL     1       8.154   5.805  19.477  0.00  0.00    +0.000 C 
ATOM     21  C   UNL     1       7.892   7.636  17.838  0.00  0.00    +0.000 C 
ENDBRANCH  17  19
ENDBRANCH  14  17
ENDBRANCH   4  14
BRANCH   1  22
ATOM     22  C   UNL     1       2.533   8.607  17.664  0.00  0.00    +0.000 C 
BRANCH  22  24
ATOM     23  N   UNL     1       1.047  10.075  18.973  0.00  0.00    +0.000 N 
ATOM     24  C   UNL     1       1.746   8.871  18.929  0.00  0.00    +0.000 C 
ATOM     25  O   UNL     1       1.739   8.010  19.814  0.00  0.00    +0.000 OA
ATOM     26  H   UNL     1       1.009  10.636  18.128  0.00  0.00    +0.000 HD
BRANCH  23  31
ATOM     27  C   UNL     1      -2.210  11.865  23.386  0.00  0.00    +0.000 C 
ATOM     28  C   UNL     1      -1.366  11.440  22.216  0.00  0.00    +0.000 A 
ATOM     29  C   UNL     1      -0.275  10.601  22.444  0.00  0.00    +0.000 A 
ATOM     30  C   UNL     1       0.529  10.161  21.388  0.00  0.00    +0.000 A 
ATOM     31  C   UNL     1       0.266  10.535  20.072  0.00  0.00    +0.000 A 
ATOM     32  C   UNL     1      -0.807  11.404  19.833  0.00  0.00    +0.000 A 
ATOM     33  C   UNL     1      -1.621  11.844  20.898  0.00  0.00    +0.000 A 
ATOM     34 CL   UNL     1      -2.947  12.891  20.530  0.00  0.00    +0.000 Cl
ENDBRANCH  23  31
ENDBRANCH  22  24
ENDBRANCH   1  22
TORSDOF 9
ENDMDL
MODEL 4
REMARK VINA RESULT:      -7.4      0.994      1.415
REMARK  Name = 
REMARK  14 active torsions:
REMARK  status: ('A' for Active; 'I' for Inactive)
REMARK    1  A    between atoms: C_1  and  C_2
REMARK    2  A    between atoms: C_5  and  N_6
REMARK    3  A    between atoms: C_7  and  C_9
REMARK    4  A    between atoms: C_9  and  N_10
REMARK    5  A    between atoms: C_12  and  S_13
REMARK    6  A    between atoms: S_13  and  N_16
REMARK    7  A    between atoms: N_16  and  C_17
REMARK    8  A    between atoms: C_17  and  C_18
REMARK    9  A    between atoms: C_17  and  C_19
REMARK   10  A    between atoms: C_20  and  S_21
REMARK   11  A    between atoms: S_21  and  N_24
REMARK   12  A    between atoms: N_24  and  C_25
REMARK   13  A    between atoms: C_25  and  C_26
REMARK   14  A    between atoms: C_25  and  C_27
REMARK                            x       y       z     vdW  Elec       q    Type
REMARK                         _______ _______ _______ _____ _____    ______ ____
ROOT
ATOM      1  N   UNL     1       3.183   7.283  17.895  0.00  0.00    +0.000 N 
ATOM      2  C   UNL     1       2.331   6.223  17.726  0.00  0.00    +0.000 A 
ATOM      3  C   UNL     1       3.020   5.041  18.009  0.00  0.00    +0.000 A 
ATOM      4  C   UNL     1       4.357   5.422  18.326  0.00  0.00    +0.000 A 
ATOM      5  C   UNL     1       4.428   6.799  18.175  0.00  0.00    +0.000 A 
ENDROOT
BRANCH   3   6
ATOM      6  S   UNL     1       2.289   3.470  17.895  0.00  0.00    +0.000 S 
ATOM      7  O   UNL     1       0.934   3.752  17.472  0.00  0.00    +0.000 OA
ATOM      8  O   UNL     1       3.159   2.604  17.146  0.00  0.00    +0.000 OA
BRANCH   6   9
ATOM      9  N   UNL     1       2.151   2.774  19.440  0.00  0.00    +0.000 NA
ATOM     10  H   UNL     1       2.936   2.125  19.527  0.00  0.00    +0.000 HD
BRANCH   9  11
ATOM     11  C   UNL     1       2.069   3.716  20.592  0.00  0.00    +0.000 C 
ATOM     12  C   UNL     1       0.757   4.479  20.575  0.00  0.00    +0.000 C 
ATOM     13  C   UNL     1       2.187   2.921  21.887  0.00  0.00    +0.000 C 
ENDBRANCH   9  11
ENDBRANCH   6   9
ENDBRANCH   3   6
BRANCH   4  14
ATOM     14  S   UNL     1       5.704   4.486  18.887  0.00  0.00    +0.000 S 
ATOM     15  O   UNL     1       6.546   5.354  19.668  0.00  0.00    +0.000 OA
ATOM     16  O   UNL     1       5.106   3.313  19.498  0.00  0.00    +0.000 OA
BRANCH  14  17
ATOM     17  N   UNL     1       6.558   3.970  17.515  0.00  0.00    +0.000 NA
ATOM     18  H   UNL     1       6.572   2.948  17.510  0.00  0.00    +0.000 HD
BRANCH  17  19
ATOM     19  C   UNL     1       6.257   4.599  16.201  0.00  0.00    +0.000 C 
ATOM     20  C   UNL     1       7.428   5.397  15.638  0.00  0.00    +0.000 C 
ATOM     21  C   UNL     1       5.902   3.504  15.195  0.00  0.00    +0.000 C 
ENDBRANCH  17  19
ENDBRANCH  14  17
ENDBRANCH   4  14
BRANCH   1  22
ATOM     22  C   UNL     1       2.900   8.702  17.709  0.00  0.00    +0.000 C 
BRANCH  22  24
ATOM     23  N   UNL     1       0.927  10.175  17.824  0.00  0.00    +0.000 N 
ATOM     24  C   UNL     1       1.676   9.184  18.456  0.00  0.00    +0.000 C 
ATOM     25  O   UNL     1       1.398   8.662  19.539  0.00  0.00    +0.000 OA
ATOM     26  H   UNL     1       1.171  10.422  16.871  0.00  0.00    +0.000 HD
BRANCH  23  31
ATOM     27  C   UNL     1      -3.839  12.553  20.042  0.00  0.00    +0.000 C 
ATOM     28  C   UNL     1      -2.617  11.933  19.422  0.00  0.00    +0.000 A 
ATOM     29  C   UNL     1      -1.358  12.330  19.876  0.00  0.00    +0.000 A 
ATOM     30  C   UNL     1      -0.192  11.768  19.346  0.00  0.00    +0.000 A 
ATOM     31  C   UNL     1      -0.243  10.789  18.357  0.00  0.00    +0.000 A 
ATOM     32  C   UNL     1      -1.500  10.405  17.870  0.00  0.00    +0.000 A 
ATOM     33  C   UNL     1      -2.676  10.969  18.407  0.00  0.00    +0.000 A 
ATOM     34 CL   UNL     1      -4.195  10.428  17.782  0.00  0.00    +0.000 Cl
ENDBRANCH  23  31
ENDBRANCH  22  24
ENDBRANCH   1  22
TORSDOF 9
ENDMDL
MODEL 5
REMARK VINA RESULT:      -7.3      2.044      2.268
REMARK  Name = 
REMARK  14 active torsions:
REMARK  status: ('A' for Active; 'I' for Inactive)
REMARK    1  A    between atoms: C_1  and  C_2
REMARK    2  A    between atoms: C_5  and  N_6
REMARK    3  A    between atoms: C_7  and  C_9
REMARK    4  A    between atoms: C_9  and  N_10
REMARK    5  A    between atoms: C_12  and  S_13
REMARK    6  A    between atoms: S_13  and  N_16
REMARK    7  A    between atoms: N_16  and  C_17
REMARK    8  A    between atoms: C_17  and  C_18
REMARK    9  A    between atoms: C_17  and  C_19
REMARK   10  A    between atoms: C_20  and  S_21
REMARK   11  A    between atoms: S_21  and  N_24
REMARK   12  A    between atoms: N_24  and  C_25
REMARK   13  A    between atoms: C_25  and  C_26
REMARK   14  A    between atoms: C_25  and  C_27
REMARK                            x       y       z     vdW  Elec       q    Type
REMARK                         _______ _______ _______ _____ _____    ______ ____
ROOT
ATOM      1  N   UNL     1       2.855   7.221  17.774  0.00  0.00    +0.000 N 
ATOM      2  C   UNL     1       2.191   6.023  17.840  0.00  0.00    +0.000 A 
ATOM      3  C   UNL     1       3.125   5.000  18.018  0.00  0.00    +0.000 A 
ATOM      4  C   UNL     1       4.408   5.622  18.022  0.00  0.00    +0.000 A 
ATOM      5  C   UNL     1       4.197   6.975  17.800  0.00  0.00    +0.000 A 
ENDROOT
BRANCH   3   6
ATOM      6  S   UNL     1       2.681   3.325  18.132  0.00  0.00    +0.000 S 
ATOM      7  O   UNL     1       1.276   3.318  17.784  0.00  0.00    +0.000 OA
ATOM      8  O   UNL     1       3.650   2.536  17.421  0.00  0.00    +0.000 OA
BRANCH   6   9
ATOM      9  N   UNL     1       2.753   2.809  19.751  0.00  0.00    +0.000 NA
ATOM     10  H   UNL     1       3.703   3.013  20.069  0.00  0.00    +0.000 HD
BRANCH   9  11
ATOM     11  C   UNL     1       1.721   3.358  20.674  0.00  0.00    +0.000 C 
ATOM     12  C   UNL     1       1.464   2.405  21.828  0.00  0.00    +0.000 C 
ATOM     13  C   UNL     1       2.205   4.700  21.212  0.00  0.00    +0.000 C 
ENDBRANCH   9  11
ENDBRANCH   6   9
ENDBRANCH   3   6
BRANCH   4  14
ATOM     14  S   UNL     1       5.987   4.972  18.320  0.00  0.00    +0.000 S 
ATOM     15  O   UNL     1       6.878   6.077  18.559  0.00  0.00    +0.000 OA
ATOM     16  O   UNL     1       5.782   3.969  19.349  0.00  0.00    +0.000 OA
BRANCH  14  17
ATOM     17  N   UNL     1       6.468   4.166  16.907  0.00  0.00    +0.000 NA
ATOM     18  H   UNL     1       6.146   3.197  16.963  0.00  0.00    +0.000 HD
BRANCH  17  19
ATOM     19  C   UNL     1       6.246   4.824  15.592  0.00  0.00    +0.000 C 
ATOM     20  C   UNL     1       7.525   4.977  14.777  0.00  0.00    +0.000 C 
ATOM     21  C   UNL     1       5.262   3.985  14.775  0.00  0.00    +0.000 C 
ENDBRANCH  17  19
ENDBRANCH  14  17
ENDBRANCH   4  14
BRANCH   1  22
ATOM     22  C   UNL     1       2.290   8.553  17.592  0.00  0.00    +0.000 C 
BRANCH  22  24
ATOM     23  N   UNL     1       1.160  10.424  18.733  0.00  0.00    +0.000 N 
ATOM     24  C   UNL     1       1.710   9.149  18.856  0.00  0.00    +0.000 C 
ATOM     25  O   UNL     1       1.725   8.476  19.890  0.00  0.00    +0.000 OA
ATOM     26  H   UNL     1       1.074  10.818  17.802  0.00  0.00    +0.000 HD
BRANCH  23  31
ATOM     27  C   UNL     1      -1.063  13.454  23.110  0.00  0.00    +0.000 C 
ATOM     28  C   UNL     1      -0.517  12.633  21.975  0.00  0.00    +0.000 A 
ATOM     29  C   UNL     1       0.007  13.290  20.861  0.00  0.00    +0.000 A 
ATOM     30  C   UNL     1       0.545  12.572  19.789  0.00  0.00    +0.000 A 
ATOM     31  C   UNL     1       0.587  11.180  19.795  0.00  0.00    +0.000 A 
ATOM     32  C   UNL     1       0.035  10.507  20.894  0.00  0.00    +0.000 A 
ATOM     33  C   UNL     1      -0.505  11.231  21.978  0.00  0.00    +0.000 A 
ATOM     34 CL   UNL     1      -1.143  10.338  23.314  0.00  0.00    +0.000 Cl
ENDBRANCH  23  31
ENDBRANCH  22  24
ENDBRANCH   1  22
TORSDOF 9
ENDMDL
MODEL 6
REMARK VINA RESULT:      -7.3      1.965      2.532
REMARK  Name = 
REMARK  14 active torsions:
REMARK  status: ('A' for Active; 'I' for Inactive)
REMARK    1  A    between atoms: C_1  and  C_2
REMARK    2  A    between atoms: C_5  and  N_6
REMARK    3  A    between atoms: C_7  and  C_9
REMARK    4  A    between atoms: C_9  and  N_10
REMARK    5  A    between atoms: C_12  and  S_13
REMARK    6  A    between atoms: S_13  and  N_16
REMARK    7  A    between atoms: N_16  and  C_17
REMARK    8  A    between atoms: C_17  and  C_18
REMARK    9  A    between atoms: C_17  and  C_19
REMARK   10  A    between atoms: C_20  and  S_21
REMARK   11  A    between atoms: S_21  and  N_24
REMARK   12  A    between atoms: N_24  and  C_25
REMARK   13  A    between atoms: C_25  and  C_26
REMARK   14  A    between atoms: C_25  and  C_27
REMARK                            x       y       z     vdW  Elec       q    Type
REMARK                         _______ _______ _______ _____ _____    ______ ____
ROOT
ATOM      1  N   UNL     1       2.872   8.385  18.148  0.00  0.00    +0.000 N 
ATOM      2  C   UNL     1       2.683   7.365  19.043  0.00  0.00    +0.000 A 
ATOM      3  C   UNL     1       3.378   6.239  18.596  0.00  0.00    +0.000 A 
ATOM      4  C   UNL     1       3.979   6.603  17.356  0.00  0.00    +0.000 A 
ATOM      5  C   UNL     1       3.584   7.905  17.087  0.00  0.00    +0.000 A 
ENDROOT
BRANCH   3   6
ATOM      6  S   UNL     1       3.375   4.727  19.450  0.00  0.00    +0.000 S 
ATOM      7  O   UNL     1       4.778   4.377  19.533  0.00  0.00    +0.000 OA
ATOM      8  O   UNL     1       2.549   4.853  20.620  0.00  0.00    +0.000 OA
BRANCH   6   9
ATOM      9  N   UNL     1       2.657   3.516  18.497  0.00  0.00    +0.000 NA
ATOM     10  H   UNL     1       3.206   3.474  17.636  0.00  0.00    +0.000 HD
BRANCH   9  11
ATOM     11  C   UNL     1       2.498   2.175  19.129  0.00  0.00    +0.000 C 
ATOM     12  C   UNL     1       1.081   1.658  18.950  0.00  0.00    +0.000 C 
ATOM     13  C   UNL     1       3.485   1.207  18.486  0.00  0.00    +0.000 C 
ENDBRANCH   9  11
ENDBRANCH   6   9
ENDBRANCH   3   6
BRANCH   4  14
ATOM     14  S   UNL     1       5.073   5.740  16.325  0.00  0.00    +0.000 S 
ATOM     15  O   UNL     1       4.495   4.448  16.055  0.00  0.00    +0.000 OA
ATOM     16  O   UNL     1       5.345   6.655  15.233  0.00  0.00    +0.000 OA
BRANCH  14  17
ATOM     17  N   UNL     1       6.515   5.532  17.192  0.00  0.00    +0.000 NA
ATOM     18  H   UNL     1       7.247   5.248  16.538  0.00  0.00    +0.000 HD
BRANCH  17  19
ATOM     19  C   UNL     1       6.923   6.575  18.172  0.00  0.00    +0.000 C 
ATOM     20  C   UNL     1       7.895   6.057  19.226  0.00  0.00    +0.000 C 
ATOM     21  C   UNL     1       7.603   7.722  17.423  0.00  0.00    +0.000 C 
ENDBRANCH  17  19
ENDBRANCH  14  17
ENDBRANCH   4  14
BRANCH   1  22
ATOM     22  C   UNL     1       2.336   9.741  18.203  0.00  0.00    +0.000 C 
BRANCH  22  24
ATOM     23  N   UNL     1       0.011  10.319  17.621  0.00  0.00    +0.000 N 
ATOM     24  C   UNL     1       0.874   9.804  18.587  0.00  0.00    +0.000 C 
ATOM     25  O   UNL     1       0.532   9.375  19.693  0.00  0.00    +0.000 OA
ATOM     26  H   UNL     1       0.386  10.503  16.696  0.00  0.00    +0.000 HD
BRANCH  23  31
ATOM     27  C   UNL     1      -5.670  11.136  18.206  0.00  0.00    +0.000 C 
ATOM     28  C   UNL     1      -4.184  10.930  18.098  0.00  0.00    +0.000 A 
ATOM     29  C   UNL     1      -3.701   9.965  17.213  0.00  0.00    +0.000 A 
ATOM     30  C   UNL     1      -2.328   9.750  17.062  0.00  0.00    +0.000 A 
ATOM     31  C   UNL     1      -1.393  10.493  17.780  0.00  0.00    +0.000 A 
ATOM     32  C   UNL     1      -1.867  11.442  18.696  0.00  0.00    +0.000 A 
ATOM     33  C   UNL     1      -3.252  11.663  18.846  0.00  0.00    +0.000 A 
ATOM     34 CL   UNL     1      -3.766  12.869  19.972  0.00  0.00    +0.000 Cl
ENDBRANCH  23  31
ENDBRANCH  22  24
ENDBRANCH   1  22
TORSDOF 9
ENDMDL
MODEL 7
REMARK VINA RESULT:      -7.3      5.017      9.542
REMARK  Name = 
REMARK  14 active torsions:
REMARK  status: ('A' for Active; 'I' for Inactive)
REMARK    1  A    between atoms: C_1  and  C_2
REMARK    2  A    between atoms: C_5  and  N_6
REMARK    3  A    between atoms: C_7  and  C_9
REMARK    4  A    between atoms: C_9  and  N_10
REMARK    5  A    between atoms: C_12  and  S_13
REMARK    6  A    between atoms: S_13  and  N_16
REMARK    7  A    between atoms: N_16  and  C_17
REMARK    8  A    between atoms: C_17  and  C_18
REMARK    9  A    between atoms: C_17  and  C_19
REMARK   10  A    between atoms: C_20  and  S_21
REMARK   11  A    between atoms: S_21  and  N_24
REMARK   12  A    between atoms: N_24  and  C_25
REMARK   13  A    between atoms: C_25  and  C_26
REMARK   14  A    between atoms: C_25  and  C_27
REMARK                            x       y       z     vdW  Elec       q    Type
REMARK                         _______ _______ _______ _____ _____    ______ ____
ROOT
ATOM      1  N   UNL     1       0.118  10.991  21.822  0.00  0.00    +0.000 N 
ATOM      2  C   UNL     1      -0.752  11.901  22.363  0.00  0.00    +0.000 A 
ATOM      3  C   UNL     1      -0.994  12.906  21.424  0.00  0.00    +0.000 A 
ATOM      4  C   UNL     1      -0.199  12.591  20.283  0.00  0.00    +0.000 A 
ATOM      5  C   UNL     1       0.519  11.447  20.600  0.00  0.00    +0.000 A 
ENDROOT
BRANCH   3   6
ATOM      6  S   UNL     1      -2.037  14.259  21.735  0.00  0.00    +0.000 S 
ATOM      7  O   UNL     1      -1.128  15.383  21.814  0.00  0.00    +0.000 OA
ATOM      8  O   UNL     1      -3.134  14.226  20.806  0.00  0.00    +0.000 OA
BRANCH   6   9
ATOM      9  N   UNL     1      -2.730  14.122  23.282  0.00  0.00    +0.000 NA
ATOM     10  H   UNL     1      -2.686  15.057  23.693  0.00  0.00    +0.000 HD
BRANCH   9  11
ATOM     11  C   UNL     1      -4.100  13.541  23.352  0.00  0.00    +0.000 C 
ATOM     12  C   UNL     1      -4.171  12.444  24.399  0.00  0.00    +0.000 C 
ATOM     13  C   UNL     1      -5.088  14.649  23.698  0.00  0.00    +0.000 C 
ENDBRANCH   9  11
ENDBRANCH   6   9
ENDBRANCH   3   6
BRANCH   4  14
ATOM     14  S   UNL     1      -0.106  13.334  18.720  0.00  0.00    +0.000 S 
ATOM     15  O   UNL     1      -0.429  14.729  18.877  0.00  0.00    +0.000 OA
ATOM     16  O   UNL     1       1.192  12.943  18.205  0.00  0.00    +0.000 OA
BRANCH  14  17
ATOM     17  N   UNL     1      -1.286  12.598  17.748  0.00  0.00    +0.000 NA
ATOM     18  H   UNL     1      -0.907  12.492  16.805  0.00  0.00    +0.000 HD
BRANCH  17  19
ATOM     19  C   UNL     1      -2.007  11.406  18.269  0.00  0.00    +0.000 C 
ATOM     20  C   UNL     1      -3.512  11.620  18.384  0.00  0.00    +0.000 C 
ATOM     21  C   UNL     1      -1.767  10.227  17.325  0.00  0.00    +0.000 C 
ENDBRANCH  17  19
ENDBRANCH  14  17
ENDBRANCH   4  14
BRANCH   1  22
ATOM     22  C   UNL     1       0.654   9.783  22.439  0.00  0.00    +0.000 C 
BRANCH  22  24
ATOM     23  N   UNL     1       1.782   8.038  21.112  0.00  0.00    +0.000 N 
ATOM     24  C   UNL     1       0.568   8.556  21.557  0.00  0.00    +0.000 C 
ATOM     25  O   UNL     1      -0.544   8.075  21.317  0.00  0.00    +0.000 OA
ATOM     26  H   UNL     1       2.637   8.431  21.493  0.00  0.00    +0.000 HD
BRANCH  23  31
ATOM     27  C   UNL     1       2.262   3.464  17.629  0.00  0.00    +0.000 C 
ATOM     28  C   UNL     1       2.150   4.630  18.572  0.00  0.00    +0.000 A 
ATOM     29  C   UNL     1       2.543   5.893  18.130  0.00  0.00    +0.000 A 
ATOM     30  C   UNL     1       2.439   7.012  18.962  0.00  0.00    +0.000 A 
ATOM     31  C   UNL     1       1.932   6.911  20.255  0.00  0.00    +0.000 A 
ATOM     32  C   UNL     1       1.564   5.642  20.722  0.00  0.00    +0.000 A 
ATOM     33  C   UNL     1       1.665   4.513  19.882  0.00  0.00    +0.000 A 
ATOM     34 CL   UNL     1       1.165   2.983  20.513  0.00  0.00    +0.000 Cl
ENDBRANCH  23  31
ENDBRANCH  22  24
ENDBRANCH   1  22
TORSDOF 9
ENDMDL
MODEL 8
REMARK VINA RESULT:      -7.2      1.948      2.225
REMARK  Name = 
REMARK  14 active torsions:
REMARK  status: ('A' for Active; 'I' for Inactive)
REMARK    1  A    between atoms: C_1  and  C_2
REMARK    2  A    between atoms: C_5  and  N_6
REMARK    3  A    between atoms: C_7  and  C_9
REMARK    4  A    between atoms: C_9  and  N_10
REMARK    5  A    between atoms: C_12  and  S_13
REMARK    6  A    between atoms: S_13  and  N_16
REMARK    7  A    between atoms: N_16  and  C_17
REMARK    8  A    between atoms: C_17  and  C_18
REMARK    9  A    between atoms: C_17  and  C_19
REMARK   10  A    between atoms: C_20  and  S_21
REMARK   11  A    between atoms: S_21  and  N_24
REMARK   12  A    between atoms: N_24  and  C_25
REMARK   13  A    between atoms: C_25  and  C_26
REMARK   14  A    between atoms: C_25  and  C_27
REMARK                            x       y       z     vdW  Elec       q    Type
REMARK                         _______ _______ _______ _____ _____    ______ ____
ROOT
ATOM      1  N   UNL     1       2.887   7.167  17.824  0.00  0.00    +0.000 N 
ATOM      2  C   UNL     1       2.236   5.962  17.788  0.00  0.00    +0.000 A 
ATOM      3  C   UNL     1       3.173   4.938  17.940  0.00  0.00    +0.000 A 
ATOM      4  C   UNL     1       4.448   5.570  18.035  0.00  0.00    +0.000 A 
ATOM      5  C   UNL     1       4.230   6.933  17.888  0.00  0.00    +0.000 A 
ENDROOT
BRANCH   3   6
ATOM      6  S   UNL     1       2.744   3.255  17.932  0.00  0.00    +0.000 S 
ATOM      7  O   UNL     1       1.363   3.255  17.499  0.00  0.00    +0.000 OA
ATOM      8  O   UNL     1       3.764   2.517  17.238  0.00  0.00    +0.000 OA
BRANCH   6   9
ATOM      9  N   UNL     1       2.725   2.648  19.521  0.00  0.00    +0.000 NA
ATOM     10  H   UNL     1       3.679   2.333  19.712  0.00  0.00    +0.000 HD
BRANCH   9  11
ATOM     11  C   UNL     1       2.213   3.563  20.579  0.00  0.00    +0.000 C 
ATOM     12  C   UNL     1       0.755   3.911  20.335  0.00  0.00    +0.000 C 
ATOM     13  C   UNL     1       2.360   2.879  21.934  0.00  0.00    +0.000 C 
ENDBRANCH   9  11
ENDBRANCH   6   9
ENDBRANCH   3   6
BRANCH   4  14
ATOM     14  S   UNL     1       6.021   4.917  18.355  0.00  0.00    +0.000 S 
ATOM     15  O   UNL     1       6.921   6.022  18.562  0.00  0.00    +0.000 OA
ATOM     16  O   UNL     1       5.806   3.948  19.413  0.00  0.00    +0.000 OA
BRANCH  14  17
ATOM     17  N   UNL     1       6.498   4.065  16.968  0.00  0.00    +0.000 NA
ATOM     18  H   UNL     1       6.165   3.102  17.051  0.00  0.00    +0.000 HD
BRANCH  17  19
ATOM     19  C   UNL     1       6.288   4.686  15.633  0.00  0.00    +0.000 C 
ATOM     20  C   UNL     1       7.560   5.287  15.046  0.00  0.00    +0.000 C 
ATOM     21  C   UNL     1       5.776   3.620  14.663  0.00  0.00    +0.000 C 
ENDBRANCH  17  19
ENDBRANCH  14  17
ENDBRANCH   4  14
BRANCH   1  22
ATOM     22  C   UNL     1       2.315   8.503  17.702  0.00  0.00    +0.000 C 
BRANCH  22  24
ATOM     23  N   UNL     1       1.141  10.299  18.917  0.00  0.00    +0.000 N 
ATOM     24  C   UNL     1       1.734   9.039  18.992  0.00  0.00    +0.000 C 
ATOM     25  O   UNL     1       1.785   8.334  20.004  0.00  0.00    +0.000 OA
ATOM     26  H   UNL     1       1.029  10.719  18.001  0.00  0.00    +0.000 HD
BRANCH  23  31
ATOM     27  C   UNL     1      -1.273  13.223  23.265  0.00  0.00    +0.000 C 
ATOM     28  C   UNL     1      -0.603  12.478  22.144  0.00  0.00    +0.000 A 
ATOM     29  C   UNL     1      -1.056  11.198  21.822  0.00  0.00    +0.000 A 
ATOM     30  C   UNL     1      -0.479  10.473  20.775  0.00  0.00    +0.000 A 
ATOM     31  C   UNL     1       0.559  11.001  20.011  0.00  0.00    +0.000 A 
ATOM     32  C   UNL     1       1.044  12.272  20.345  0.00  0.00    +0.000 A 
ATOM     33  C   UNL     1       0.460  13.007  21.398  0.00  0.00    +0.000 A 
ATOM     34 CL   UNL     1       1.088  14.581  21.738  0.00  0.00    +0.000 Cl
ENDBRANCH  23  31
ENDBRANCH  22  24
ENDBRANCH   1  22
TORSDOF 9
ENDMDL
MODEL 9
REMARK VINA RESULT:      -7.1      2.511      4.264
REMARK  Name = 
REMARK  14 active torsions:
REMARK  status: ('A' for Active; 'I' for Inactive)
REMARK    1  A    between atoms: C_1  and  C_2
REMARK    2  A    between atoms: C_5  and  N_6
REMARK    3  A    between atoms: C_7  and  C_9
REMARK    4  A    between atoms: C_9  and  N_10
REMARK    5  A    between atoms: C_12  and  S_13
REMARK    6  A    between atoms: S_13  and  N_16
REMARK    7  A    between atoms: N_16  and  C_17
REMARK    8  A    between atoms: C_17  and  C_18
REMARK    9  A    between atoms: C_17  and  C_19
REMARK   10  A    between atoms: C_20  and  S_21
REMARK   11  A    between atoms: S_21  and  N_24
REMARK   12  A    between atoms: N_24  and  C_25
REMARK   13  A    between atoms: C_25  and  C_26
REMARK   14  A    between atoms: C_25  and  C_27
REMARK                            x       y       z     vdW  Elec       q    Type
REMARK                         _______ _______ _______ _____ _____    ______ ____
ROOT
ATOM      1  N   UNL     1       2.381   8.755  18.231  0.00  0.00    +0.000 N 
ATOM      2  C   UNL     1       3.333   8.114  17.481  0.00  0.00    +0.000 A 
ATOM      3  C   UNL     1       3.421   6.786  17.905  0.00  0.00    +0.000 A 
ATOM      4  C   UNL     1       2.499   6.645  18.982  0.00  0.00    +0.000 A 
ATOM      5  C   UNL     1       1.935   7.896  19.192  0.00  0.00    +0.000 A 
ENDROOT
BRANCH   3   6
ATOM      6  S   UNL     1       4.530   5.645  17.209  0.00  0.00    +0.000 S 
ATOM      7  O   UNL     1       3.716   4.470  16.980  0.00  0.00    +0.000 OA
ATOM      8  O   UNL     1       5.259   6.288  16.150  0.00  0.00    +0.000 OA
BRANCH   6   9
ATOM      9  N   UNL     1       5.691   5.179  18.361  0.00  0.00    +0.000 NA
ATOM     10  H   UNL     1       5.560   4.175  18.502  0.00  0.00    +0.000 HD
BRANCH   9  11
ATOM     11  C   UNL     1       7.109   5.523  18.058  0.00  0.00    +0.000 C 
ATOM     12  C   UNL     1       7.881   5.809  19.333  0.00  0.00    +0.000 C 
ATOM     13  C   UNL     1       7.752   4.356  17.316  0.00  0.00    +0.000 C 
ENDBRANCH   9  11
ENDBRANCH   6   9
ENDBRANCH   3   6
BRANCH   4  14
ATOM     14  S   UNL     1       2.007   5.249  19.884  0.00  0.00    +0.000 S 
ATOM     15  O   UNL     1       1.506   5.702  21.156  0.00  0.00    +0.000 OA
ATOM     16  O   UNL     1       1.139   4.517  18.981  0.00  0.00    +0.000 OA
BRANCH  14  17
ATOM     17  N   UNL     1       3.394   4.306  20.138  0.00  0.00    +0.000 NA
ATOM     18  H   UNL     1       3.927   4.718  20.906  0.00  0.00    +0.000 HD
BRANCH  17  19
ATOM     19  C   UNL     1       3.260   2.826  20.192  0.00  0.00    +0.000 C 
ATOM     20  C   UNL     1       4.600   2.101  20.130  0.00  0.00    +0.000 C 
ATOM     21  C   UNL     1       2.570   2.436  21.500  0.00  0.00    +0.000 C 
ENDBRANCH  17  19
ENDBRANCH  14  17
ENDBRANCH   4  14
BRANCH   1  22
ATOM     22  C   UNL     1       1.954  10.147  18.143  0.00  0.00    +0.000 C 
BRANCH  22  24
ATOM     23  N   UNL     1       0.868  11.156  20.113  0.00  0.00    +0.000 N 
ATOM     24  C   UNL     1       0.694  10.450  18.924  0.00  0.00    +0.000 C 
ATOM     25  O   UNL     1      -0.392  10.095  18.458  0.00  0.00    +0.000 OA
ATOM     26  H   UNL     1       1.792  11.521  20.320  0.00  0.00    +0.000 HD
BRANCH  23  31
ATOM     27  C   UNL     1      -3.435  12.603  23.673  0.00  0.00    +0.000 C 
ATOM     28  C   UNL     1      -2.305  12.270  22.738  0.00  0.00    +0.000 A 
ATOM     29  C   UNL     1      -1.490  11.176  23.030  0.00  0.00    +0.000 A 
ATOM     30  C   UNL     1      -0.439  10.814  22.182  0.00  0.00    +0.000 A 
ATOM     31  C   UNL     1      -0.173  11.523  21.013  0.00  0.00    +0.000 A 
ATOM     32  C   UNL     1      -0.965  12.643  20.724  0.00  0.00    +0.000 A 
ATOM     33  C   UNL     1      -2.027  13.006  21.577  0.00  0.00    +0.000 A 
ATOM     34 CL   UNL     1      -2.983  14.381  21.146  0.00  0.00    +0.000 Cl
ENDBRANCH  23  31
ENDBRANCH  22  24
ENDBRANCH   1  22
TORSDOF 9
ENDMDL
