MODEL 1
REMARK VINA RESULT:      -7.0      0.000      0.000
REMARK  Name = 
REMARK  3 active torsions:
REMARK  status: ('A' for Active; 'I' for Inactive)
REMARK    1  A    between atoms: C_5  and  C_7
REMARK    2  A    between atoms: C_7  and  S_8
REMARK    3  A    between atoms: S_8  and  C_9
REMARK                            x       y       z     vdW  Elec       q    Type
REMARK                         _______ _______ _______ _____ _____    ______ ____
ROOT
ATOM      1  O   UNL     1       2.499   8.132  19.273  0.00  0.00    +0.000 OA
ATOM      2  C   UNL     1       2.472   6.911  19.149  0.00  0.00    +0.000 C 
ATOM      3  C   UNL     1       2.578   6.221  17.797  0.00  0.00    +0.000 C 
ATOM      4  N   UNL     1       3.090   4.843  17.869  0.00  0.00    +0.000 N 
ATOM      5  C   UNL     1       4.110   4.334  17.051  0.00  0.00    +0.000 C 
ATOM      6  O   UNL     1       4.561   3.190  17.173  0.00  0.00    +0.000 OA
ATOM      7  C   UNL     1       2.513   4.057  18.927  0.00  0.00    +0.000 A 
ATOM      8  C   UNL     1       2.403   2.664  18.870  0.00  0.00    +0.000 A 
ATOM      9  C   UNL     1       1.889   1.942  19.952  0.00  0.00    +0.000 A 
ATOM     10  C   UNL     1       1.493   2.603  21.113  0.00  0.00    +0.000 A 
ATOM     11  C   UNL     1       1.589   3.989  21.188  0.00  0.00    +0.000 A 
ATOM     12  C   UNL     1       2.072   4.712  20.094  0.00  0.00    +0.000 A 
ATOM     13  N   UNL     1       2.162   6.103  20.209  0.00  0.00    +0.000 N 
ATOM     14  H   UNL     1       1.970   6.565  21.085  0.00  0.00    +0.000 HD
ENDROOT
BRANCH   5  15
ATOM     15  C   UNL     1       4.765   5.292  16.051  0.00  0.00    +0.000 C 
BRANCH  15  16
ATOM     16  S   UNL     1       6.497   4.848  15.705  0.00  0.00    +0.000 S 
BRANCH  16  17
ATOM     17  C   UNL     1       7.224   5.360  17.209  0.00  0.00    +0.000 A 
ATOM     18  N   UNL     1       7.632   4.501  18.120  0.00  0.00    +0.000 NA
ATOM     19  N   UNL     1       8.142   5.133  19.238  0.00  0.00    +0.000 NA
ATOM     20  C   UNL     1       8.098   6.443  19.115  0.00  0.00    +0.000 A 
ATOM     21  S   UNL     1       7.456   7.004  17.627  0.00  0.00    +0.000 S 
ENDBRANCH  16  17
ENDBRANCH  15  16
ENDBRANCH   5  15
TORSDOF 3
ENDMDL
MODEL 2
REMARK VINA RESULT:      -6.9      1.812      2.576
REMARK  Name = 
REMARK  3 active torsions:
REMARK  status: ('A' for Active; 'I' for Inactive)
REMARK    1  A    between atoms: C_5  and  C_7
REMARK    2  A    between atoms: C_7  and  S_8
REMARK    3  A    between atoms: S_8  and  C_9
REMARK                            x       y       z     vdW  Elec       q    Type
REMARK                         _______ _______ _______ _____ _____    ______ ____
ROOT
ATOM      1  O   UNL     1       1.924   7.545  20.650  0.00  0.00    +0.000 OA
ATOM      2  C   UNL     1       2.204   6.475  20.116  0.00  0.00    +0.000 C 
ATOM      3  C   UNL     1       3.391   6.312  19.178  0.00  0.00    +0.000 C 
ATOM      4  N   UNL     1       3.903   4.934  19.098  0.00  0.00    +0.000 N 
ATOM      5  C   UNL     1       5.258   4.586  19.204  0.00  0.00    +0.000 C 
ATOM      6  O   UNL     1       5.654   3.415  19.191  0.00  0.00    +0.000 OA
ATOM      7  C   UNL     1       2.876   3.933  18.985  0.00  0.00    +0.000 A 
ATOM      8  C   UNL     1       3.081   2.696  18.365  0.00  0.00    +0.000 A 
ATOM      9  C   UNL     1       2.067   1.734  18.337  0.00  0.00    +0.000 A 
ATOM     10  C   UNL     1       0.838   1.989  18.942  0.00  0.00    +0.000 A 
ATOM     11  C   UNL     1       0.612   3.216  19.559  0.00  0.00    +0.000 A 
ATOM     12  C   UNL     1       1.614   4.189  19.558  0.00  0.00    +0.000 A 
ATOM     13  N   UNL     1       1.354   5.407  20.194  0.00  0.00    +0.000 N 
ATOM     14  H   UNL     1       0.502   5.548  20.717  0.00  0.00    +0.000 HD
ENDROOT
BRANCH   5  15
ATOM     15  C   UNL     1       6.263   5.711  19.469  0.00  0.00    +0.000 C 
BRANCH  15  16
ATOM     16  S   UNL     1       7.635   5.705  18.272  0.00  0.00    +0.000 S 
BRANCH  16  17
ATOM     17  C   UNL     1       6.711   5.722  16.788  0.00  0.00    +0.000 A 
ATOM     18  N   UNL     1       5.993   6.763  16.421  0.00  0.00    +0.000 NA
ATOM     19  N   UNL     1       5.323   6.538  15.232  0.00  0.00    +0.000 NA
ATOM     20  C   UNL     1       5.574   5.337  14.757  0.00  0.00    +0.000 A 
ATOM     21  S   UNL     1       6.655   4.400  15.702  0.00  0.00    +0.000 S 
ENDBRANCH  16  17
ENDBRANCH  15  16
ENDBRANCH   5  15
TORSDOF 3
ENDMDL
MODEL 3
REMARK VINA RESULT:      -6.8      3.141      6.070
REMARK  Name = 
REMARK  3 active torsions:
REMARK  status: ('A' for Active; 'I' for Inactive)
REMARK    1  A    between atoms: C_5  and  C_7
REMARK    2  A    between atoms: C_7  and  S_8
REMARK    3  A    between atoms: S_8  and  C_9
REMARK                            x       y       z     vdW  Elec       q    Type
REMARK                         _______ _______ _______ _____ _____    ______ ____
ROOT
ATOM      1  O   UNL     1       8.211   7.718  18.227  0.00  0.00    +0.000 OA
ATOM      2  C   UNL     1       7.515   6.857  17.694  0.00  0.00    +0.000 C 
ATOM      3  C   UNL     1       6.602   5.933  18.488  0.00  0.00    +0.000 C 
ATOM      4  N   UNL     1       5.474   5.398  17.709  0.00  0.00    +0.000 N 
ATOM      5  C   UNL     1       4.140   5.396  18.146  0.00  0.00    +0.000 C 
ATOM      6  O   UNL     1       3.205   4.992  17.447  0.00  0.00    +0.000 OA
ATOM      7  C   UNL     1       5.834   4.940  16.394  0.00  0.00    +0.000 A 
ATOM      8  C   UNL     1       5.130   3.940  15.714  0.00  0.00    +0.000 A 
ATOM      9  C   UNL     1       5.485   3.575  14.412  0.00  0.00    +0.000 A 
ATOM     10  C   UNL     1       6.539   4.216  13.764  0.00  0.00    +0.000 A 
ATOM     11  C   UNL     1       7.256   5.209  14.425  0.00  0.00    +0.000 A 
ATOM     12  C   UNL     1       6.922   5.550  15.738  0.00  0.00    +0.000 A 
ATOM     13  N   UNL     1       7.659   6.558  16.367  0.00  0.00    +0.000 N 
ATOM     14  H   UNL     1       8.354   7.087  15.860  0.00  0.00    +0.000 HD
ENDROOT
BRANCH   5  15
ATOM     15  C   UNL     1       3.836   6.039  19.503  0.00  0.00    +0.000 C 
BRANCH  15  16
ATOM     16  S   UNL     1       2.048   6.119  19.840  0.00  0.00    +0.000 S 
BRANCH  16  17
ATOM     17  C   UNL     1       1.837   4.559  20.600  0.00  0.00    +0.000 A 
ATOM     18  N   UNL     1       2.395   4.260  21.755  0.00  0.00    +0.000 NA
ATOM     19  N   UNL     1       2.117   2.963  22.144  0.00  0.00    +0.000 NA
ATOM     20  C   UNL     1       1.357   2.347  21.264  0.00  0.00    +0.000 A 
ATOM     21  S   UNL     1       0.905   3.299  19.912  0.00  0.00    +0.000 S 
ENDBRANCH  16  17
ENDBRANCH  15  16
ENDBRANCH   5  15
TORSDOF 3
ENDMDL
MODEL 4
REMARK VINA RESULT:      -6.8      1.609      2.922
REMARK  Name = 
REMARK  3 active torsions:
REMARK  status: ('A' for Active; 'I' for Inactive)
REMARK    1  A    between atoms: C_5  and  C_7
REMARK    2  A    between atoms: C_7  and  S_8
REMARK    3  A    between atoms: S_8  and  C_9
REMARK                            x       y       z     vdW  Elec       q    Type
REMARK                         _______ _______ _______ _____ _____    ______ ____
ROOT
ATOM      1  O   UNL     1       3.240   0.976  18.690  0.00  0.00    +0.000 OA
ATOM      2  C   UNL     1       3.264   2.200  18.783  0.00  0.00    +0.000 C 
ATOM      3  C   UNL     1       4.443   3.035  18.305  0.00  0.00    +0.000 C 
ATOM      4  N   UNL     1       4.091   4.424  17.968  0.00  0.00    +0.000 N 
ATOM      5  C   UNL     1       4.479   5.075  16.787  0.00  0.00    +0.000 C 
ATOM      6  O   UNL     1       4.121   6.222  16.502  0.00  0.00    +0.000 OA
ATOM      7  C   UNL     1       3.223   5.058  18.924  0.00  0.00    +0.000 A 
ATOM      8  C   UNL     1       3.198   6.442  19.132  0.00  0.00    +0.000 A 
ATOM      9  C   UNL     1       2.292   7.013  20.031  0.00  0.00    +0.000 A 
ATOM     10  C   UNL     1       1.386   6.211  20.722  0.00  0.00    +0.000 A 
ATOM     11  C   UNL     1       1.398   4.832  20.533  0.00  0.00    +0.000 A 
ATOM     12  C   UNL     1       2.326   4.259  19.660  0.00  0.00    +0.000 A 
ATOM     13  N   UNL     1       2.304   2.871  19.490  0.00  0.00    +0.000 N 
ATOM     14  H   UNL     1       1.582   2.307  19.914  0.00  0.00    +0.000 HD
ENDROOT
BRANCH   5  15
ATOM     15  C   UNL     1       5.281   4.267  15.761  0.00  0.00    +0.000 C 
BRANCH  15  16
ATOM     16  S   UNL     1       6.904   5.016  15.413  0.00  0.00    +0.000 S 
BRANCH  16  17
ATOM     17  C   UNL     1       7.399   5.384  17.049  0.00  0.00    +0.000 A 
ATOM     18  N   UNL     1       7.743   4.445  17.906  0.00  0.00    +0.000 NA
ATOM     19  N   UNL     1       8.064   4.967  19.145  0.00  0.00    +0.000 NA
ATOM     20  C   UNL     1       7.951   6.278  19.162  0.00  0.00    +0.000 A 
ATOM     21  S   UNL     1       7.469   6.977  17.671  0.00  0.00    +0.000 S 
ENDBRANCH  16  17
ENDBRANCH  15  16
ENDBRANCH   5  15
TORSDOF 3
ENDMDL
MODEL 5
REMARK VINA RESULT:      -6.8      1.874      2.562
REMARK  Name = 
REMARK  3 active torsions:
REMARK  status: ('A' for Active; 'I' for Inactive)
REMARK    1  A    between atoms: C_5  and  C_7
REMARK    2  A    between atoms: C_7  and  S_8
REMARK    3  A    between atoms: S_8  and  C_9
REMARK                            x       y       z     vdW  Elec       q    Type
REMARK                         _______ _______ _______ _____ _____    ______ ____
ROOT
ATOM      1  O   UNL     1       1.981   8.245  19.642  0.00  0.00    +0.000 OA
ATOM      2  C   UNL     1       2.281   7.055  19.652  0.00  0.00    +0.000 C 
ATOM      3  C   UNL     1       3.104   6.407  18.547  0.00  0.00    +0.000 C 
ATOM      4  N   UNL     1       3.829   5.199  18.973  0.00  0.00    +0.000 N 
ATOM      5  C   UNL     1       5.185   4.955  18.709  0.00  0.00    +0.000 C 
ATOM      6  O   UNL     1       5.783   3.959  19.129  0.00  0.00    +0.000 OA
ATOM      7  C   UNL     1       3.046   4.299  19.777  0.00  0.00    +0.000 A 
ATOM      8  C   UNL     1       3.284   2.921  19.832  0.00  0.00    +0.000 A 
ATOM      9  C   UNL     1       2.532   2.099  20.677  0.00  0.00    +0.000 A 
ATOM     10  C   UNL     1       1.543   2.646  21.493  0.00  0.00    +0.000 A 
ATOM     11  C   UNL     1       1.288   4.013  21.450  0.00  0.00    +0.000 A 
ATOM     12  C   UNL     1       2.016   4.828  20.580  0.00  0.00    +0.000 A 
ATOM     13  N   UNL     1       1.738   6.199  20.570  0.00  0.00    +0.000 N 
ATOM     14  H   UNL     1       1.093   6.603  21.234  0.00  0.00    +0.000 HD
ENDROOT
BRANCH   5  15
ATOM     15  C   UNL     1       5.972   6.042  17.970  0.00  0.00    +0.000 C 
BRANCH  15  16
ATOM     16  S   UNL     1       7.600   5.451  17.408  0.00  0.00    +0.000 S 
BRANCH  16  17
ATOM     17  C   UNL     1       7.184   4.998  15.772  0.00  0.00    +0.000 A 
ATOM     18  N   UNL     1       7.754   5.555  14.723  0.00  0.00    +0.000 NA
ATOM     19  N   UNL     1       7.245   5.065  13.535  0.00  0.00    +0.000 NA
ATOM     20  C   UNL     1       6.318   4.156  13.746  0.00  0.00    +0.000 A 
ATOM     21  S   UNL     1       6.009   3.812  15.397  0.00  0.00    +0.000 S 
ENDBRANCH  16  17
ENDBRANCH  15  16
ENDBRANCH   5  15
TORSDOF 3
ENDMDL
MODEL 6
REMARK VINA RESULT:      -6.8      1.172      1.172
REMARK  Name = 
REMARK  3 active torsions:
REMARK  status: ('A' for Active; 'I' for Inactive)
REMARK    1  A    between atoms: C_5  and  C_7
REMARK    2  A    between atoms: C_7  and  S_8
REMARK    3  A    between atoms: S_8  and  C_9
REMARK                            x       y       z     vdW  Elec       q    Type
REMARK                         _______ _______ _______ _____ _____    ______ ____
ROOT
ATOM      1  O   UNL     1       2.864   8.016  18.601  0.00  0.00    +0.000 OA
ATOM      2  C   UNL     1       2.771   6.800  18.741  0.00  0.00    +0.000 C 
ATOM      3  C   UNL     1       2.725   5.840  17.560  0.00  0.00    +0.000 C 
ATOM      4  N   UNL     1       3.178   4.477  17.882  0.00  0.00    +0.000 N 
ATOM      5  C   UNL     1       4.097   3.746  17.114  0.00  0.00    +0.000 C 
ATOM      6  O   UNL     1       4.504   2.626  17.439  0.00  0.00    +0.000 OA
ATOM      7  C   UNL     1       2.662   3.965  19.124  0.00  0.00    +0.000 A 
ATOM      8  C   UNL     1       2.484   2.600  19.371  0.00  0.00    +0.000 A 
ATOM      9  C   UNL     1       2.036   2.152  20.618  0.00  0.00    +0.000 A 
ATOM     10  C   UNL     1       1.776   3.062  21.640  0.00  0.00    +0.000 A 
ATOM     11  C   UNL     1       1.941   4.425  21.413  0.00  0.00    +0.000 A 
ATOM     12  C   UNL     1       2.357   4.873  20.157  0.00  0.00    +0.000 A 
ATOM     13  N   UNL     1       2.520   6.250  19.967  0.00  0.00    +0.000 N 
ATOM     14  H   UNL     1       2.428   6.895  20.739  0.00  0.00    +0.000 HD
ENDROOT
BRANCH   5  15
ATOM     15  C   UNL     1       4.703   4.435  15.886  0.00  0.00    +0.000 C 
BRANCH  15  16
ATOM     16  S   UNL     1       6.495   4.141  15.749  0.00  0.00    +0.000 S 
BRANCH  16  17
ATOM     17  C   UNL     1       7.070   5.430  16.781  0.00  0.00    +0.000 A 
ATOM     18  N   UNL     1       7.257   6.655  16.335  0.00  0.00    +0.000 NA
ATOM     19  N   UNL     1       7.745   7.496  17.318  0.00  0.00    +0.000 NA
ATOM     20  C   UNL     1       7.901   6.863  18.461  0.00  0.00    +0.000 A 
ATOM     21  S   UNL     1       7.445   5.210  18.436  0.00  0.00    +0.000 S 
ENDBRANCH  16  17
ENDBRANCH  15  16
ENDBRANCH   5  15
TORSDOF 3
ENDMDL
MODEL 7
REMARK VINA RESULT:      -6.6      3.092      5.634
REMARK  Name = 
REMARK  3 active torsions:
REMARK  status: ('A' for Active; 'I' for Inactive)
REMARK    1  A    between atoms: C_5  and  C_7
REMARK    2  A    between atoms: C_7  and  S_8
REMARK    3  A    between atoms: S_8  and  C_9
REMARK                            x       y       z     vdW  Elec       q    Type
REMARK                         _______ _______ _______ _____ _____    ______ ____
ROOT
ATOM      1  O   UNL     1       8.195   7.223  18.667  0.00  0.00    +0.000 OA
ATOM      2  C   UNL     1       7.463   6.490  18.008  0.00  0.00    +0.000 C 
ATOM      3  C   UNL     1       6.423   5.580  18.647  0.00  0.00    +0.000 C 
ATOM      4  N   UNL     1       5.305   5.234  17.755  0.00  0.00    +0.000 N 
ATOM      5  C   UNL     1       3.951   5.313  18.115  0.00  0.00    +0.000 C 
ATOM      6  O   UNL     1       3.031   5.071  17.327  0.00  0.00    +0.000 OA
ATOM      7  C   UNL     1       5.708   4.880  16.420  0.00  0.00    +0.000 A 
ATOM      8  C   UNL     1       4.964   4.025  15.599  0.00  0.00    +0.000 A 
ATOM      9  C   UNL     1       5.370   3.762  14.287  0.00  0.00    +0.000 A 
ATOM     10  C   UNL     1       6.515   4.363  13.771  0.00  0.00    +0.000 A 
ATOM     11  C   UNL     1       7.272   5.213  14.573  0.00  0.00    +0.000 A 
ATOM     12  C   UNL     1       6.885   5.449  15.894  0.00  0.00    +0.000 A 
ATOM     13  N   UNL     1       7.665   6.314  16.667  0.00  0.00    +0.000 N 
ATOM     14  H   UNL     1       8.435   6.825  16.258  0.00  0.00    +0.000 HD
ENDROOT
BRANCH   5  15
ATOM     15  C   UNL     1       3.617   5.841  19.514  0.00  0.00    +0.000 C 
BRANCH  15  16
ATOM     16  S   UNL     1       2.566   4.687  20.451  0.00  0.00    +0.000 S 
BRANCH  16  17
ATOM     17  C   UNL     1       3.267   3.176  19.923  0.00  0.00    +0.000 A 
ATOM     18  N   UNL     1       4.483   2.807  20.271  0.00  0.00    +0.000 NA
ATOM     19  N   UNL     1       4.837   1.594  19.710  0.00  0.00    +0.000 NA
ATOM     20  C   UNL     1       3.868   1.104  18.967  0.00  0.00    +0.000 A 
ATOM     21  S   UNL     1       2.448   2.065  18.911  0.00  0.00    +0.000 S 
ENDBRANCH  16  17
ENDBRANCH  15  16
ENDBRANCH   5  15
TORSDOF 3
ENDMDL
MODEL 8
REMARK VINA RESULT:      -6.5      2.647      4.130
REMARK  Name = 
REMARK  3 active torsions:
REMARK  status: ('A' for Active; 'I' for Inactive)
REMARK    1  A    between atoms: C_5  and  C_7
REMARK    2  A    between atoms: C_7  and  S_8
REMARK    3  A    between atoms: S_8  and  C_9
REMARK                            x       y       z     vdW  Elec       q    Type
REMARK                         _______ _______ _______ _____ _____    ______ ____
ROOT
ATOM      1  O   UNL     1       4.476   1.696  19.465  0.00  0.00    +0.000 OA
ATOM      2  C   UNL     1       4.206   2.893  19.459  0.00  0.00    +0.000 C 
ATOM      3  C   UNL     1       5.240   3.965  19.146  0.00  0.00    +0.000 C 
ATOM      4  N   UNL     1       4.662   5.219  18.634  0.00  0.00    +0.000 N 
ATOM      5  C   UNL     1       5.128   5.899  17.498  0.00  0.00    +0.000 C 
ATOM      6  O   UNL     1       4.587   6.919  17.057  0.00  0.00    +0.000 OA
ATOM      7  C   UNL     1       3.498   5.665  19.352  0.00  0.00    +0.000 A 
ATOM      8  C   UNL     1       3.122   7.010  19.436  0.00  0.00    +0.000 A 
ATOM      9  C   UNL     1       1.948   7.384  20.096  0.00  0.00    +0.000 A 
ATOM     10  C   UNL     1       1.123   6.416  20.667  0.00  0.00    +0.000 A 
ATOM     11  C   UNL     1       1.482   5.073  20.599  0.00  0.00    +0.000 A 
ATOM     12  C   UNL     1       2.673   4.704  19.969  0.00  0.00    +0.000 A 
ATOM     13  N   UNL     1       2.997   3.344  19.913  0.00  0.00    +0.000 N 
ATOM     14  H   UNL     1       2.349   2.642  20.237  0.00  0.00    +0.000 HD
ENDROOT
BRANCH   5  15
ATOM     15  C   UNL     1       6.282   5.266  16.714  0.00  0.00    +0.000 C 
BRANCH  15  16
ATOM     16  S   UNL     1       5.714   3.936  15.608  0.00  0.00    +0.000 S 
BRANCH  16  17
ATOM     17  C   UNL     1       6.569   4.394  14.155  0.00  0.00    +0.000 A 
ATOM     18  N   UNL     1       7.473   5.353  14.145  0.00  0.00    +0.000 NA
ATOM     19  N   UNL     1       7.992   5.564  12.882  0.00  0.00    +0.000 NA
ATOM     20  C   UNL     1       7.458   4.749  11.998  0.00  0.00    +0.000 A 
ATOM     21  S   UNL     1       6.303   3.653  12.635  0.00  0.00    +0.000 S 
ENDBRANCH  16  17
ENDBRANCH  15  16
ENDBRANCH   5  15
TORSDOF 3
ENDMDL
MODEL 9
REMARK VINA RESULT:      -6.5      2.901      5.634
REMARK  Name = 
REMARK  3 active torsions:
REMARK  status: ('A' for Active; 'I' for Inactive)
REMARK    1  A    between atoms: C_5  and  C_7
REMARK    2  A    between atoms: C_7  and  S_8
REMARK    3  A    between atoms: S_8  and  C_9
REMARK                            x       y       z     vdW  Elec       q    Type
REMARK                         _______ _______ _______ _____ _____    ______ ____
ROOT
ATOM      1  O   UNL     1       7.881   5.586  20.270  0.00  0.00    +0.000 OA
ATOM      2  C   UNL     1       7.161   5.373  19.299  0.00  0.00    +0.000 C 
ATOM      3  C   UNL     1       5.735   4.859  19.432  0.00  0.00    +0.000 C 
ATOM      4  N   UNL     1       4.870   5.197  18.290  0.00  0.00    +0.000 N 
ATOM      5  C   UNL     1       3.585   5.747  18.406  0.00  0.00    +0.000 C 
ATOM      6  O   UNL     1       2.903   6.076  17.430  0.00  0.00    +0.000 OA
ATOM      7  C   UNL     1       5.489   4.997  17.007  0.00  0.00    +0.000 A 
ATOM      8  C   UNL     1       4.761   4.715  15.845  0.00  0.00    +0.000 A 
ATOM      9  C   UNL     1       5.407   4.589  14.611  0.00  0.00    +0.000 A 
ATOM     10  C   UNL     1       6.786   4.761  14.518  0.00  0.00    +0.000 A 
ATOM     11  C   UNL     1       7.529   5.037  15.663  0.00  0.00    +0.000 A 
ATOM     12  C   UNL     1       6.887   5.129  16.900  0.00  0.00    +0.000 A 
ATOM     13  N   UNL     1       7.664   5.415  18.028  0.00  0.00    +0.000 N 
ATOM     14  H   UNL     1       8.645   5.638  17.940  0.00  0.00    +0.000 HD
ENDROOT
BRANCH   5  15
ATOM     15  C   UNL     1       3.070   6.061  19.815  0.00  0.00    +0.000 C 
BRANCH  15  16
ATOM     16  S   UNL     1       1.794   4.881  20.359  0.00  0.00    +0.000 S 
BRANCH  16  17
ATOM     17  C   UNL     1       2.478   3.409  19.710  0.00  0.00    +0.000 A 
ATOM     18  N   UNL     1       3.445   2.755  20.321  0.00  0.00    +0.000 NA
ATOM     19  N   UNL     1       3.848   1.642  19.608  0.00  0.00    +0.000 NA
ATOM     20  C   UNL     1       3.162   1.507  18.493  0.00  0.00    +0.000 A 
ATOM     21  S   UNL     1       1.962   2.706  18.237  0.00  0.00    +0.000 S 
ENDBRANCH  16  17
ENDBRANCH  15  16
ENDBRANCH   5  15
TORSDOF 3
ENDMDL
