MODEL 1
REMARK VINA RESULT:      -7.9      0.000      0.000
REMARK  Name = 
REMARK  2 active torsions:
REMARK  status: ('A' for Active; 'I' for Inactive)
REMARK    1  A    between atoms: C_4  and  C_5
REMARK    2  A    between atoms: C_8  and  C_9
REMARK                            x       y       z     vdW  Elec       q    Type
REMARK                         _______ _______ _______ _____ _____    ______ ____
ROOT
ATOM      1  C   UNL     1       6.684   5.265  16.039  0.00  0.00    +0.000 C 
ATOM      2  N   UNL     1       6.642   6.479  16.476  0.00  0.00    +0.000 NA
ATOM      3  O   UNL     1       6.479   6.355  17.874  0.00  0.00    +0.000 OA
ATOM      4  C   UNL     1       6.326   4.951  18.129  0.00  0.00    +0.000 C 
ATOM      5  O   UNL     1       6.593   4.252  16.932  0.00  0.00    +0.000 OA
ENDROOT
BRANCH   4   6
ATOM      6  C   UNL     1       4.919   4.611  18.585  0.00  0.00    +0.000 A 
ATOM      7  C   UNL     1       4.234   5.438  19.511  0.00  0.00    +0.000 A 
ATOM      8  C   UNL     1       2.913   5.174  19.883  0.00  0.00    +0.000 A 
ATOM      9  C   UNL     1       2.299   4.078  19.321  0.00  0.00    +0.000 A 
ATOM     10  C   UNL     1       2.946   3.267  18.423  0.00  0.00    +0.000 A 
ATOM     11  C   UNL     1       4.248   3.505  18.028  0.00  0.00    +0.000 A 
ATOM     12  O   UNL     1       2.157   2.246  17.990  0.00  0.00    +0.000 OA
ATOM     13  C   UNL     1       0.952   2.494  18.744  0.00  0.00    +0.000 C 
ATOM     14  O   UNL     1       1.022   3.679  19.564  0.00  0.00    +0.000 OA
ENDBRANCH   4   6
BRANCH   1  18
ATOM     15  C   UNL     1       6.632   3.879  12.655  0.00  0.00    +0.000 A 
ATOM     16  C   UNL     1       7.626   4.827  12.646  0.00  0.00    +0.000 A 
ATOM     17  O   UNL     1       7.716   5.434  13.857  0.00  0.00    +0.000 OA
ATOM     18  C   UNL     1       6.773   4.864  14.670  0.00  0.00    +0.000 A 
ATOM     19  C   UNL     1       6.071   3.910  13.954  0.00  0.00    +0.000 A 
ENDBRANCH   1  18
TORSDOF 2
ENDMDL
MODEL 2
REMARK VINA RESULT:      -7.8      1.046      1.082
REMARK  Name = 
REMARK  2 active torsions:
REMARK  status: ('A' for Active; 'I' for Inactive)
REMARK    1  A    between atoms: C_4  and  C_5
REMARK    2  A    between atoms: C_8  and  C_9
REMARK                            x       y       z     vdW  Elec       q    Type
REMARK                         _______ _______ _______ _____ _____    ______ ____
ROOT
ATOM      1  C   UNL     1       7.038   5.138  15.923  0.00  0.00    +0.000 C 
ATOM      2  N   UNL     1       7.319   6.303  16.402  0.00  0.00    +0.000 NA
ATOM      3  O   UNL     1       7.201   6.158  17.802  0.00  0.00    +0.000 OA
ATOM      4  C   UNL     1       6.718   4.824  18.020  0.00  0.00    +0.000 C 
ATOM      5  O   UNL     1       6.745   4.137  16.786  0.00  0.00    +0.000 OA
ENDROOT
BRANCH   4   6
ATOM      6  C   UNL     1       5.295   4.818  18.547  0.00  0.00    +0.000 A 
ATOM      7  C   UNL     1       4.400   5.875  18.242  0.00  0.00    +0.000 A 
ATOM      8  C   UNL     1       3.068   5.845  18.661  0.00  0.00    +0.000 A 
ATOM      9  C   UNL     1       2.653   4.752  19.387  0.00  0.00    +0.000 A 
ATOM     10  C   UNL     1       3.504   3.720  19.692  0.00  0.00    +0.000 A 
ATOM     11  C   UNL     1       4.824   3.715  19.285  0.00  0.00    +0.000 A 
ATOM     12  O   UNL     1       2.890   2.742  20.413  0.00  0.00    +0.000 OA
ATOM     13  C   UNL     1       1.564   3.296  20.550  0.00  0.00    +0.000 C 
ATOM     14  O   UNL     1       1.397   4.556  19.868  0.00  0.00    +0.000 OA
ENDBRANCH   4   6
BRANCH   1  18
ATOM     15  C   UNL     1       6.577   3.880  12.520  0.00  0.00    +0.000 A 
ATOM     16  C   UNL     1       7.540   4.856  12.422  0.00  0.00    +0.000 A 
ATOM     17  O   UNL     1       7.773   5.419  13.635  0.00  0.00    +0.000 OA
ATOM     18  C   UNL     1       6.957   4.792  14.539  0.00  0.00    +0.000 A 
ATOM     19  C   UNL     1       6.190   3.847  13.882  0.00  0.00    +0.000 A 
ENDBRANCH   1  18
TORSDOF 2
ENDMDL
MODEL 3
REMARK VINA RESULT:      -7.8      0.838      1.580
REMARK  Name = 
REMARK  2 active torsions:
REMARK  status: ('A' for Active; 'I' for Inactive)
REMARK    1  A    between atoms: C_4  and  C_5
REMARK    2  A    between atoms: C_8  and  C_9
REMARK                            x       y       z     vdW  Elec       q    Type
REMARK                         _______ _______ _______ _____ _____    ______ ____
ROOT
ATOM      1  C   UNL     1       6.680   5.104  15.664  0.00  0.00    +0.000 C 
ATOM      2  N   UNL     1       6.698   6.287  16.179  0.00  0.00    +0.000 NA
ATOM      3  O   UNL     1       6.468   6.086  17.558  0.00  0.00    +0.000 OA
ATOM      4  C   UNL     1       6.214   4.682  17.713  0.00  0.00    +0.000 C 
ATOM      5  O   UNL     1       6.487   4.044  16.483  0.00  0.00    +0.000 OA
ENDROOT
BRANCH   4   6
ATOM      6  C   UNL     1       4.770   4.407  18.091  0.00  0.00    +0.000 A 
ATOM      7  C   UNL     1       3.917   3.677  17.224  0.00  0.00    +0.000 A 
ATOM      8  C   UNL     1       2.608   3.357  17.592  0.00  0.00    +0.000 A 
ATOM      9  C   UNL     1       2.172   3.778  18.827  0.00  0.00    +0.000 A 
ATOM     10  C   UNL     1       2.982   4.485  19.679  0.00  0.00    +0.000 A 
ATOM     11  C   UNL     1       4.284   4.811  19.349  0.00  0.00    +0.000 A 
ATOM     12  O   UNL     1       2.355   4.800  20.845  0.00  0.00    +0.000 OA
ATOM     13  C   UNL     1       1.047   4.234  20.612  0.00  0.00    +0.000 C 
ATOM     14  O   UNL     1       0.936   3.551  19.347  0.00  0.00    +0.000 OA
ENDBRANCH   4   6
BRANCH   1  18
ATOM     15  C   UNL     1       6.751   3.899  12.212  0.00  0.00    +0.000 A 
ATOM     16  C   UNL     1       7.642   4.944  12.252  0.00  0.00    +0.000 A 
ATOM     17  O   UNL     1       7.675   5.494  13.493  0.00  0.00    +0.000 OA
ATOM     18  C   UNL     1       6.802   4.786  14.276  0.00  0.00    +0.000 A 
ATOM     19  C   UNL     1       6.199   3.804  13.512  0.00  0.00    +0.000 A 
ENDBRANCH   1  18
TORSDOF 2
ENDMDL
MODEL 4
REMARK VINA RESULT:      -7.6      2.317      3.587
REMARK  Name = 
REMARK  2 active torsions:
REMARK  status: ('A' for Active; 'I' for Inactive)
REMARK    1  A    between atoms: C_4  and  C_5
REMARK    2  A    between atoms: C_8  and  C_9
REMARK                            x       y       z     vdW  Elec       q    Type
REMARK                         _______ _______ _______ _____ _____    ______ ____
ROOT
ATOM      1  C   UNL     1       6.413   5.489  16.875  0.00  0.00    +0.000 C 
ATOM      2  N   UNL     1       6.873   4.364  16.439  0.00  0.00    +0.000 NA
ATOM      3  O   UNL     1       5.730   3.626  16.062  0.00  0.00    +0.000 OA
ATOM      4  C   UNL     1       4.602   4.426  16.443  0.00  0.00    +0.000 C 
ATOM      5  O   UNL     1       5.075   5.693  16.852  0.00  0.00    +0.000 OA
ENDROOT
BRANCH   4   6
ATOM      6  C   UNL     1       3.830   3.804  17.592  0.00  0.00    +0.000 A 
ATOM      7  C   UNL     1       3.495   2.426  17.582  0.00  0.00    +0.000 A 
ATOM      8  C   UNL     1       2.848   1.826  18.665  0.00  0.00    +0.000 A 
ATOM      9  C   UNL     1       2.542   2.623  19.745  0.00  0.00    +0.000 A 
ATOM     10  C   UNL     1       2.859   3.958  19.773  0.00  0.00    +0.000 A 
ATOM     11  C   UNL     1       3.505   4.578  18.722  0.00  0.00    +0.000 A 
ATOM     12  O   UNL     1       2.470   4.555  20.932  0.00  0.00    +0.000 OA
ATOM     13  C   UNL     1       1.846   3.446  21.614  0.00  0.00    +0.000 C 
ATOM     14  O   UNL     1       1.922   2.207  20.881  0.00  0.00    +0.000 OA
ENDBRANCH   4   6
BRANCH   1  18
ATOM     15  C   UNL     1       8.424   7.943  18.693  0.00  0.00    +0.000 A 
ATOM     16  C   UNL     1       7.921   8.616  17.606  0.00  0.00    +0.000 A 
ATOM     17  O   UNL     1       7.175   7.785  16.834  0.00  0.00    +0.000 OA
ATOM     18  C   UNL     1       7.182   6.555  17.436  0.00  0.00    +0.000 A 
ATOM     19  C   UNL     1       7.960   6.611  18.578  0.00  0.00    +0.000 A 
ENDBRANCH   1  18
TORSDOF 2
ENDMDL
MODEL 5
REMARK VINA RESULT:      -7.6      1.956      2.634
REMARK  Name = 
REMARK  2 active torsions:
REMARK  status: ('A' for Active; 'I' for Inactive)
REMARK    1  A    between atoms: C_4  and  C_5
REMARK    2  A    between atoms: C_8  and  C_9
REMARK                            x       y       z     vdW  Elec       q    Type
REMARK                         _______ _______ _______ _____ _____    ______ ____
ROOT
ATOM      1  C   UNL     1       6.612   4.249  14.212  0.00  0.00    +0.000 C 
ATOM      2  N   UNL     1       7.332   5.321  14.223  0.00  0.00    +0.000 NA
ATOM      3  O   UNL     1       7.606   5.560  15.588  0.00  0.00    +0.000 OA
ATOM      4  C   UNL     1       6.865   4.569  16.316  0.00  0.00    +0.000 C 
ATOM      5  O   UNL     1       6.330   3.647  15.390  0.00  0.00    +0.000 OA
ENDROOT
BRANCH   4   6
ATOM      6  C   UNL     1       5.722   5.183  17.103  0.00  0.00    +0.000 A 
ATOM      7  C   UNL     1       5.183   6.444  16.739  0.00  0.00    +0.000 A 
ATOM      8  C   UNL     1       4.085   6.986  17.411  0.00  0.00    +0.000 A 
ATOM      9  C   UNL     1       3.544   6.255  18.444  0.00  0.00    +0.000 A 
ATOM     10  C   UNL     1       4.052   5.034  18.810  0.00  0.00    +0.000 A 
ATOM     11  C   UNL     1       5.131   4.466  18.161  0.00  0.00    +0.000 A 
ATOM     12  O   UNL     1       3.369   4.482  19.850  0.00  0.00    +0.000 OA
ATOM     13  C   UNL     1       2.394   5.514  20.113  0.00  0.00    +0.000 C 
ATOM     14  O   UNL     1       2.476   6.626  19.198  0.00  0.00    +0.000 OA
ENDBRANCH   4   6
BRANCH   1  18
ATOM     15  C   UNL     1       4.702   2.846  11.427  0.00  0.00    +0.000 A 
ATOM     16  C   UNL     1       5.953   2.286  11.331  0.00  0.00    +0.000 A 
ATOM     17  O   UNL     1       6.765   2.764  12.308  0.00  0.00    +0.000 OA
ATOM     18  C   UNL     1       6.027   3.639  13.059  0.00  0.00    +0.000 A 
ATOM     19  C   UNL     1       4.751   3.728  12.533  0.00  0.00    +0.000 A 
ENDBRANCH   1  18
TORSDOF 2
ENDMDL
MODEL 6
REMARK VINA RESULT:      -7.5      1.044      1.129
REMARK  Name = 
REMARK  2 active torsions:
REMARK  status: ('A' for Active; 'I' for Inactive)
REMARK    1  A    between atoms: C_4  and  C_5
REMARK    2  A    between atoms: C_8  and  C_9
REMARK                            x       y       z     vdW  Elec       q    Type
REMARK                         _______ _______ _______ _____ _____    ______ ____
ROOT
ATOM      1  C   UNL     1       6.305   5.201  15.644  0.00  0.00    +0.000 C 
ATOM      2  N   UNL     1       5.822   6.342  16.009  0.00  0.00    +0.000 NA
ATOM      3  O   UNL     1       5.726   6.262  17.416  0.00  0.00    +0.000 OA
ATOM      4  C   UNL     1       6.104   4.921  17.760  0.00  0.00    +0.000 C 
ATOM      5  O   UNL     1       6.602   4.290  16.599  0.00  0.00    +0.000 OA
ENDROOT
BRANCH   4   6
ATOM      6  C   UNL     1       4.925   4.119  18.280  0.00  0.00    +0.000 A 
ATOM      7  C   UNL     1       5.044   3.327  19.451  0.00  0.00    +0.000 A 
ATOM      8  C   UNL     1       3.948   2.642  19.980  0.00  0.00    +0.000 A 
ATOM      9  C   UNL     1       2.745   2.758  19.321  0.00  0.00    +0.000 A 
ATOM     10  C   UNL     1       2.611   3.520  18.188  0.00  0.00    +0.000 A 
ATOM     11  C   UNL     1       3.673   4.216  17.644  0.00  0.00    +0.000 A 
ATOM     12  O   UNL     1       1.341   3.499  17.700  0.00  0.00    +0.000 OA
ATOM     13  C   UNL     1       0.702   2.611  18.643  0.00  0.00    +0.000 C 
ATOM     14  O   UNL     1       1.580   2.167  19.697  0.00  0.00    +0.000 OA
ENDBRANCH   4   6
BRANCH   1  18
ATOM     15  C   UNL     1       6.593   3.728  12.310  0.00  0.00    +0.000 A 
ATOM     16  C   UNL     1       7.547   4.716  12.356  0.00  0.00    +0.000 A 
ATOM     17  O   UNL     1       7.510   5.358  13.552  0.00  0.00    +0.000 OA
ATOM     18  C   UNL     1       6.525   4.770  14.300  0.00  0.00    +0.000 A 
ATOM     19  C   UNL     1       5.924   3.769  13.556  0.00  0.00    +0.000 A 
ENDBRANCH   1  18
TORSDOF 2
ENDMDL
MODEL 7
REMARK VINA RESULT:      -7.5      2.119      2.823
REMARK  Name = 
REMARK  2 active torsions:
REMARK  status: ('A' for Active; 'I' for Inactive)
REMARK    1  A    between atoms: C_4  and  C_5
REMARK    2  A    between atoms: C_8  and  C_9
REMARK                            x       y       z     vdW  Elec       q    Type
REMARK                         _______ _______ _______ _____ _____    ______ ____
ROOT
ATOM      1  C   UNL     1       6.634   4.442  16.173  0.00  0.00    +0.000 C 
ATOM      2  N   UNL     1       7.466   4.826  17.082  0.00  0.00    +0.000 NA
ATOM      3  O   UNL     1       6.794   4.606  18.305  0.00  0.00    +0.000 OA
ATOM      4  C   UNL     1       5.473   4.169  17.954  0.00  0.00    +0.000 C 
ATOM      5  O   UNL     1       5.436   3.946  16.560  0.00  0.00    +0.000 OA
ENDROOT
BRANCH   4   6
ATOM      6  C   UNL     1       4.423   5.206  18.306  0.00  0.00    +0.000 A 
ATOM      7  C   UNL     1       3.704   5.129  19.527  0.00  0.00    +0.000 A 
ATOM      8  C   UNL     1       2.787   6.117  19.894  0.00  0.00    +0.000 A 
ATOM      9  C   UNL     1       2.601   7.169  19.027  0.00  0.00    +0.000 A 
ATOM     10  C   UNL     1       3.288   7.261  17.842  0.00  0.00    +0.000 A 
ATOM     11  C   UNL     1       4.207   6.306  17.454  0.00  0.00    +0.000 A 
ATOM     12  O   UNL     1       2.956   8.378  17.139  0.00  0.00    +0.000 OA
ATOM     13  C   UNL     1       1.960   8.960  18.007  0.00  0.00    +0.000 C 
ATOM     14  O   UNL     1       1.757   8.216  19.226  0.00  0.00    +0.000 OA
ENDBRANCH   4   6
BRANCH   1  18
ATOM     15  C   UNL     1       6.869   4.279  12.527  0.00  0.00    +0.000 A 
ATOM     16  C   UNL     1       7.808   5.206  12.913  0.00  0.00    +0.000 A 
ATOM     17  O   UNL     1       7.787   5.372  14.260  0.00  0.00    +0.000 OA
ATOM     18  C   UNL     1       6.829   4.530  14.760  0.00  0.00    +0.000 A 
ATOM     19  C   UNL     1       6.228   3.852  13.715  0.00  0.00    +0.000 A 
ENDBRANCH   1  18
TORSDOF 2
ENDMDL
MODEL 8
REMARK VINA RESULT:      -7.4      1.170      1.361
REMARK  Name = 
REMARK  2 active torsions:
REMARK  status: ('A' for Active; 'I' for Inactive)
REMARK    1  A    between atoms: C_4  and  C_5
REMARK    2  A    between atoms: C_8  and  C_9
REMARK                            x       y       z     vdW  Elec       q    Type
REMARK                         _______ _______ _______ _____ _____    ______ ____
ROOT
ATOM      1  C   UNL     1       6.805   5.071  15.645  0.00  0.00    +0.000 C 
ATOM      2  N   UNL     1       6.894   6.291  16.058  0.00  0.00    +0.000 NA
ATOM      3  O   UNL     1       6.715   6.215  17.457  0.00  0.00    +0.000 OA
ATOM      4  C   UNL     1       6.410   4.841  17.739  0.00  0.00    +0.000 C 
ATOM      5  O   UNL     1       6.603   4.093  16.558  0.00  0.00    +0.000 OA
ENDROOT
BRANCH   4   6
ATOM      6  C   UNL     1       4.973   4.664  18.195  0.00  0.00    +0.000 A 
ATOM      7  C   UNL     1       3.934   5.464  17.654  0.00  0.00    +0.000 A 
ATOM      8  C   UNL     1       2.599   5.262  18.013  0.00  0.00    +0.000 A 
ATOM      9  C   UNL     1       2.326   4.259  18.916  0.00  0.00    +0.000 A 
ATOM     10  C   UNL     1       3.318   3.476  19.449  0.00  0.00    +0.000 A 
ATOM     11  C   UNL     1       4.646   3.644  19.109  0.00  0.00    +0.000 A 
ATOM     12  O   UNL     1       2.831   2.546  20.316  0.00  0.00    +0.000 OA
ATOM     13  C   UNL     1       1.422   2.859  20.286  0.00  0.00    +0.000 C 
ATOM     14  O   UNL     1       1.090   3.922  19.370  0.00  0.00    +0.000 OA
ENDBRANCH   4   6
BRANCH   1  18
ATOM     15  C   UNL     1       7.185   4.343  12.081  0.00  0.00    +0.000 A 
ATOM     16  C   UNL     1       6.217   3.477  12.530  0.00  0.00    +0.000 A 
ATOM     17  O   UNL     1       6.014   3.639  13.863  0.00  0.00    +0.000 OA
ATOM     18  C   UNL     1       6.853   4.636  14.285  0.00  0.00    +0.000 A 
ATOM     19  C   UNL     1       7.605   5.082  13.213  0.00  0.00    +0.000 A 
ENDBRANCH   1  18
TORSDOF 2
ENDMDL
MODEL 9
REMARK VINA RESULT:      -7.4      1.062      1.694
REMARK  Name = 
REMARK  2 active torsions:
REMARK  status: ('A' for Active; 'I' for Inactive)
REMARK    1  A    between atoms: C_4  and  C_5
REMARK    2  A    between atoms: C_8  and  C_9
REMARK                            x       y       z     vdW  Elec       q    Type
REMARK                         _______ _______ _______ _____ _____    ______ ____
ROOT
ATOM      1  C   UNL     1       6.850   5.309  16.123  0.00  0.00    +0.000 C 
ATOM      2  N   UNL     1       6.772   6.522  16.557  0.00  0.00    +0.000 NA
ATOM      3  O   UNL     1       6.708   6.401  17.963  0.00  0.00    +0.000 OA
ATOM      4  C   UNL     1       6.647   4.993  18.234  0.00  0.00    +0.000 C 
ATOM      5  O   UNL     1       6.873   4.300  17.024  0.00  0.00    +0.000 OA
ENDROOT
BRANCH   4   6
ATOM      6  C   UNL     1       5.293   4.582  18.782  0.00  0.00    +0.000 A 
ATOM      7  C   UNL     1       4.957   3.213  18.940  0.00  0.00    +0.000 A 
ATOM      8  C   UNL     1       3.742   2.823  19.510  0.00  0.00    +0.000 A 
ATOM      9  C   UNL     1       2.878   3.817  19.912  0.00  0.00    +0.000 A 
ATOM     10  C   UNL     1       3.187   5.146  19.768  0.00  0.00    +0.000 A 
ATOM     11  C   UNL     1       4.382   5.564  19.216  0.00  0.00    +0.000 A 
ATOM     12  O   UNL     1       2.197   5.958  20.231  0.00  0.00    +0.000 OA
ATOM     13  C   UNL     1       1.221   4.982  20.653  0.00  0.00    +0.000 C 
ATOM     14  O   UNL     1       1.663   3.619  20.488  0.00  0.00    +0.000 OA
ENDBRANCH   4   6
BRANCH   1  18
ATOM     15  C   UNL     1       6.635   3.907  12.752  0.00  0.00    +0.000 A 
ATOM     16  C   UNL     1       7.614   4.868  12.686  0.00  0.00    +0.000 A 
ATOM     17  O   UNL     1       7.760   5.483  13.888  0.00  0.00    +0.000 OA
ATOM     18  C   UNL     1       6.870   4.903  14.753  0.00  0.00    +0.000 A 
ATOM     19  C   UNL     1       6.144   3.937  14.080  0.00  0.00    +0.000 A 
ENDBRANCH   1  18
TORSDOF 2
ENDMDL
