MODEL 1
REMARK VINA RESULT:      -7.3      0.000      0.000
REMARK  Name = 
REMARK  7 active torsions:
REMARK  status: ('A' for Active; 'I' for Inactive)
REMARK    1  A    between atoms: O_1  and  C_2
REMARK    2  A    between atoms: C_2  and  C_3
REMARK    3  A    between atoms: C_3  and  N_4
REMARK    4  A    between atoms: N_7  and  C_8
REMARK    5  A    between atoms: C_8  and  C_9
REMARK    6  A    between atoms: C_10  and  C_11
REMARK    7  A    between atoms: C_11  and  N_12
REMARK                            x       y       z     vdW  Elec       q    Type
REMARK                         _______ _______ _______ _____ _____    ______ ____
ROOT
ATOM      1  C   UNL     1       2.865   7.476  17.532  0.00  0.00    +0.000 C 
ENDROOT
BRANCH   1   2
ATOM      2  N   UNL     1       3.597   6.206  17.569  0.00  0.00    +0.000 N 
ATOM      3  C   UNL     1       3.067   4.966  17.725  0.00  0.00    +0.000 A 
ATOM      4  C   UNL     1       1.722   4.617  17.888  0.00  0.00    +0.000 A 
ATOM      5  C   UNL     1       1.405   3.255  18.043  0.00  0.00    +0.000 A 
ATOM      6  C   UNL     1       2.421   2.276  18.025  0.00  0.00    +0.000 A 
ATOM      7  C   UNL     1       3.766   2.646  17.854  0.00  0.00    +0.000 A 
ATOM      8  C   UNL     1       4.054   4.003  17.708  0.00  0.00    +0.000 A 
ATOM      9  C   UNL     1       5.246   4.668  17.532  0.00  0.00    +0.000 A 
ATOM     10  C   UNL     1       6.556   4.200  17.437  0.00  0.00    +0.000 A 
ATOM     11  C   UNL     1       7.578   5.146  17.255  0.00  0.00    +0.000 A 
ATOM     12  C   UNL     1       7.276   6.521  17.176  0.00  0.00    +0.000 A 
ATOM     13  C   UNL     1       5.946   6.970  17.276  0.00  0.00    +0.000 A 
ATOM     14  C   UNL     1       4.939   6.014  17.455  0.00  0.00    +0.000 A 
ENDBRANCH   1   2
BRANCH   1  16
ATOM     15  C   UNL     1       1.776   8.052  20.074  0.00  0.00    +0.000 C 
ATOM     16  C   UNL     1       2.278   7.785  18.900  0.00  0.00    +0.000 C 
BRANCH  15  17
ATOM     17  C   UNL     1       1.190   8.362  21.441  0.00  0.00    +0.000 C 
BRANCH  17  21
ATOM     18  N   UNL     1      -0.489  11.515  22.604  0.00  0.00    +0.000 NA
ATOM     19  C   UNL     1      -0.365  10.260  23.368  0.00  0.00    +0.000 C 
ATOM     20  C   UNL     1      -0.886   9.069  22.549  0.00  0.00    +0.000 C 
ATOM     21  N   UNL     1      -0.151   8.934  21.264  0.00  0.00    +0.000 NA
ATOM     22  C   UNL     1      -0.119  10.200  20.499  0.00  0.00    +0.000 C 
ATOM     23  C   UNL     1       0.319  11.402  21.368  0.00  0.00    +0.000 C 
BRANCH  18  24
ATOM     24  C   UNL     1      -1.893  11.911  22.312  0.00  0.00    +0.000 C 
BRANCH  24  25
ATOM     25  C   UNL     1      -2.578  12.588  23.504  0.00  0.00    +0.000 C 
BRANCH  25  26
ATOM     26  O   UNL     1      -3.730  11.875  23.852  0.00  0.00    +0.000 OA
ATOM     27  H   UNL     1      -3.484  10.916  23.797  0.00  0.00    +0.000 HD
ENDBRANCH  25  26
ENDBRANCH  24  25
ENDBRANCH  18  24
ENDBRANCH  17  21
ENDBRANCH  15  17
ENDBRANCH   1  16
TORSDOF 7
ENDMDL
MODEL 2
REMARK VINA RESULT:      -7.2      5.786      7.858
REMARK  Name = 
REMARK  7 active torsions:
REMARK  status: ('A' for Active; 'I' for Inactive)
REMARK    1  A    between atoms: O_1  and  C_2
REMARK    2  A    between atoms: C_2  and  C_3
REMARK    3  A    between atoms: C_3  and  N_4
REMARK    4  A    between atoms: N_7  and  C_8
REMARK    5  A    between atoms: C_8  and  C_9
REMARK    6  A    between atoms: C_10  and  C_11
REMARK    7  A    between atoms: C_11  and  N_12
REMARK                            x       y       z     vdW  Elec       q    Type
REMARK                         _______ _______ _______ _____ _____    ______ ____
ROOT
ATOM      1  C   UNL     1       7.695   5.750  18.490  0.00  0.00    +0.000 C 
ENDROOT
BRANCH   1   2
ATOM      2  N   UNL     1       6.515   5.322  17.734  0.00  0.00    +0.000 N 
ATOM      3  C   UNL     1       5.250   5.183  18.210  0.00  0.00    +0.000 A 
ATOM      4  C   UNL     1       4.789   5.407  19.512  0.00  0.00    +0.000 A 
ATOM      5  C   UNL     1       3.426   5.186  19.779  0.00  0.00    +0.000 A 
ATOM      6  C   UNL     1       2.555   4.758  18.754  0.00  0.00    +0.000 A 
ATOM      7  C   UNL     1       3.035   4.544  17.452  0.00  0.00    +0.000 A 
ATOM      8  C   UNL     1       4.393   4.765  17.214  0.00  0.00    +0.000 A 
ATOM      9  C   UNL     1       5.150   4.641  16.072  0.00  0.00    +0.000 A 
ATOM     10  C   UNL     1       4.806   4.259  14.776  0.00  0.00    +0.000 A 
ATOM     11  C   UNL     1       5.824   4.231  13.809  0.00  0.00    +0.000 A 
ATOM     12  C   UNL     1       7.148   4.577  14.152  0.00  0.00    +0.000 A 
ATOM     13  C   UNL     1       7.471   4.958  15.467  0.00  0.00    +0.000 A 
ATOM     14  C   UNL     1       6.444   4.983  16.418  0.00  0.00    +0.000 A 
ENDBRANCH   1   2
BRANCH   1  16
ATOM     15  C   UNL     1       8.130   8.519  18.137  0.00  0.00    +0.000 C 
ATOM     16  C   UNL     1       7.929   7.241  18.300  0.00  0.00    +0.000 C 
BRANCH  15  17
ATOM     17  C   UNL     1       8.364  10.008  17.946  0.00  0.00    +0.000 C 
BRANCH  17  21
ATOM     18  N   UNL     1       9.850  13.233  19.173  0.00  0.00    +0.000 NA
ATOM     19  C   UNL     1       9.885  12.728  17.788  0.00  0.00    +0.000 C 
ATOM     20  C   UNL     1      10.445  11.298  17.743  0.00  0.00    +0.000 C 
ATOM     21  N   UNL     1       9.637  10.374  18.581  0.00  0.00    +0.000 NA
ATOM     22  C   UNL     1       9.446  10.884  19.957  0.00  0.00    +0.000 C 
ATOM     23  C   UNL     1       8.970  12.355  19.979  0.00  0.00    +0.000 C 
BRANCH  18  24
ATOM     24  C   UNL     1      11.193  13.391  19.795  0.00  0.00    +0.000 C 
BRANCH  24  25
ATOM     25  C   UNL     1      11.600  14.859  19.958  0.00  0.00    +0.000 C 
BRANCH  25  26
ATOM     26  O   UNL     1      10.536  15.687  19.586  0.00  0.00    +0.000 OA
ATOM     27  H   UNL     1      10.112  15.250  18.803  0.00  0.00    +0.000 HD
ENDBRANCH  25  26
ENDBRANCH  24  25
ENDBRANCH  18  24
ENDBRANCH  17  21
ENDBRANCH  15  17
ENDBRANCH   1  16
TORSDOF 7
ENDMDL
MODEL 3
REMARK VINA RESULT:      -7.1      2.949      3.401
REMARK  Name = 
REMARK  7 active torsions:
REMARK  status: ('A' for Active; 'I' for Inactive)
REMARK    1  A    between atoms: O_1  and  C_2
REMARK    2  A    between atoms: C_2  and  C_3
REMARK    3  A    between atoms: C_3  and  N_4
REMARK    4  A    between atoms: N_7  and  C_8
REMARK    5  A    between atoms: C_8  and  C_9
REMARK    6  A    between atoms: C_10  and  C_11
REMARK    7  A    between atoms: C_11  and  N_12
REMARK                            x       y       z     vdW  Elec       q    Type
REMARK                         _______ _______ _______ _____ _____    ______ ____
ROOT
ATOM      1  C   UNL     1       2.958   6.997  19.740  0.00  0.00    +0.000 C 
ENDROOT
BRANCH   1   2
ATOM      2  N   UNL     1       3.107   5.827  18.868  0.00  0.00    +0.000 N 
ATOM      3  C   UNL     1       2.418   4.659  18.949  0.00  0.00    +0.000 A 
ATOM      4  C   UNL     1       1.428   4.304  19.871  0.00  0.00    +0.000 A 
ATOM      5  C   UNL     1       0.855   3.024  19.769  0.00  0.00    +0.000 A 
ATOM      6  C   UNL     1       1.270   2.132  18.756  0.00  0.00    +0.000 A 
ATOM      7  C   UNL     1       2.263   2.509  17.835  0.00  0.00    +0.000 A 
ATOM      8  C   UNL     1       2.818   3.783  17.962  0.00  0.00    +0.000 A 
ATOM      9  C   UNL     1       3.791   4.429  17.235  0.00  0.00    +0.000 A 
ATOM     10  C   UNL     1       4.535   4.024  16.129  0.00  0.00    +0.000 A 
ATOM     11  C   UNL     1       5.471   4.929  15.600  0.00  0.00    +0.000 A 
ATOM     12  C   UNL     1       5.644   6.202  16.183  0.00  0.00    +0.000 A 
ATOM     13  C   UNL     1       4.881   6.588  17.300  0.00  0.00    +0.000 A 
ATOM     14  C   UNL     1       3.952   5.676  17.812  0.00  0.00    +0.000 A 
ENDBRANCH   1   2
BRANCH   1  16
ATOM     15  C   UNL     1       1.292   8.922  18.516  0.00  0.00    +0.000 C 
ATOM     16  C   UNL     1       2.061   8.033  19.080  0.00  0.00    +0.000 C 
BRANCH  15  17
ATOM     17  C   UNL     1       0.397   9.957  17.857  0.00  0.00    +0.000 C 
BRANCH  17  21
ATOM     18  N   UNL     1      -2.761  11.982  17.639  0.00  0.00    +0.000 NA
ATOM     19  C   UNL     1      -1.698  12.129  18.651  0.00  0.00    +0.000 C 
ATOM     20  C   UNL     1      -1.395  10.781  19.323  0.00  0.00    +0.000 C 
ATOM     21  N   UNL     1      -0.981   9.760  18.325  0.00  0.00    +0.000 NA
ATOM     22  C   UNL     1      -1.940   9.651  17.203  0.00  0.00    +0.000 C 
ATOM     23  C   UNL     1      -2.302  11.029  16.602  0.00  0.00    +0.000 C 
BRANCH  18  24
ATOM     24  C   UNL     1      -4.083  11.594  18.200  0.00  0.00    +0.000 C 
BRANCH  24  25
ATOM     25  C   UNL     1      -5.250  11.974  17.282  0.00  0.00    +0.000 C 
BRANCH  25  26
ATOM     26  O   UNL     1      -5.815  13.179  17.712  0.00  0.00    +0.000 OA
ATOM     27  H   UNL     1      -5.164  13.887  17.467  0.00  0.00    +0.000 HD
ENDBRANCH  25  26
ENDBRANCH  24  25
ENDBRANCH  18  24
ENDBRANCH  17  21
ENDBRANCH  15  17
ENDBRANCH   1  16
TORSDOF 7
ENDMDL
MODEL 4
REMARK VINA RESULT:      -7.1      1.803      3.699
REMARK  Name = 
REMARK  7 active torsions:
REMARK  status: ('A' for Active; 'I' for Inactive)
REMARK    1  A    between atoms: O_1  and  C_2
REMARK    2  A    between atoms: C_2  and  C_3
REMARK    3  A    between atoms: C_3  and  N_4
REMARK    4  A    between atoms: N_7  and  C_8
REMARK    5  A    between atoms: C_8  and  C_9
REMARK    6  A    between atoms: C_10  and  C_11
REMARK    7  A    between atoms: C_11  and  N_12
REMARK                            x       y       z     vdW  Elec       q    Type
REMARK                         _______ _______ _______ _____ _____    ______ ____
ROOT
ATOM      1  C   UNL     1       2.960   6.798  19.874  0.00  0.00    +0.000 C 
ENDROOT
BRANCH   1   2
ATOM      2  N   UNL     1       3.089   5.658  18.961  0.00  0.00    +0.000 N 
ATOM      3  C   UNL     1       3.945   5.549  17.912  0.00  0.00    +0.000 A 
ATOM      4  C   UNL     1       4.882   6.485  17.463  0.00  0.00    +0.000 A 
ATOM      5  C   UNL     1       5.661   6.157  16.339  0.00  0.00    +0.000 A 
ATOM      6  C   UNL     1       5.499   4.911  15.694  0.00  0.00    +0.000 A 
ATOM      7  C   UNL     1       4.556   3.982  16.163  0.00  0.00    +0.000 A 
ATOM      8  C   UNL     1       3.792   4.334  17.277  0.00  0.00    +0.000 A 
ATOM      9  C   UNL     1       2.806   3.658  17.957  0.00  0.00    +0.000 A 
ATOM     10  C   UNL     1       2.251   2.395  17.758  0.00  0.00    +0.000 A 
ATOM     11  C   UNL     1       1.239   1.977  18.638  0.00  0.00    +0.000 A 
ATOM     12  C   UNL     1       0.806   2.820  19.683  0.00  0.00    +0.000 A 
ATOM     13  C   UNL     1       1.381   4.091  19.864  0.00  0.00    +0.000 A 
ATOM     14  C   UNL     1       2.389   4.491  18.979  0.00  0.00    +0.000 A 
ENDBRANCH   1   2
BRANCH   1  16
ATOM     15  C   UNL     1       1.499   8.877  18.639  0.00  0.00    +0.000 C 
ATOM     16  C   UNL     1       2.173   7.917  19.209  0.00  0.00    +0.000 C 
BRANCH  15  17
ATOM     17  C   UNL     1       0.713   9.994  17.975  0.00  0.00    +0.000 C 
BRANCH  17  21
ATOM     18  N   UNL     1      -1.234  12.601  19.856  0.00  0.00    +0.000 NA
ATOM     19  C   UNL     1      -0.258  11.657  20.431  0.00  0.00    +0.000 C 
ATOM     20  C   UNL     1      -0.603  10.211  20.040  0.00  0.00    +0.000 C 
ATOM     21  N   UNL     1      -0.632  10.044  18.563  0.00  0.00    +0.000 NA
ATOM     22  C   UNL     1      -1.492  11.049  17.900  0.00  0.00    +0.000 C 
ATOM     23  C   UNL     1      -1.191  12.488  18.379  0.00  0.00    +0.000 C 
BRANCH  18  24
ATOM     24  C   UNL     1      -2.616  12.442  20.382  0.00  0.00    +0.000 C 
BRANCH  24  25
ATOM     25  C   UNL     1      -2.700  12.656  21.897  0.00  0.00    +0.000 C 
BRANCH  25  26
ATOM     26  O   UNL     1      -3.980  12.318  22.350  0.00  0.00    +0.000 OA
ATOM     27  H   UNL     1      -4.015  11.326  22.351  0.00  0.00    +0.000 HD
ENDBRANCH  25  26
ENDBRANCH  24  25
ENDBRANCH  18  24
ENDBRANCH  17  21
ENDBRANCH  15  17
ENDBRANCH   1  16
TORSDOF 7
ENDMDL
MODEL 5
REMARK VINA RESULT:      -7.1      1.819      2.264
REMARK  Name = 
REMARK  7 active torsions:
REMARK  status: ('A' for Active; 'I' for Inactive)
REMARK    1  A    between atoms: O_1  and  C_2
REMARK    2  A    between atoms: C_2  and  C_3
REMARK    3  A    between atoms: C_3  and  N_4
REMARK    4  A    between atoms: N_7  and  C_8
REMARK    5  A    between atoms: C_8  and  C_9
REMARK    6  A    between atoms: C_10  and  C_11
REMARK    7  A    between atoms: C_11  and  N_12
REMARK                            x       y       z     vdW  Elec       q    Type
REMARK                         _______ _______ _______ _____ _____    ______ ____
ROOT
ATOM      1  C   UNL     1       2.715   6.845  20.029  0.00  0.00    +0.000 C 
ENDROOT
BRANCH   1   2
ATOM      2  N   UNL     1       2.937   5.752  19.077  0.00  0.00    +0.000 N 
ATOM      3  C   UNL     1       2.310   4.547  19.062  0.00  0.00    +0.000 A 
ATOM      4  C   UNL     1       1.330   4.073  19.941  0.00  0.00    +0.000 A 
ATOM      5  C   UNL     1       0.828   2.776  19.736  0.00  0.00    +0.000 A 
ATOM      6  C   UNL     1       1.301   1.985  18.667  0.00  0.00    +0.000 A 
ATOM      7  C   UNL     1       2.283   2.480  17.792  0.00  0.00    +0.000 A 
ATOM      8  C   UNL     1       2.768   3.768  18.020  0.00  0.00    +0.000 A 
ATOM      9  C   UNL     1       3.713   4.517  17.357  0.00  0.00    +0.000 A 
ATOM     10  C   UNL     1       4.490   4.233  16.235  0.00  0.00    +0.000 A 
ATOM     11  C   UNL     1       5.382   5.223  15.789  0.00  0.00    +0.000 A 
ATOM     12  C   UNL     1       5.480   6.457  16.465  0.00  0.00    +0.000 A 
ATOM     13  C   UNL     1       4.685   6.720  17.596  0.00  0.00    +0.000 A 
ATOM     14  C   UNL     1       3.800   5.724  18.026  0.00  0.00    +0.000 A 
ENDBRANCH   1   2
BRANCH   1  16
ATOM     15  C   UNL     1       1.367   8.982  18.767  0.00  0.00    +0.000 C 
ATOM     16  C   UNL     1       1.990   7.996  19.349  0.00  0.00    +0.000 C 
BRANCH  15  17
ATOM     17  C   UNL     1       0.642  10.132  18.088  0.00  0.00    +0.000 C 
BRANCH  17  21
ATOM     18  N   UNL     1      -1.238  12.799  19.951  0.00  0.00    +0.000 NA
ATOM     19  C   UNL     1      -0.319  11.808  20.539  0.00  0.00    +0.000 C 
ATOM     20  C   UNL     1      -0.715  10.383  20.122  0.00  0.00    +0.000 C 
ATOM     21  N   UNL     1      -0.714  10.232  18.644  0.00  0.00    +0.000 NA
ATOM     22  C   UNL     1      -1.514  11.281  17.972  0.00  0.00    +0.000 C 
ATOM     23  C   UNL     1      -1.164  12.701  18.474  0.00  0.00    +0.000 C 
BRANCH  18  24
ATOM     24  C   UNL     1      -2.639  12.694  20.441  0.00  0.00    +0.000 C 
BRANCH  24  25
ATOM     25  C   UNL     1      -2.781  13.091  21.915  0.00  0.00    +0.000 C 
BRANCH  25  26
ATOM     26  O   UNL     1      -3.673  12.222  22.552  0.00  0.00    +0.000 OA
ATOM     27  H   UNL     1      -4.572  12.628  22.445  0.00  0.00    +0.000 HD
ENDBRANCH  25  26
ENDBRANCH  24  25
ENDBRANCH  18  24
ENDBRANCH  17  21
ENDBRANCH  15  17
ENDBRANCH   1  16
TORSDOF 7
ENDMDL
MODEL 6
REMARK VINA RESULT:      -7.0      0.396      3.089
REMARK  Name = 
REMARK  7 active torsions:
REMARK  status: ('A' for Active; 'I' for Inactive)
REMARK    1  A    between atoms: O_1  and  C_2
REMARK    2  A    between atoms: C_2  and  C_3
REMARK    3  A    between atoms: C_3  and  N_4
REMARK    4  A    between atoms: N_7  and  C_8
REMARK    5  A    between atoms: C_8  and  C_9
REMARK    6  A    between atoms: C_10  and  C_11
REMARK    7  A    between atoms: C_11  and  N_12
REMARK                            x       y       z     vdW  Elec       q    Type
REMARK                         _______ _______ _______ _____ _____    ______ ____
ROOT
ATOM      1  C   UNL     1       2.868   7.436  17.476  0.00  0.00    +0.000 C 
ENDROOT
BRANCH   1   2
ATOM      2  N   UNL     1       3.585   6.159  17.554  0.00  0.00    +0.000 N 
ATOM      3  C   UNL     1       4.928   5.974  17.464  0.00  0.00    +0.000 A 
ATOM      4  C   UNL     1       5.921   6.940  17.274  0.00  0.00    +0.000 A 
ATOM      5  C   UNL     1       7.258   6.510  17.202  0.00  0.00    +0.000 A 
ATOM      6  C   UNL     1       7.579   5.141  17.326  0.00  0.00    +0.000 A 
ATOM      7  C   UNL     1       6.568   4.186  17.522  0.00  0.00    +0.000 A 
ATOM      8  C   UNL     1       5.249   4.638  17.585  0.00  0.00    +0.000 A 
ATOM      9  C   UNL     1       4.062   3.964  17.760  0.00  0.00    +0.000 A 
ATOM     10  C   UNL     1       3.791   2.608  17.937  0.00  0.00    +0.000 A 
ATOM     11  C   UNL     1       2.449   2.223  18.093  0.00  0.00    +0.000 A 
ATOM     12  C   UNL     1       1.419   3.187  18.065  0.00  0.00    +0.000 A 
ATOM     13  C   UNL     1       1.718   4.550  17.884  0.00  0.00    +0.000 A 
ATOM     14  C   UNL     1       3.060   4.917  17.733  0.00  0.00    +0.000 A 
ENDBRANCH   1   2
BRANCH   1  16
ATOM     15  C   UNL     1       1.792   8.107  20.000  0.00  0.00    +0.000 C 
ATOM     16  C   UNL     1       2.290   7.797  18.835  0.00  0.00    +0.000 C 
BRANCH  15  17
ATOM     17  C   UNL     1       1.214   8.468  21.358  0.00  0.00    +0.000 C 
BRANCH  17  21
ATOM     18  N   UNL     1      -0.539  11.593  22.489  0.00  0.00    +0.000 NA
ATOM     19  C   UNL     1      -0.392  10.346  23.262  0.00  0.00    +0.000 C 
ATOM     20  C   UNL     1      -0.883   9.139  22.449  0.00  0.00    +0.000 C 
ATOM     21  N   UNL     1      -0.138   9.010  21.169  0.00  0.00    +0.000 NA
ATOM     22  C   UNL     1      -0.128  10.271  20.395  0.00  0.00    +0.000 C 
ATOM     23  C   UNL     1       0.279  11.489  21.258  0.00  0.00    +0.000 C 
BRANCH  18  24
ATOM     24  C   UNL     1      -1.949  11.957  22.186  0.00  0.00    +0.000 C 
BRANCH  24  25
ATOM     25  C   UNL     1      -2.794  12.155  23.449  0.00  0.00    +0.000 C 
BRANCH  25  26
ATOM     26  O   UNL     1      -2.727  13.492  23.855  0.00  0.00    +0.000 OA
ATOM     27  H   UNL     1      -1.763  13.723  23.875  0.00  0.00    +0.000 HD
ENDBRANCH  25  26
ENDBRANCH  24  25
ENDBRANCH  18  24
ENDBRANCH  17  21
ENDBRANCH  15  17
ENDBRANCH   1  16
TORSDOF 7
ENDMDL
MODEL 7
REMARK VINA RESULT:      -7.0      3.023      4.545
REMARK  Name = 
REMARK  7 active torsions:
REMARK  status: ('A' for Active; 'I' for Inactive)
REMARK    1  A    between atoms: O_1  and  C_2
REMARK    2  A    between atoms: C_2  and  C_3
REMARK    3  A    between atoms: C_3  and  N_4
REMARK    4  A    between atoms: N_7  and  C_8
REMARK    5  A    between atoms: C_8  and  C_9
REMARK    6  A    between atoms: C_10  and  C_11
REMARK    7  A    between atoms: C_11  and  N_12
REMARK                            x       y       z     vdW  Elec       q    Type
REMARK                         _______ _______ _______ _____ _____    ______ ____
ROOT
ATOM      1  C   UNL     1       2.814   7.116  19.683  0.00  0.00    +0.000 C 
ENDROOT
BRANCH   1   2
ATOM      2  N   UNL     1       2.976   5.931  18.835  0.00  0.00    +0.000 N 
ATOM      3  C   UNL     1       3.822   5.795  17.782  0.00  0.00    +0.000 A 
ATOM      4  C   UNL     1       4.716   6.738  17.265  0.00  0.00    +0.000 A 
ATOM      5  C   UNL     1       5.492   6.375  16.150  0.00  0.00    +0.000 A 
ATOM      6  C   UNL     1       5.371   5.089  15.580  0.00  0.00    +0.000 A 
ATOM      7  C   UNL     1       4.471   4.153  16.117  0.00  0.00    +0.000 A 
ATOM      8  C   UNL     1       3.709   4.540  17.220  0.00  0.00    +0.000 A 
ATOM      9  C   UNL     1       2.759   3.867  17.952  0.00  0.00    +0.000 A 
ATOM     10  C   UNL     1       2.252   2.573  17.835  0.00  0.00    +0.000 A 
ATOM     11  C   UNL     1       1.269   2.169  18.754  0.00  0.00    +0.000 A 
ATOM     12  C   UNL     1       0.817   3.054  19.755  0.00  0.00    +0.000 A 
ATOM     13  C   UNL     1       1.343   4.355  19.853  0.00  0.00    +0.000 A 
ATOM     14  C   UNL     1       2.323   4.741  18.932  0.00  0.00    +0.000 A 
ENDBRANCH   1   2
BRANCH   1  16
ATOM     15  C   UNL     1       1.110   8.989  18.430  0.00  0.00    +0.000 C 
ATOM     16  C   UNL     1       1.896   8.124  19.008  0.00  0.00    +0.000 C 
BRANCH  15  17
ATOM     17  C   UNL     1       0.194   9.996  17.756  0.00  0.00    +0.000 C 
BRANCH  17  21
ATOM     18  N   UNL     1      -3.104  11.759  17.390  0.00  0.00    +0.000 NA
ATOM     19  C   UNL     1      -2.177  11.870  18.531  0.00  0.00    +0.000 C 
ATOM     20  C   UNL     1      -1.818  10.481  19.080  0.00  0.00    +0.000 C 
ATOM     21  N   UNL     1      -1.201   9.628  18.031  0.00  0.00    +0.000 NA
ATOM     22  C   UNL     1      -2.016   9.577  16.797  0.00  0.00    +0.000 C 
ATOM     23  C   UNL     1      -2.444  10.982  16.315  0.00  0.00    +0.000 C 
BRANCH  18  24
ATOM     24  C   UNL     1      -4.435  11.195  17.742  0.00  0.00    +0.000 C 
BRANCH  24  25
ATOM     25  C   UNL     1      -5.580  12.184  17.496  0.00  0.00    +0.000 C 
BRANCH  25  26
ATOM     26  O   UNL     1      -5.450  13.278  18.358  0.00  0.00    +0.000 OA
ATOM     27  H   UNL     1      -6.022  13.994  17.977  0.00  0.00    +0.000 HD
ENDBRANCH  25  26
ENDBRANCH  24  25
ENDBRANCH  18  24
ENDBRANCH  17  21
ENDBRANCH  15  17
ENDBRANCH   1  16
TORSDOF 7
ENDMDL
MODEL 8
REMARK VINA RESULT:      -7.0      2.408      2.853
REMARK  Name = 
REMARK  7 active torsions:
REMARK  status: ('A' for Active; 'I' for Inactive)
REMARK    1  A    between atoms: O_1  and  C_2
REMARK    2  A    between atoms: C_2  and  C_3
REMARK    3  A    between atoms: C_3  and  N_4
REMARK    4  A    between atoms: N_7  and  C_8
REMARK    5  A    between atoms: C_8  and  C_9
REMARK    6  A    between atoms: C_10  and  C_11
REMARK    7  A    between atoms: C_11  and  N_12
REMARK                            x       y       z     vdW  Elec       q    Type
REMARK                         _______ _______ _______ _____ _____    ______ ____
ROOT
ATOM      1  C   UNL     1       2.917   6.886  19.926  0.00  0.00    +0.000 C 
ENDROOT
BRANCH   1   2
ATOM      2  N   UNL     1       3.066   5.771  18.986  0.00  0.00    +0.000 N 
ATOM      3  C   UNL     1       2.374   4.602  18.996  0.00  0.00    +0.000 A 
ATOM      4  C   UNL     1       1.381   4.194  19.892  0.00  0.00    +0.000 A 
ATOM      5  C   UNL     1       0.806   2.923  19.711  0.00  0.00    +0.000 A 
ATOM      6  C   UNL     1       1.221   2.093  18.648  0.00  0.00    +0.000 A 
ATOM      7  C   UNL     1       2.217   2.523  17.754  0.00  0.00    +0.000 A 
ATOM      8  C   UNL     1       2.775   3.785  17.958  0.00  0.00    +0.000 A 
ATOM      9  C   UNL     1       3.750   4.472  17.274  0.00  0.00    +0.000 A 
ATOM     10  C   UNL     1       4.497   4.132  16.146  0.00  0.00    +0.000 A 
ATOM     11  C   UNL     1       5.436   5.065  15.676  0.00  0.00    +0.000 A 
ATOM     12  C   UNL     1       5.609   6.301  16.334  0.00  0.00    +0.000 A 
ATOM     13  C   UNL     1       4.845   6.621  17.471  0.00  0.00    +0.000 A 
ATOM     14  C   UNL     1       3.912   5.682  17.925  0.00  0.00    +0.000 A 
ENDBRANCH   1   2
BRANCH   1  16
ATOM     15  C   UNL     1       1.288   8.901  18.802  0.00  0.00    +0.000 C 
ATOM     16  C   UNL     1       2.039   7.971  19.320  0.00  0.00    +0.000 C 
BRANCH  15  17
ATOM     17  C   UNL     1       0.411   9.984  18.196  0.00  0.00    +0.000 C 
BRANCH  17  21
ATOM     18  N   UNL     1       0.464  13.629  19.110  0.00  0.00    +0.000 NA
ATOM     19  C   UNL     1       1.487  12.626  19.461  0.00  0.00    +0.000 C 
ATOM     20  C   UNL     1       0.846  11.411  20.149  0.00  0.00    +0.000 C 
ATOM     21  N   UNL     1      -0.181  10.778  19.281  0.00  0.00    +0.000 NA
ATOM     22  C   UNL     1      -1.172  11.755  18.778  0.00  0.00    +0.000 C 
ATOM     23  C   UNL     1      -0.505  13.012  18.173  0.00  0.00    +0.000 C 
BRANCH  18  24
ATOM     24  C   UNL     1      -0.215  14.241  20.284  0.00  0.00    +0.000 C 
BRANCH  24  25
ATOM     25  C   UNL     1       0.737  15.072  21.151  0.00  0.00    +0.000 C 
BRANCH  25  26
ATOM     26  O   UNL     1       0.950  14.422  22.371  0.00  0.00    +0.000 OA
ATOM     27  H   UNL     1       1.726  14.877  22.789  0.00  0.00    +0.000 HD
ENDBRANCH  25  26
ENDBRANCH  24  25
ENDBRANCH  18  24
ENDBRANCH  17  21
ENDBRANCH  15  17
ENDBRANCH   1  16
TORSDOF 7
ENDMDL
MODEL 9
REMARK VINA RESULT:      -7.0      3.657      7.129
REMARK  Name = 
REMARK  7 active torsions:
REMARK  status: ('A' for Active; 'I' for Inactive)
REMARK    1  A    between atoms: O_1  and  C_2
REMARK    2  A    between atoms: C_2  and  C_3
REMARK    3  A    between atoms: C_3  and  N_4
REMARK    4  A    between atoms: N_7  and  C_8
REMARK    5  A    between atoms: C_8  and  C_9
REMARK    6  A    between atoms: C_10  and  C_11
REMARK    7  A    between atoms: C_11  and  N_12
REMARK                            x       y       z     vdW  Elec       q    Type
REMARK                         _______ _______ _______ _____ _____    ______ ____
ROOT
ATOM      1  C   UNL     1      -0.750  11.920  18.553  0.00  0.00    +0.000 C 
ENDROOT
BRANCH   1   2
ATOM      2  N   UNL     1      -0.201  10.892  19.442  0.00  0.00    +0.000 N 
ATOM      3  C   UNL     1       0.646   9.887  19.098  0.00  0.00    +0.000 A 
ATOM      4  C   UNL     1       1.177   9.601  17.836  0.00  0.00    +0.000 A 
ATOM      5  C   UNL     1       2.034   8.493  17.714  0.00  0.00    +0.000 A 
ATOM      6  C   UNL     1       2.348   7.702  18.840  0.00  0.00    +0.000 A 
ATOM      7  C   UNL     1       1.809   8.008  20.101  0.00  0.00    +0.000 A 
ATOM      8  C   UNL     1       0.958   9.110  20.194  0.00  0.00    +0.000 A 
ATOM      9  C   UNL     1       0.283   9.652  21.264  0.00  0.00    +0.000 A 
ATOM     10  C   UNL     1       0.234   9.280  22.606  0.00  0.00    +0.000 A 
ATOM     11  C   UNL     1      -0.562  10.049  23.471  0.00  0.00    +0.000 A 
ATOM     12  C   UNL     1      -1.285  11.157  22.984  0.00  0.00    +0.000 A 
ATOM     13  C   UNL     1      -1.221  11.513  21.624  0.00  0.00    +0.000 A 
ATOM     14  C   UNL     1      -0.422  10.738  20.776  0.00  0.00    +0.000 A 
ENDBRANCH   1   2
BRANCH   1  16
ATOM     15  C   UNL     1      -3.518  11.505  18.171  0.00  0.00    +0.000 C 
ATOM     16  C   UNL     1      -2.240  11.697  18.348  0.00  0.00    +0.000 C 
BRANCH  15  17
ATOM     17  C   UNL     1      -5.006  11.281  17.966  0.00  0.00    +0.000 C 
BRANCH  17  21
ATOM     18  N   UNL     1      -6.644  11.774  21.312  0.00  0.00    +0.000 NA
ATOM     19  C   UNL     1      -7.244  11.119  20.135  0.00  0.00    +0.000 C 
ATOM     20  C   UNL     1      -7.153  12.028  18.900  0.00  0.00    +0.000 C 
ATOM     21  N   UNL     1      -5.744  12.385  18.594  0.00  0.00    +0.000 NA
ATOM     22  C   UNL     1      -5.033  12.929  19.772  0.00  0.00    +0.000 C 
ATOM     23  C   UNL     1      -5.215  12.046  21.029  0.00  0.00    +0.000 C 
BRANCH  18  24
ATOM     24  C   UNL     1      -7.362  12.999  21.756  0.00  0.00    +0.000 C 
BRANCH  24  25
ATOM     25  C   UNL     1      -7.883  12.891  23.193  0.00  0.00    +0.000 C 
BRANCH  25  26
ATOM     26  O   UNL     1      -7.621  11.611  23.694  0.00  0.00    +0.000 OA
ATOM     27  H   UNL     1      -8.230  11.492  24.468  0.00  0.00    +0.000 HD
ENDBRANCH  25  26
ENDBRANCH  24  25
ENDBRANCH  18  24
ENDBRANCH  17  21
ENDBRANCH  15  17
ENDBRANCH   1  16
TORSDOF 7
ENDMDL
