MODEL 1
REMARK VINA RESULT:      -6.7      0.000      0.000
REMARK  Name = 
REMARK  7 active torsions:
REMARK  status: ('A' for Active; 'I' for Inactive)
REMARK    1  A    between atoms: C_1  and  C_2
REMARK    2  A    between atoms: C_2  and  C_3
REMARK    3  A    between atoms: C_8  and  C_9
REMARK    4  A    between atoms: C_9  and  C_10
REMARK    5  A    between atoms: N_12  and  C_13
REMARK    6  A    between atoms: C_13  and  C_14
REMARK    7  A    between atoms: C_13  and  C_16
REMARK                            x       y       z     vdW  Elec       q    Type
REMARK                         _______ _______ _______ _____ _____    ______ ____
ROOT
ATOM      1  C   UNL     1       6.144   4.336  19.048  0.00  0.00    +0.000 C 
ATOM      2  O   UNL     1       6.013   5.005  20.067  0.00  0.00    +0.000 OA
ATOM      3  N   UNL     1       5.425   3.182  18.826  0.00  0.00    +0.000 N 
ATOM      4  H   UNL     1       5.800   2.507  18.171  0.00  0.00    +0.000 HD
ENDROOT
BRANCH   1   5
ATOM      5  C   UNL     1       7.040   4.765  17.891  0.00  0.00    +0.000 C 
BRANCH   5  11
ATOM      6  C   UNL     1       5.674   5.907  16.053  0.00  0.00    +0.000 A 
ATOM      7  C   UNL     1       5.175   5.923  14.734  0.00  0.00    +0.000 A 
ATOM      8  C   UNL     1       5.439   4.879  13.853  0.00  0.00    +0.000 A 
ATOM      9  C   UNL     1       6.204   3.802  14.278  0.00  0.00    +0.000 A 
ATOM     10  C   UNL     1       6.695   3.762  15.588  0.00  0.00    +0.000 A 
ATOM     11  C   UNL     1       6.430   4.792  16.503  0.00  0.00    +0.000 A 
BRANCH   6  13
ATOM     12  C   UNL     1       3.952   7.096  17.466  0.00  0.00    +0.000 C 
ATOM     13  C   UNL     1       5.368   7.120  16.908  0.00  0.00    +0.000 C 
ENDBRANCH   6  13
ENDBRANCH   5  11
ENDBRANCH   1   5
BRANCH   3  14
ATOM     14  C   UNL     1       4.364   2.744  19.749  0.00  0.00    +0.000 C 
BRANCH  14  15
ATOM     15  C   UNL     1       3.237   2.008  18.958  0.00  0.00    +0.000 C 
ATOM     16  C   UNL     1       1.819   2.219  19.535  0.00  0.00    +0.000 C 
ATOM     17  C   UNL     1       1.277   3.636  19.335  0.00  0.00    +0.000 C 
ATOM     18  C   UNL     1       1.424   4.155  17.905  0.00  0.00    +0.000 C 
ATOM     19  C   UNL     1       2.789   3.872  17.288  0.00  0.00    +0.000 C 
ATOM     20  C   UNL     1       3.196   2.414  17.470  0.00  0.00    +0.000 C 
ENDBRANCH  14  15
BRANCH  14  21
ATOM     21  C   UNL     1       4.930   1.872  20.806  0.00  0.00    +0.000 C 
ATOM     22  N   UNL     1       5.349   1.174  21.638  0.00  0.00    +0.000 NA
ENDBRANCH  14  21
ENDBRANCH   3  14
TORSDOF 6
ENDMDL
MODEL 2
REMARK VINA RESULT:      -6.7      2.405      3.475
REMARK  Name = 
REMARK  7 active torsions:
REMARK  status: ('A' for Active; 'I' for Inactive)
REMARK    1  A    between atoms: C_1  and  C_2
REMARK    2  A    between atoms: C_2  and  C_3
REMARK    3  A    between atoms: C_8  and  C_9
REMARK    4  A    between atoms: C_9  and  C_10
REMARK    5  A    between atoms: N_12  and  C_13
REMARK    6  A    between atoms: C_13  and  C_14
REMARK    7  A    between atoms: C_13  and  C_16
REMARK                            x       y       z     vdW  Elec       q    Type
REMARK                         _______ _______ _______ _____ _____    ______ ____
ROOT
ATOM      1  C   UNL     1       3.456   7.234  17.818  0.00  0.00    +0.000 C 
ATOM      2  O   UNL     1       2.410   7.795  17.509  0.00  0.00    +0.000 OA
ATOM      3  N   UNL     1       3.516   6.280  18.810  0.00  0.00    +0.000 N 
ATOM      4  H   UNL     1       4.411   6.110  19.251  0.00  0.00    +0.000 HD
ENDROOT
BRANCH   1   5
ATOM      5  C   UNL     1       4.766   7.468  17.073  0.00  0.00    +0.000 C 
BRANCH   5  11
ATOM      6  C   UNL     1       6.750   5.854  17.053  0.00  0.00    +0.000 A 
ATOM      7  C   UNL     1       7.366   4.682  16.565  0.00  0.00    +0.000 A 
ATOM      8  C   UNL     1       6.745   3.891  15.604  0.00  0.00    +0.000 A 
ATOM      9  C   UNL     1       5.501   4.260  15.113  0.00  0.00    +0.000 A 
ATOM     10  C   UNL     1       4.882   5.427  15.574  0.00  0.00    +0.000 A 
ATOM     11  C   UNL     1       5.492   6.253  16.531  0.00  0.00    +0.000 A 
BRANCH   6  13
ATOM     12  C   UNL     1       7.798   5.738  19.347  0.00  0.00    +0.000 C 
ATOM     13  C   UNL     1       7.494   6.609  18.136  0.00  0.00    +0.000 C 
ENDBRANCH   6  13
ENDBRANCH   5  11
ENDBRANCH   1   5
BRANCH   3  14
ATOM     14  C   UNL     1       2.301   5.787  19.480  0.00  0.00    +0.000 C 
BRANCH  14  15
ATOM     15  C   UNL     1       2.602   4.437  20.208  0.00  0.00    +0.000 C 
ATOM     16  C   UNL     1       1.388   3.485  20.300  0.00  0.00    +0.000 C 
ATOM     17  C   UNL     1       0.981   2.874  18.957  0.00  0.00    +0.000 C 
ATOM     18  C   UNL     1       2.150   2.279  18.172  0.00  0.00    +0.000 C 
ATOM     19  C   UNL     1       3.389   3.168  18.150  0.00  0.00    +0.000 C 
ATOM     20  C   UNL     1       3.756   3.654  19.548  0.00  0.00    +0.000 C 
ENDBRANCH  14  15
BRANCH  14  21
ATOM     21  C   UNL     1       1.790   6.802  20.432  0.00  0.00    +0.000 C 
ATOM     22  N   UNL     1       1.393   7.618  21.160  0.00  0.00    +0.000 NA
ENDBRANCH  14  21
ENDBRANCH   3  14
TORSDOF 6
ENDMDL
MODEL 3
REMARK VINA RESULT:      -6.6      3.403      5.762
REMARK  Name = 
REMARK  7 active torsions:
REMARK  status: ('A' for Active; 'I' for Inactive)
REMARK    1  A    between atoms: C_1  and  C_2
REMARK    2  A    between atoms: C_2  and  C_3
REMARK    3  A    between atoms: C_8  and  C_9
REMARK    4  A    between atoms: C_9  and  C_10
REMARK    5  A    between atoms: N_12  and  C_13
REMARK    6  A    between atoms: C_13  and  C_14
REMARK    7  A    between atoms: C_13  and  C_16
REMARK                            x       y       z     vdW  Elec       q    Type
REMARK                         _______ _______ _______ _____ _____    ______ ____
ROOT
ATOM      1  C   UNL     1       2.475   5.606  19.802  0.00  0.00    +0.000 C 
ATOM      2  O   UNL     1       1.748   4.796  19.235  0.00  0.00    +0.000 OA
ATOM      3  N   UNL     1       3.848   5.575  19.680  0.00  0.00    +0.000 N 
ATOM      4  H   UNL     1       4.398   6.016  20.407  0.00  0.00    +0.000 HD
ENDROOT
BRANCH   1   5
ATOM      5  C   UNL     1       1.929   6.774  20.615  0.00  0.00    +0.000 C 
BRANCH   5  11
ATOM      6  C   UNL     1       0.911   9.119  20.506  0.00  0.00    +0.000 A 
ATOM      7  C   UNL     1       0.688  10.322  19.804  0.00  0.00    +0.000 A 
ATOM      8  C   UNL     1       1.173  10.500  18.512  0.00  0.00    +0.000 A 
ATOM      9  C   UNL     1       1.885   9.477  17.901  0.00  0.00    +0.000 A 
ATOM     10  C   UNL     1       2.103   8.271  18.576  0.00  0.00    +0.000 A 
ATOM     11  C   UNL     1       1.611   8.058  19.874  0.00  0.00    +0.000 A 
BRANCH   6  13
ATOM     12  C   UNL     1      -0.290  10.351  22.353  0.00  0.00    +0.000 C 
ATOM     13  C   UNL     1       0.384   9.055  21.925  0.00  0.00    +0.000 C 
ENDBRANCH   6  13
ENDBRANCH   5  11
ENDBRANCH   1   5
BRANCH   3  14
ATOM     14  C   UNL     1       4.520   4.641  18.763  0.00  0.00    +0.000 C 
BRANCH  14  15
ATOM     15  C   UNL     1       5.868   5.255  18.267  0.00  0.00    +0.000 C 
ATOM     16  C   UNL     1       6.656   4.348  17.294  0.00  0.00    +0.000 C 
ATOM     17  C   UNL     1       6.007   4.214  15.916  0.00  0.00    +0.000 C 
ATOM     18  C   UNL     1       5.602   5.550  15.292  0.00  0.00    +0.000 C 
ATOM     19  C   UNL     1       4.904   6.494  16.266  0.00  0.00    +0.000 C 
ATOM     20  C   UNL     1       5.677   6.621  17.575  0.00  0.00    +0.000 C 
ENDBRANCH  14  15
BRANCH  14  21
ATOM     21  C   UNL     1       4.743   3.336  19.430  0.00  0.00    +0.000 C 
ATOM     22  N   UNL     1       4.945   2.319  19.957  0.00  0.00    +0.000 NA
ENDBRANCH  14  21
ENDBRANCH   3  14
TORSDOF 6
ENDMDL
MODEL 4
REMARK VINA RESULT:      -6.6      2.137      3.465
REMARK  Name = 
REMARK  7 active torsions:
REMARK  status: ('A' for Active; 'I' for Inactive)
REMARK    1  A    between atoms: C_1  and  C_2
REMARK    2  A    between atoms: C_2  and  C_3
REMARK    3  A    between atoms: C_8  and  C_9
REMARK    4  A    between atoms: C_9  and  C_10
REMARK    5  A    between atoms: N_12  and  C_13
REMARK    6  A    between atoms: C_13  and  C_14
REMARK    7  A    between atoms: C_13  and  C_16
REMARK                            x       y       z     vdW  Elec       q    Type
REMARK                         _______ _______ _______ _____ _____    ______ ____
ROOT
ATOM      1  C   UNL     1       4.956   4.197  16.201  0.00  0.00    +0.000 C 
ATOM      2  O   UNL     1       4.674   5.391  16.205  0.00  0.00    +0.000 OA
ATOM      3  N   UNL     1       4.952   3.434  17.349  0.00  0.00    +0.000 N 
ATOM      4  H   UNL     1       5.504   2.586  17.356  0.00  0.00    +0.000 HD
ENDROOT
BRANCH   1   5
ATOM      5  C   UNL     1       5.242   3.424  14.918  0.00  0.00    +0.000 C 
BRANCH   5  11
ATOM      6  C   UNL     1       6.230   3.664  12.571  0.00  0.00    +0.000 A 
ATOM      7  C   UNL     1       7.131   4.290  11.683  0.00  0.00    +0.000 A 
ATOM      8  C   UNL     1       8.005   5.278  12.125  0.00  0.00    +0.000 A 
ATOM      9  C   UNL     1       7.994   5.655  13.460  0.00  0.00    +0.000 A 
ATOM     10  C   UNL     1       7.118   5.035  14.358  0.00  0.00    +0.000 A 
ATOM     11  C   UNL     1       6.237   4.023  13.944  0.00  0.00    +0.000 A 
BRANCH   6  13
ATOM     12  C   UNL     1       4.105   3.283  11.263  0.00  0.00    +0.000 C 
ATOM     13  C   UNL     1       5.289   2.640  11.970  0.00  0.00    +0.000 C 
ENDBRANCH   6  13
ENDBRANCH   5  11
ENDBRANCH   1   5
BRANCH   3  14
ATOM     14  C   UNL     1       4.492   3.980  18.636  0.00  0.00    +0.000 C 
BRANCH  14  15
ATOM     15  C   UNL     1       3.949   2.829  19.541  0.00  0.00    +0.000 C 
ATOM     16  C   UNL     1       3.039   3.309  20.695  0.00  0.00    +0.000 C 
ATOM     17  C   UNL     1       1.676   3.826  20.231  0.00  0.00    +0.000 C 
ATOM     18  C   UNL     1       0.962   2.890  19.256  0.00  0.00    +0.000 C 
ATOM     19  C   UNL     1       1.869   2.334  18.164  0.00  0.00    +0.000 C 
ATOM     20  C   UNL     1       3.163   1.769  18.742  0.00  0.00    +0.000 C 
ENDBRANCH  14  15
BRANCH  14  21
ATOM     21  C   UNL     1       5.594   4.711  19.308  0.00  0.00    +0.000 C 
ATOM     22  N   UNL     1       6.476   5.274  19.817  0.00  0.00    +0.000 NA
ENDBRANCH  14  21
ENDBRANCH   3  14
TORSDOF 6
ENDMDL
MODEL 5
REMARK VINA RESULT:      -6.5      4.216      6.411
REMARK  Name = 
REMARK  7 active torsions:
REMARK  status: ('A' for Active; 'I' for Inactive)
REMARK    1  A    between atoms: C_1  and  C_2
REMARK    2  A    between atoms: C_2  and  C_3
REMARK    3  A    between atoms: C_8  and  C_9
REMARK    4  A    between atoms: C_9  and  C_10
REMARK    5  A    between atoms: N_12  and  C_13
REMARK    6  A    between atoms: C_13  and  C_14
REMARK    7  A    between atoms: C_13  and  C_16
REMARK                            x       y       z     vdW  Elec       q    Type
REMARK                         _______ _______ _______ _____ _____    ______ ____
ROOT
ATOM      1  C   UNL     1       2.289   6.896  19.771  0.00  0.00    +0.000 C 
ATOM      2  O   UNL     1       1.730   6.213  20.624  0.00  0.00    +0.000 OA
ATOM      3  N   UNL     1       3.316   6.407  18.992  0.00  0.00    +0.000 N 
ATOM      4  H   UNL     1       3.951   7.074  18.572  0.00  0.00    +0.000 HD
ENDROOT
BRANCH   1   5
ATOM      5  C   UNL     1       1.841   8.312  19.427  0.00  0.00    +0.000 C 
BRANCH   5  11
ATOM      6  C   UNL     1       0.017   9.975  20.096  0.00  0.00    +0.000 A 
ATOM      7  C   UNL     1      -0.745  10.615  21.097  0.00  0.00    +0.000 A 
ATOM      8  C   UNL     1      -0.529  10.348  22.445  0.00  0.00    +0.000 A 
ATOM      9  C   UNL     1       0.453   9.440  22.814  0.00  0.00    +0.000 A 
ATOM     10  C   UNL     1       1.228   8.807  21.837  0.00  0.00    +0.000 A 
ATOM     11  C   UNL     1       1.044   9.070  20.470  0.00  0.00    +0.000 A 
BRANCH   6  13
ATOM     12  C   UNL     1      -1.825  10.582  18.480  0.00  0.00    +0.000 C 
ATOM     13  C   UNL     1      -0.340  10.303  18.661  0.00  0.00    +0.000 C 
ENDBRANCH   6  13
ENDBRANCH   5  11
ENDBRANCH   1   5
BRANCH   3  14
ATOM     14  C   UNL     1       3.725   4.994  19.054  0.00  0.00    +0.000 C 
BRANCH  14  15
ATOM     15  C   UNL     1       3.238   4.240  17.775  0.00  0.00    +0.000 C 
ATOM     16  C   UNL     1       3.749   2.786  17.666  0.00  0.00    +0.000 C 
ATOM     17  C   UNL     1       3.118   1.833  18.683  0.00  0.00    +0.000 C 
ATOM     18  C   UNL     1       1.594   1.928  18.752  0.00  0.00    +0.000 C 
ATOM     19  C   UNL     1       1.069   3.359  18.767  0.00  0.00    +0.000 C 
ATOM     20  C   UNL     1       1.700   4.200  17.662  0.00  0.00    +0.000 C 
ENDBRANCH  14  15
BRANCH  14  21
ATOM     21  C   UNL     1       5.197   4.891  19.204  0.00  0.00    +0.000 C 
ATOM     22  N   UNL     1       6.353   4.801  19.296  0.00  0.00    +0.000 NA
ENDBRANCH  14  21
ENDBRANCH   3  14
TORSDOF 6
ENDMDL
MODEL 6
REMARK VINA RESULT:      -6.3      3.054      5.641
REMARK  Name = 
REMARK  7 active torsions:
REMARK  status: ('A' for Active; 'I' for Inactive)
REMARK    1  A    between atoms: C_1  and  C_2
REMARK    2  A    between atoms: C_2  and  C_3
REMARK    3  A    between atoms: C_8  and  C_9
REMARK    4  A    between atoms: C_9  and  C_10
REMARK    5  A    between atoms: N_12  and  C_13
REMARK    6  A    between atoms: C_13  and  C_14
REMARK    7  A    between atoms: C_13  and  C_16
REMARK                            x       y       z     vdW  Elec       q    Type
REMARK                         _______ _______ _______ _____ _____    ______ ____
ROOT
ATOM      1  C   UNL     1       3.406   5.286  19.876  0.00  0.00    +0.000 C 
ATOM      2  O   UNL     1       3.376   4.063  19.783  0.00  0.00    +0.000 OA
ATOM      3  N   UNL     1       4.481   6.032  19.443  0.00  0.00    +0.000 N 
ATOM      4  H   UNL     1       4.608   6.954  19.840  0.00  0.00    +0.000 HD
ENDROOT
BRANCH   1   5
ATOM      5  C   UNL     1       2.224   6.101  20.390  0.00  0.00    +0.000 C 
BRANCH   5  11
ATOM      6  C   UNL     1       1.372   8.513  20.375  0.00  0.00    +0.000 A 
ATOM      7  C   UNL     1       1.144   9.724  19.686  0.00  0.00    +0.000 A 
ATOM      8  C   UNL     1       1.461   9.854  18.339  0.00  0.00    +0.000 A 
ATOM      9  C   UNL     1       2.009   8.777  17.656  0.00  0.00    +0.000 A 
ATOM     10  C   UNL     1       2.229   7.564  18.319  0.00  0.00    +0.000 A 
ATOM     11  C   UNL     1       1.902   7.398  19.674  0.00  0.00    +0.000 A 
BRANCH   6  13
ATOM     12  C   UNL     1      -0.436   8.776  22.117  0.00  0.00    +0.000 C 
ATOM     13  C   UNL     1       1.038   8.501  21.853  0.00  0.00    +0.000 C 
ENDBRANCH   6  13
ENDBRANCH   5  11
ENDBRANCH   1   5
BRANCH   3  14
ATOM     14  C   UNL     1       5.611   5.415  18.729  0.00  0.00    +0.000 C 
BRANCH  14  15
ATOM     15  C   UNL     1       5.846   6.144  17.368  0.00  0.00    +0.000 C 
ATOM     16  C   UNL     1       7.219   5.847  16.722  0.00  0.00    +0.000 C 
ATOM     17  C   UNL     1       7.350   4.421  16.183  0.00  0.00    +0.000 C 
ATOM     18  C   UNL     1       6.172   3.980  15.314  0.00  0.00    +0.000 C 
ATOM     19  C   UNL     1       4.811   4.348  15.895  0.00  0.00    +0.000 C 
ATOM     20  C   UNL     1       4.761   5.811  16.323  0.00  0.00    +0.000 C 
ENDBRANCH  14  15
BRANCH  14  21
ATOM     21  C   UNL     1       6.832   5.451  19.571  0.00  0.00    +0.000 C 
ATOM     22  N   UNL     1       7.778   5.461  20.247  0.00  0.00    +0.000 NA
ENDBRANCH  14  21
ENDBRANCH   3  14
TORSDOF 6
ENDMDL
MODEL 7
REMARK VINA RESULT:      -6.2      1.908      3.189
REMARK  Name = 
REMARK  7 active torsions:
REMARK  status: ('A' for Active; 'I' for Inactive)
REMARK    1  A    between atoms: C_1  and  C_2
REMARK    2  A    between atoms: C_2  and  C_3
REMARK    3  A    between atoms: C_8  and  C_9
REMARK    4  A    between atoms: C_9  and  C_10
REMARK    5  A    between atoms: N_12  and  C_13
REMARK    6  A    between atoms: C_13  and  C_14
REMARK    7  A    between atoms: C_13  and  C_16
REMARK                            x       y       z     vdW  Elec       q    Type
REMARK                         _______ _______ _______ _____ _____    ______ ____
ROOT
ATOM      1  C   UNL     1       3.328   6.822  18.119  0.00  0.00    +0.000 C 
ATOM      2  O   UNL     1       2.335   7.501  17.876  0.00  0.00    +0.000 OA
ATOM      3  N   UNL     1       3.253   5.620  18.789  0.00  0.00    +0.000 N 
ATOM      4  H   UNL     1       4.087   5.285  19.255  0.00  0.00    +0.000 HD
ENDROOT
BRANCH   1   5
ATOM      5  C   UNL     1       4.720   7.193  17.620  0.00  0.00    +0.000 C 
BRANCH   5  11
ATOM      6  C   UNL     1       6.449   5.331  17.326  0.00  0.00    +0.000 A 
ATOM      7  C   UNL     1       7.067   4.355  16.516  0.00  0.00    +0.000 A 
ATOM      8  C   UNL     1       6.695   4.184  15.187  0.00  0.00    +0.000 A 
ATOM      9  C   UNL     1       5.701   4.987  14.645  0.00  0.00    +0.000 A 
ATOM     10  C   UNL     1       5.087   5.970  15.429  0.00  0.00    +0.000 A 
ATOM     11  C   UNL     1       5.455   6.177  16.768  0.00  0.00    +0.000 A 
BRANCH   6  13
ATOM     12  C   UNL     1       8.057   6.357  18.980  0.00  0.00    +0.000 C 
ATOM     13  C   UNL     1       6.897   5.393  18.772  0.00  0.00    +0.000 C 
ENDBRANCH   6  13
ENDBRANCH   5  11
ENDBRANCH   1   5
BRANCH   3  14
ATOM     14  C   UNL     1       1.960   5.018  19.152  0.00  0.00    +0.000 C 
BRANCH  14  15
ATOM     15  C   UNL     1       1.538   3.968  18.075  0.00  0.00    +0.000 C 
ATOM     16  C   UNL     1       2.645   3.640  17.046  0.00  0.00    +0.000 C 
ATOM     17  C   UNL     1       3.808   2.836  17.629  0.00  0.00    +0.000 C 
ATOM     18  C   UNL     1       3.369   1.619  18.444  0.00  0.00    +0.000 C 
ATOM     19  C   UNL     1       2.215   1.906  19.399  0.00  0.00    +0.000 C 
ATOM     20  C   UNL     1       1.074   2.635  18.697  0.00  0.00    +0.000 C 
ENDBRANCH  14  15
BRANCH  14  21
ATOM     21  C   UNL     1       2.040   4.398  20.496  0.00  0.00    +0.000 C 
ATOM     22  N   UNL     1       2.097   3.886  21.540  0.00  0.00    +0.000 NA
ENDBRANCH  14  21
ENDBRANCH   3  14
TORSDOF 6
ENDMDL
MODEL 8
REMARK VINA RESULT:      -6.2      3.640      5.961
REMARK  Name = 
REMARK  7 active torsions:
REMARK  status: ('A' for Active; 'I' for Inactive)
REMARK    1  A    between atoms: C_1  and  C_2
REMARK    2  A    between atoms: C_2  and  C_3
REMARK    3  A    between atoms: C_8  and  C_9
REMARK    4  A    between atoms: C_9  and  C_10
REMARK    5  A    between atoms: N_12  and  C_13
REMARK    6  A    between atoms: C_13  and  C_14
REMARK    7  A    between atoms: C_13  and  C_16
REMARK                            x       y       z     vdW  Elec       q    Type
REMARK                         _______ _______ _______ _____ _____    ______ ____
ROOT
ATOM      1  C   UNL     1       3.029   7.106  18.003  0.00  0.00    +0.000 C 
ATOM      2  O   UNL     1       4.243   7.243  18.120  0.00  0.00    +0.000 OA
ATOM      3  N   UNL     1       2.425   5.867  17.993  0.00  0.00    +0.000 N 
ATOM      4  H   UNL     1       1.512   5.788  17.562  0.00  0.00    +0.000 HD
ENDROOT
BRANCH   1   5
ATOM      5  C   UNL     1       2.068   8.289  17.954  0.00  0.00    +0.000 C 
BRANCH   5  11
ATOM      6  C   UNL     1       0.344   9.653  19.262  0.00  0.00    +0.000 A 
ATOM      7  C   UNL     1      -0.293   9.970  20.480  0.00  0.00    +0.000 A 
ATOM      8  C   UNL     1       0.074   9.344  21.667  0.00  0.00    +0.000 A 
ATOM      9  C   UNL     1       1.085   8.394  21.656  0.00  0.00    +0.000 A 
ATOM     10  C   UNL     1       1.739   8.078  20.460  0.00  0.00    +0.000 A 
ATOM     11  C   UNL     1       1.401   8.706  19.250  0.00  0.00    +0.000 A 
BRANCH   6  13
ATOM     12  C   UNL     1      -1.677  10.203  17.853  0.00  0.00    +0.000 C 
ATOM     13  C   UNL     1      -0.172  10.358  18.024  0.00  0.00    +0.000 C 
ENDBRANCH   6  13
ENDBRANCH   5  11
ENDBRANCH   1   5
BRANCH   3  14
ATOM     14  C   UNL     1       3.189   4.634  18.243  0.00  0.00    +0.000 C 
BRANCH  14  15
ATOM     15  C   UNL     1       2.214   3.455  18.555  0.00  0.00    +0.000 C 
ATOM     16  C   UNL     1       2.902   2.208  19.157  0.00  0.00    +0.000 C 
ATOM     17  C   UNL     1       3.398   2.410  20.590  0.00  0.00    +0.000 C 
ATOM     18  C   UNL     1       2.354   3.024  21.522  0.00  0.00    +0.000 C 
ATOM     19  C   UNL     1       1.601   4.200  20.908  0.00  0.00    +0.000 C 
ATOM     20  C   UNL     1       1.077   3.864  19.515  0.00  0.00    +0.000 C 
ENDBRANCH  14  15
BRANCH  14  21
ATOM     21  C   UNL     1       4.052   4.318  17.079  0.00  0.00    +0.000 C 
ATOM     22  N   UNL     1       4.739   4.049  16.181  0.00  0.00    +0.000 NA
ENDBRANCH  14  21
ENDBRANCH   3  14
TORSDOF 6
ENDMDL
MODEL 9
REMARK VINA RESULT:      -6.2      2.429      3.900
REMARK  Name = 
REMARK  7 active torsions:
REMARK  status: ('A' for Active; 'I' for Inactive)
REMARK    1  A    between atoms: C_1  and  C_2
REMARK    2  A    between atoms: C_2  and  C_3
REMARK    3  A    between atoms: C_8  and  C_9
REMARK    4  A    between atoms: C_9  and  C_10
REMARK    5  A    between atoms: N_12  and  C_13
REMARK    6  A    between atoms: C_13  and  C_14
REMARK    7  A    between atoms: C_13  and  C_16
REMARK                            x       y       z     vdW  Elec       q    Type
REMARK                         _______ _______ _______ _____ _____    ______ ____
ROOT
ATOM      1  C   UNL     1       3.291   7.210  17.827  0.00  0.00    +0.000 C 
ATOM      2  O   UNL     1       2.303   7.910  17.631  0.00  0.00    +0.000 OA
ATOM      3  N   UNL     1       3.325   6.241  18.807  0.00  0.00    +0.000 N 
ATOM      4  H   UNL     1       4.230   5.946  19.151  0.00  0.00    +0.000 HD
ENDROOT
BRANCH   1   5
ATOM      5  C   UNL     1       4.536   7.278  16.949  0.00  0.00    +0.000 C 
BRANCH   5  11
ATOM      6  C   UNL     1       6.061   5.360  16.214  0.00  0.00    +0.000 A 
ATOM      7  C   UNL     1       7.134   4.482  16.479  0.00  0.00    +0.000 A 
ATOM      8  C   UNL     1       7.808   4.518  17.695  0.00  0.00    +0.000 A 
ATOM      9  C   UNL     1       7.419   5.430  18.666  0.00  0.00    +0.000 A 
ATOM     10  C   UNL     1       6.349   6.299  18.427  0.00  0.00    +0.000 A 
ATOM     11  C   UNL     1       5.639   6.273  17.216  0.00  0.00    +0.000 A 
BRANCH   6  13
ATOM     12  C   UNL     1       5.863   4.015  14.087  0.00  0.00    +0.000 C 
ATOM     13  C   UNL     1       5.435   5.268  14.837  0.00  0.00    +0.000 C 
ENDBRANCH   6  13
ENDBRANCH   5  11
ENDBRANCH   1   5
BRANCH   3  14
ATOM     14  C   UNL     1       2.132   5.905  19.601  0.00  0.00    +0.000 C 
BRANCH  14  15
ATOM     15  C   UNL     1       2.404   4.629  20.461  0.00  0.00    +0.000 C 
ATOM     16  C   UNL     1       1.177   3.704  20.624  0.00  0.00    +0.000 C 
ATOM     17  C   UNL     1       0.783   2.970  19.340  0.00  0.00    +0.000 C 
ATOM     18  C   UNL     1       1.956   2.289  18.637  0.00  0.00    +0.000 C 
ATOM     19  C   UNL     1       3.207   3.157  18.549  0.00  0.00    +0.000 C 
ATOM     20  C   UNL     1       3.558   3.773  19.900  0.00  0.00    +0.000 C 
ENDBRANCH  14  15
BRANCH  14  21
ATOM     21  C   UNL     1       1.744   7.051  20.457  0.00  0.00    +0.000 C 
ATOM     22  N   UNL     1       1.414   7.950  21.118  0.00  0.00    +0.000 NA
ENDBRANCH  14  21
ENDBRANCH   3  14
TORSDOF 6
ENDMDL
