MODEL 1
REMARK VINA RESULT:      -6.5      0.000      0.000
REMARK  Name = 
REMARK  4 active torsions:
REMARK  status: ('A' for Active; 'I' for Inactive)
REMARK    1  A    between atoms: C_1  and  N_2
REMARK    2  A    between atoms: N_7  and  C_8
REMARK    3  A    between atoms: C_8  and  C_10
REMARK    4  A    between atoms: C_13  and  C_14
REMARK                            x       y       z     vdW  Elec       q    Type
REMARK                         _______ _______ _______ _____ _____    ______ ____
ROOT
ATOM      1  C   UNL     1       6.482   5.098  17.902  0.00  0.00    +0.000 A 
ATOM      2  C   UNL     1       7.593   4.487  17.356  0.00  0.00    +0.000 A 
ATOM      3  N   UNL     1       7.668   4.494  15.971  0.00  0.00    +0.000 NA
ATOM      4  C   UNL     1       6.606   5.103  15.469  0.00  0.00    +0.000 A 
ATOM      5  S   UNL     1       5.538   5.774  16.639  0.00  0.00    +0.000 S 
ENDROOT
BRANCH   4   6
ATOM      6  C   UNL     1       6.241   5.224  14.010  0.00  0.00    +0.000 C 
ATOM      7  O   UNL     1       7.438   5.239  13.218  0.00  0.00    +0.000 OA
ATOM      8  C   UNL     1       7.172   4.301  12.178  0.00  0.00    +0.000 C 
ATOM      9  C   UNL     1       6.264   3.295  12.831  0.00  0.00    +0.000 C 
ATOM     10  O   UNL     1       5.416   4.102  13.648  0.00  0.00    +0.000 OA
ENDBRANCH   4   6
BRANCH   1  11
ATOM     11  C   UNL     1       6.026   5.215  19.273  0.00  0.00    +0.000 C 
ATOM     12  O   UNL     1       6.754   5.032  20.238  0.00  0.00    +0.000 OA
BRANCH  11  19
ATOM     13  C   UNL     1       4.489   2.470  19.829  0.00  0.00    +0.000 C 
ATOM     14  N   UNL     1       3.515   3.543  19.936  0.00  0.00    +0.000 N 
ATOM     15  C   UNL     1       2.205   3.280  20.317  0.00  0.00    +0.000 A 
ATOM     16  C   UNL     1       1.371   4.323  20.332  0.00  0.00    +0.000 A 
ATOM     17  S   UNL     1       2.186   5.776  19.837  0.00  0.00    +0.000 S 
ATOM     18  C   UNL     1       3.768   4.890  19.656  0.00  0.00    +0.000 A 
ATOM     19  N   UNL     1       4.738   5.658  19.329  0.00  0.00    +0.000 NA
ENDBRANCH  11  19
ENDBRANCH   1  11
TORSDOF 3
ENDMDL
MODEL 2
REMARK VINA RESULT:      -6.4      1.948      2.504
REMARK  Name = 
REMARK  4 active torsions:
REMARK  status: ('A' for Active; 'I' for Inactive)
REMARK    1  A    between atoms: C_1  and  N_2
REMARK    2  A    between atoms: N_7  and  C_8
REMARK    3  A    between atoms: C_8  and  C_10
REMARK    4  A    between atoms: C_13  and  C_14
REMARK                            x       y       z     vdW  Elec       q    Type
REMARK                         _______ _______ _______ _____ _____    ______ ____
ROOT
ATOM      1  C   UNL     1       4.757   5.740  18.471  0.00  0.00    +0.000 A 
ATOM      2  C   UNL     1       5.936   5.341  19.069  0.00  0.00    +0.000 A 
ATOM      3  N   UNL     1       6.883   4.781  18.225  0.00  0.00    +0.000 NA
ATOM      4  C   UNL     1       6.416   4.748  16.988  0.00  0.00    +0.000 A 
ATOM      5  S   UNL     1       4.871   5.476  16.779  0.00  0.00    +0.000 S 
ENDROOT
BRANCH   4   6
ATOM      6  C   UNL     1       7.079   4.114  15.790  0.00  0.00    +0.000 C 
ATOM      7  O   UNL     1       6.080   3.499  14.962  0.00  0.00    +0.000 OA
ATOM      8  C   UNL     1       6.401   3.949  13.647  0.00  0.00    +0.000 C 
ATOM      9  C   UNL     1       6.994   5.313  13.874  0.00  0.00    +0.000 C 
ATOM     10  O   UNL     1       7.777   5.136  15.056  0.00  0.00    +0.000 OA
ENDBRANCH   4   6
BRANCH   1  11
ATOM     11  C   UNL     1       3.531   6.279  19.026  0.00  0.00    +0.000 C 
ATOM     12  O   UNL     1       2.908   7.194  18.508  0.00  0.00    +0.000 OA
BRANCH  11  19
ATOM     13  C   UNL     1       1.525   4.212  17.644  0.00  0.00    +0.000 C 
ATOM     14  N   UNL     1       1.669   3.814  19.033  0.00  0.00    +0.000 N 
ATOM     15  C   UNL     1       1.060   2.660  19.510  0.00  0.00    +0.000 A 
ATOM     16  C   UNL     1       1.205   2.408  20.813  0.00  0.00    +0.000 A 
ATOM     17  S   UNL     1       2.141   3.652  21.585  0.00  0.00    +0.000 S 
ATOM     18  C   UNL     1       2.380   4.526  20.004  0.00  0.00    +0.000 A 
ATOM     19  N   UNL     1       3.123   5.563  20.112  0.00  0.00    +0.000 NA
ENDBRANCH  11  19
ENDBRANCH   1  11
TORSDOF 3
ENDMDL
MODEL 3
REMARK VINA RESULT:      -6.3      1.391      1.663
REMARK  Name = 
REMARK  4 active torsions:
REMARK  status: ('A' for Active; 'I' for Inactive)
REMARK    1  A    between atoms: C_1  and  N_2
REMARK    2  A    between atoms: N_7  and  C_8
REMARK    3  A    between atoms: C_8  and  C_10
REMARK    4  A    between atoms: C_13  and  C_14
REMARK                            x       y       z     vdW  Elec       q    Type
REMARK                         _______ _______ _______ _____ _____    ______ ____
ROOT
ATOM      1  C   UNL     1       6.266   4.740  17.666  0.00  0.00    +0.000 A 
ATOM      2  C   UNL     1       7.541   4.516  17.186  0.00  0.00    +0.000 A 
ATOM      3  N   UNL     1       7.704   4.652  15.815  0.00  0.00    +0.000 NA
ATOM      4  C   UNL     1       6.548   4.971  15.257  0.00  0.00    +0.000 A 
ATOM      5  S   UNL     1       5.254   5.215  16.364  0.00  0.00    +0.000 S 
ENDROOT
BRANCH   4   6
ATOM      6  C   UNL     1       6.263   5.096  13.780  0.00  0.00    +0.000 C 
ATOM      7  O   UNL     1       7.488   4.954  13.045  0.00  0.00    +0.000 OA
ATOM      8  C   UNL     1       7.161   4.027  12.012  0.00  0.00    +0.000 C 
ATOM      9  C   UNL     1       6.116   3.148  12.642  0.00  0.00    +0.000 C 
ATOM     10  O   UNL     1       5.331   4.067  13.402  0.00  0.00    +0.000 OA
ENDBRANCH   4   6
BRANCH   1  11
ATOM     11  C   UNL     1       5.703   4.615  18.996  0.00  0.00    +0.000 C 
ATOM     12  O   UNL     1       5.826   5.474  19.857  0.00  0.00    +0.000 OA
BRANCH  11  19
ATOM     13  C   UNL     1       2.776   5.891  19.077  0.00  0.00    +0.000 C 
ATOM     14  N   UNL     1       2.619   4.449  19.003  0.00  0.00    +0.000 N 
ATOM     15  C   UNL     1       1.358   3.874  18.894  0.00  0.00    +0.000 A 
ATOM     16  C   UNL     1       1.314   2.539  18.889  0.00  0.00    +0.000 A 
ATOM     17  S   UNL     1       2.908   1.865  19.042  0.00  0.00    +0.000 S 
ATOM     18  C   UNL     1       3.665   3.522  19.058  0.00  0.00    +0.000 A 
ATOM     19  N   UNL     1       4.944   3.489  19.107  0.00  0.00    +0.000 NA
ENDBRANCH  11  19
ENDBRANCH   1  11
TORSDOF 3
ENDMDL
MODEL 4
REMARK VINA RESULT:      -6.0      1.177      1.567
REMARK  Name = 
REMARK  4 active torsions:
REMARK  status: ('A' for Active; 'I' for Inactive)
REMARK    1  A    between atoms: C_1  and  N_2
REMARK    2  A    between atoms: N_7  and  C_8
REMARK    3  A    between atoms: C_8  and  C_10
REMARK    4  A    between atoms: C_13  and  C_14
REMARK                            x       y       z     vdW  Elec       q    Type
REMARK                         _______ _______ _______ _____ _____    ______ ____
ROOT
ATOM      1  C   UNL     1       5.632   5.460  17.547  0.00  0.00    +0.000 A 
ATOM      2  C   UNL     1       5.162   6.253  16.518  0.00  0.00    +0.000 A 
ATOM      3  N   UNL     1       5.657   5.963  15.256  0.00  0.00    +0.000 NA
ATOM      4  C   UNL     1       6.510   4.954  15.331  0.00  0.00    +0.000 A 
ATOM      5  S   UNL     1       6.670   4.258  16.896  0.00  0.00    +0.000 S 
ENDROOT
BRANCH   4   6
ATOM      6  C   UNL     1       7.356   4.403  14.210  0.00  0.00    +0.000 C 
ATOM      7  O   UNL     1       6.504   3.914  13.164  0.00  0.00    +0.000 OA
ATOM      8  C   UNL     1       7.067   4.468  11.977  0.00  0.00    +0.000 C 
ATOM      9  C   UNL     1       7.650   5.776  12.438  0.00  0.00    +0.000 C 
ATOM     10  O   UNL     1       8.204   5.455  13.714  0.00  0.00    +0.000 OA
ENDBRANCH   4   6
BRANCH   1  11
ATOM     11  C   UNL     1       5.413   5.513  18.978  0.00  0.00    +0.000 C 
ATOM     12  O   UNL     1       6.322   5.476  19.796  0.00  0.00    +0.000 OA
BRANCH  11  19
ATOM     13  C   UNL     1       4.501   2.534  19.686  0.00  0.00    +0.000 C 
ATOM     14  N   UNL     1       3.389   3.414  19.997  0.00  0.00    +0.000 N 
ATOM     15  C   UNL     1       2.231   2.919  20.587  0.00  0.00    +0.000 A 
ATOM     16  C   UNL     1       1.243   3.797  20.783  0.00  0.00    +0.000 A 
ATOM     17  S   UNL     1       1.693   5.375  20.210  0.00  0.00    +0.000 S 
ATOM     18  C   UNL     1       3.349   4.787  19.729  0.00  0.00    +0.000 A 
ATOM     19  N   UNL     1       4.098   5.718  19.271  0.00  0.00    +0.000 NA
ENDBRANCH  11  19
ENDBRANCH   1  11
TORSDOF 3
ENDMDL
MODEL 5
REMARK VINA RESULT:      -5.8      2.214      2.901
REMARK  Name = 
REMARK  4 active torsions:
REMARK  status: ('A' for Active; 'I' for Inactive)
REMARK    1  A    between atoms: C_1  and  N_2
REMARK    2  A    between atoms: N_7  and  C_8
REMARK    3  A    between atoms: C_8  and  C_10
REMARK    4  A    between atoms: C_13  and  C_14
REMARK                            x       y       z     vdW  Elec       q    Type
REMARK                         _______ _______ _______ _____ _____    ______ ____
ROOT
ATOM      1  C   UNL     1       4.133   6.001  19.085  0.00  0.00    +0.000 A 
ATOM      2  C   UNL     1       5.224   5.243  19.461  0.00  0.00    +0.000 A 
ATOM      3  N   UNL     1       6.234   5.127  18.518  0.00  0.00    +0.000 NA
ATOM      4  C   UNL     1       5.902   5.791  17.423  0.00  0.00    +0.000 A 
ATOM      5  S   UNL     1       4.419   6.656  17.525  0.00  0.00    +0.000 S 
ENDROOT
BRANCH   4   6
ATOM      6  C   UNL     1       6.665   5.824  16.122  0.00  0.00    +0.000 C 
ATOM      7  O   UNL     1       7.347   4.574  15.938  0.00  0.00    +0.000 OA
ATOM      8  C   UNL     1       7.039   4.211  14.593  0.00  0.00    +0.000 C 
ATOM      9  C   UNL     1       5.668   4.791  14.375  0.00  0.00    +0.000 C 
ATOM     10  O   UNL     1       5.734   6.048  15.048  0.00  0.00    +0.000 OA
ENDBRANCH   4   6
BRANCH   1  11
ATOM     11  C   UNL     1       2.876   6.277  19.753  0.00  0.00    +0.000 C 
ATOM     12  O   UNL     1       2.240   7.306  19.582  0.00  0.00    +0.000 OA
BRANCH  11  19
ATOM     13  C   UNL     1       1.397   4.560  17.501  0.00  0.00    +0.000 C 
ATOM     14  N   UNL     1       1.438   3.751  18.706  0.00  0.00    +0.000 N 
ATOM     15  C   UNL     1       0.968   2.443  18.703  0.00  0.00    +0.000 A 
ATOM     16  C   UNL     1       0.996   1.800  19.873  0.00  0.00    +0.000 A 
ATOM     17  S   UNL     1       1.627   2.823  21.128  0.00  0.00    +0.000 S 
ATOM     18  C   UNL     1       1.909   4.184  19.950  0.00  0.00    +0.000 A 
ATOM     19  N   UNL     1       2.462   5.206  20.488  0.00  0.00    +0.000 NA
ENDBRANCH  11  19
ENDBRANCH   1  11
TORSDOF 3
ENDMDL
MODEL 6
REMARK VINA RESULT:      -5.8      2.963      3.985
REMARK  Name = 
REMARK  4 active torsions:
REMARK  status: ('A' for Active; 'I' for Inactive)
REMARK    1  A    between atoms: C_1  and  N_2
REMARK    2  A    between atoms: N_7  and  C_8
REMARK    3  A    between atoms: C_8  and  C_10
REMARK    4  A    between atoms: C_13  and  C_14
REMARK                            x       y       z     vdW  Elec       q    Type
REMARK                         _______ _______ _______ _____ _____    ______ ____
ROOT
ATOM      1  C   UNL     1       3.513   4.646  17.193  0.00  0.00    +0.000 A 
ATOM      2  C   UNL     1       3.397   5.928  17.693  0.00  0.00    +0.000 A 
ATOM      3  N   UNL     1       4.528   6.723  17.589  0.00  0.00    +0.000 NA
ATOM      4  C   UNL     1       5.505   6.037  17.017  0.00  0.00    +0.000 A 
ATOM      5  S   UNL     1       5.070   4.456  16.497  0.00  0.00    +0.000 S 
ENDROOT
BRANCH   4   6
ATOM      6  C   UNL     1       6.931   6.491  16.823  0.00  0.00    +0.000 C 
ATOM      7  O   UNL     1       7.012   7.910  17.021  0.00  0.00    +0.000 OA
ATOM      8  C   UNL     1       8.132   8.072  17.889  0.00  0.00    +0.000 C 
ATOM      9  C   UNL     1       8.122   6.816  18.717  0.00  0.00    +0.000 C 
ATOM     10  O   UNL     1       7.765   5.805  17.774  0.00  0.00    +0.000 OA
ENDBRANCH   4   6
BRANCH   1  11
ATOM     11  C   UNL     1       2.594   3.525  17.197  0.00  0.00    +0.000 C 
ATOM     12  O   UNL     1       2.664   2.600  16.401  0.00  0.00    +0.000 OA
BRANCH  11  19
ATOM     13  C   UNL     1       4.302   1.999  19.424  0.00  0.00    +0.000 C 
ATOM     14  N   UNL     1       3.126   2.544  20.078  0.00  0.00    +0.000 N 
ATOM     15  C   UNL     1       2.956   2.429  21.452  0.00  0.00    +0.000 A 
ATOM     16  C   UNL     1       1.816   2.913  21.952  0.00  0.00    +0.000 A 
ATOM     17  S   UNL     1       0.815   3.566  20.691  0.00  0.00    +0.000 S 
ATOM     18  C   UNL     1       2.071   3.192  19.426  0.00  0.00    +0.000 A 
ATOM     19  N   UNL     1       1.738   3.591  18.256  0.00  0.00    +0.000 NA
ENDBRANCH  11  19
ENDBRANCH   1  11
TORSDOF 3
ENDMDL
MODEL 7
REMARK VINA RESULT:      -5.7      1.125      1.144
REMARK  Name = 
REMARK  4 active torsions:
REMARK  status: ('A' for Active; 'I' for Inactive)
REMARK    1  A    between atoms: C_1  and  N_2
REMARK    2  A    between atoms: N_7  and  C_8
REMARK    3  A    between atoms: C_8  and  C_10
REMARK    4  A    between atoms: C_13  and  C_14
REMARK                            x       y       z     vdW  Elec       q    Type
REMARK                         _______ _______ _______ _____ _____    ______ ____
ROOT
ATOM      1  C   UNL     1       5.830   4.383  17.933  0.00  0.00    +0.000 A 
ATOM      2  C   UNL     1       7.135   4.731  17.647  0.00  0.00    +0.000 A 
ATOM      3  N   UNL     1       7.390   5.098  16.334  0.00  0.00    +0.000 NA
ATOM      4  C   UNL     1       6.276   5.020  15.624  0.00  0.00    +0.000 A 
ATOM      5  S   UNL     1       4.872   4.602  16.526  0.00  0.00    +0.000 S 
ENDROOT
BRANCH   4   6
ATOM      6  C   UNL     1       6.139   5.221  14.135  0.00  0.00    +0.000 C 
ATOM      7  O   UNL     1       7.444   5.246  13.536  0.00  0.00    +0.000 OA
ATOM      8  C   UNL     1       7.325   4.367  12.420  0.00  0.00    +0.000 C 
ATOM      9  C   UNL     1       6.312   3.351  12.875  0.00  0.00    +0.000 C 
ATOM     10  O   UNL     1       5.362   4.138  13.594  0.00  0.00    +0.000 OA
ENDBRANCH   4   6
BRANCH   1  11
ATOM     11  C   UNL     1       5.212   3.878  19.143  0.00  0.00    +0.000 C 
ATOM     12  O   UNL     1       5.616   2.888  19.736  0.00  0.00    +0.000 OA
BRANCH  11  19
ATOM     13  C   UNL     1       2.662   2.003  18.709  0.00  0.00    +0.000 C 
ATOM     14  N   UNL     1       2.211   3.196  19.404  0.00  0.00    +0.000 N 
ATOM     15  C   UNL     1       0.894   3.317  19.830  0.00  0.00    +0.000 A 
ATOM     16  C   UNL     1       0.562   4.473  20.410  0.00  0.00    +0.000 A 
ATOM     17  S   UNL     1       1.921   5.554  20.460  0.00  0.00    +0.000 S 
ATOM     18  C   UNL     1       3.006   4.312  19.686  0.00  0.00    +0.000 A 
ATOM     19  N   UNL     1       4.219   4.705  19.574  0.00  0.00    +0.000 NA
ENDBRANCH  11  19
ENDBRANCH   1  11
TORSDOF 3
ENDMDL
MODEL 8
REMARK VINA RESULT:      -5.7      4.439      7.200
REMARK  Name = 
REMARK  4 active torsions:
REMARK  status: ('A' for Active; 'I' for Inactive)
REMARK    1  A    between atoms: C_1  and  N_2
REMARK    2  A    between atoms: N_7  and  C_8
REMARK    3  A    between atoms: C_8  and  C_10
REMARK    4  A    between atoms: C_13  and  C_14
REMARK                            x       y       z     vdW  Elec       q    Type
REMARK                         _______ _______ _______ _____ _____    ______ ____
ROOT
ATOM      1  C   UNL     1       2.827   6.845  19.143  0.00  0.00    +0.000 A 
ATOM      2  C   UNL     1       2.960   7.534  17.955  0.00  0.00    +0.000 A 
ATOM      3  N   UNL     1       2.199   8.687  17.835  0.00  0.00    +0.000 NA
ATOM      4  C   UNL     1       1.481   8.865  18.932  0.00  0.00    +0.000 A 
ATOM      5  S   UNL     1       1.770   7.715  20.178  0.00  0.00    +0.000 S 
ENDROOT
BRANCH   4   6
ATOM      6  C   UNL     1       0.437   9.929  19.165  0.00  0.00    +0.000 C 
ATOM      7  O   UNL     1      -0.282   9.636  20.372  0.00  0.00    +0.000 OA
ATOM      8  C   UNL     1      -0.298  10.879  21.071  0.00  0.00    +0.000 C 
ATOM      9  C   UNL     1       0.991  11.536  20.657  0.00  0.00    +0.000 C 
ATOM     10  O   UNL     1       1.096  11.204  19.272  0.00  0.00    +0.000 OA
ENDBRANCH   4   6
BRANCH   1  11
ATOM     11  C   UNL     1       3.384   5.584  19.592  0.00  0.00    +0.000 C 
ATOM     12  O   UNL     1       2.696   4.635  19.940  0.00  0.00    +0.000 OA
BRANCH  11  19
ATOM     13  C   UNL     1       3.701   3.870  16.915  0.00  0.00    +0.000 C 
ATOM     14  N   UNL     1       5.018   4.369  17.269  0.00  0.00    +0.000 N 
ATOM     15  C   UNL     1       6.112   4.144  16.442  0.00  0.00    +0.000 A 
ATOM     16  C   UNL     1       7.290   4.594  16.882  0.00  0.00    +0.000 A 
ATOM     17  S   UNL     1       7.123   5.355  18.435  0.00  0.00    +0.000 S 
ATOM     18  C   UNL     1       5.323   5.075  18.438  0.00  0.00    +0.000 A 
ATOM     19  N   UNL     1       4.741   5.570  19.465  0.00  0.00    +0.000 NA
ENDBRANCH  11  19
ENDBRANCH   1  11
TORSDOF 3
ENDMDL
MODEL 9
REMARK VINA RESULT:      -5.7      2.031      2.517
REMARK  Name = 
REMARK  4 active torsions:
REMARK  status: ('A' for Active; 'I' for Inactive)
REMARK    1  A    between atoms: C_1  and  N_2
REMARK    2  A    between atoms: N_7  and  C_8
REMARK    3  A    between atoms: C_8  and  C_10
REMARK    4  A    between atoms: C_13  and  C_14
REMARK                            x       y       z     vdW  Elec       q    Type
REMARK                         _______ _______ _______ _____ _____    ______ ____
ROOT
ATOM      1  C   UNL     1       4.733   6.174  17.527  0.00  0.00    +0.000 A 
ATOM      2  C   UNL     1       5.859   6.952  17.346  0.00  0.00    +0.000 A 
ATOM      3  N   UNL     1       6.781   6.477  16.425  0.00  0.00    +0.000 NA
ATOM      4  C   UNL     1       6.355   5.333  15.915  0.00  0.00    +0.000 A 
ATOM      5  S   UNL     1       4.795   4.842  16.447  0.00  0.00    +0.000 S 
ENDROOT
BRANCH   4   6
ATOM      6  C   UNL     1       7.108   4.430  14.969  0.00  0.00    +0.000 C 
ATOM      7  O   UNL     1       6.173   3.686  14.174  0.00  0.00    +0.000 OA
ATOM      8  C   UNL     1       6.667   3.828  12.843  0.00  0.00    +0.000 C 
ATOM      9  C   UNL     1       7.314   5.186  12.848  0.00  0.00    +0.000 C 
ATOM     10  O   UNL     1       7.946   5.243  14.127  0.00  0.00    +0.000 OA
ENDBRANCH   4   6
BRANCH   1  11
ATOM     11  C   UNL     1       3.616   6.298  18.442  0.00  0.00    +0.000 C 
ATOM     12  O   UNL     1       2.735   7.136  18.311  0.00  0.00    +0.000 OA
BRANCH  11  19
ATOM     13  C   UNL     1       1.146   4.536  17.441  0.00  0.00    +0.000 C 
ATOM     14  N   UNL     1       1.795   3.804  18.514  0.00  0.00    +0.000 N 
ATOM     15  C   UNL     1       1.367   2.530  18.868  0.00  0.00    +0.000 A 
ATOM     16  C   UNL     1       1.991   1.961  19.903  0.00  0.00    +0.000 A 
ATOM     17  S   UNL     1       3.203   3.021  20.555  0.00  0.00    +0.000 S 
ATOM     18  C   UNL     1       2.854   4.285  19.290  0.00  0.00    +0.000 A 
ATOM     19  N   UNL     1       3.626   5.303  19.373  0.00  0.00    +0.000 NA
ENDBRANCH  11  19
ENDBRANCH   1  11
TORSDOF 3
ENDMDL
