MODEL 1
REMARK VINA RESULT:      -8.3      0.000      0.000
REMARK  Name = 
REMARK  13 active torsions:
REMARK  status: ('A' for Active; 'I' for Inactive)
REMARK    1  A    between atoms: C_1  and  C_2
REMARK    2  A    between atoms: C_2  and  O_3
REMARK    3  A    between atoms: O_3  and  C_4
REMARK    4  A    between atoms: C_8  and  C_9
REMARK    5  A    between atoms: C_9  and  C_10
REMARK    6  A    between atoms: C_13  and  O_14
REMARK    7  A    between atoms: O_14  and  C_15
REMARK    8  A    between atoms: C_15  and  C_16
REMARK    9  A    between atoms: C_16  and  C_17
REMARK   10  A    between atoms: C_19  and  C_20
REMARK   11  A    between atoms: C_27  and  C_28
REMARK   12  A    between atoms: C_31  and  C_32
REMARK   13  A    between atoms: C_32  and  O_34
REMARK                            x       y       z     vdW  Elec       q    Type
REMARK                         _______ _______ _______ _____ _____    ______ ____
ROOT
ATOM      1  C   UNL     1       1.228   9.007  19.470  0.00  0.00    +0.000 A 
ATOM      2  C   UNL     1       1.810   9.120  18.205  0.00  0.00    +0.000 A 
ATOM      3  C   UNL     1       2.675   8.139  17.738  0.00  0.00    +0.000 A 
ATOM      4  C   UNL     1       2.986   7.023  18.521  0.00  0.00    +0.000 A 
ATOM      5  C   UNL     1       2.411   6.904  19.786  0.00  0.00    +0.000 A 
ATOM      6  C   UNL     1       1.540   7.892  20.260  0.00  0.00    +0.000 A 
ENDROOT
BRANCH   1   7
ATOM      7  C   UNL     1       0.290  10.091  19.930  0.00  0.00    +0.000 C 
BRANCH   7  12
ATOM      8  C   UNL     1       1.377  14.760  21.197  0.00  0.00    +0.000 C 
ATOM      9  O   UNL     1       1.704  14.663  22.373  0.00  0.00    +0.000 OA
ATOM     10  N   UNL     1       0.898  13.717  20.448  0.00  0.00    +0.000 N 
ATOM     11  C   UNL     1       0.700  12.394  20.992  0.00  0.00    +0.000 C 
ATOM     12  C   UNL     1       0.850  11.501  19.761  0.00  0.00    +0.000 C 
ATOM     13  C   UNL     1       0.201  12.342  18.640  0.00  0.00    +0.000 C 
ATOM     14  C   UNL     1       0.483  13.792  19.056  0.00  0.00    +0.000 C 
BRANCH  13  15
ATOM     15  C   UNL     1      -1.288  12.104  18.486  0.00  0.00    +0.000 C 
ATOM     16  O   UNL     1      -2.146  12.480  19.268  0.00  0.00    +0.000 OA
BRANCH  15  17
ATOM     17  O   UNL     1      -1.596  11.364  17.394  0.00  0.00    +0.000 OA
ATOM     18  H   UNL     1      -0.898  10.752  17.091  0.00  0.00    +0.000 HD
ENDBRANCH  15  17
ENDBRANCH  13  15
BRANCH   8  19
ATOM     19  O   UNL     1       1.468  15.905  20.467  0.00  0.00    +0.000 OA
BRANCH  19  21
ATOM     20  C   UNL     1      -0.501  17.302  20.263  0.00  0.00    +0.000 C 
ATOM     21  C   UNL     1       0.793  17.046  21.014  0.00  0.00    +0.000 C 
ENDBRANCH  19  21
ENDBRANCH   8  19
ENDBRANCH   7  12
ENDBRANCH   1   7
BRANCH   4  22
ATOM     22  O   UNL     1       3.835   6.010  18.139  0.00  0.00    +0.000 OA
BRANCH  22  23
ATOM     23  C   UNL     1       4.388   5.274  19.236  0.00  0.00    +0.000 C 
BRANCH  23  24
ATOM     24  C   UNL     1       5.910   5.316  19.227  0.00  0.00    +0.000 C 
BRANCH  24  25
ATOM     25  C   UNL     1       6.408   5.548  17.844  0.00  0.00    +0.000 A 
ATOM     26  N   UNL     1       6.086   4.681  16.820  0.00  0.00    +0.000 NA
ATOM     27  C   UNL     1       6.704   5.174  15.763  0.00  0.00    +0.000 A 
ATOM     28  O   UNL     1       7.437   6.304  16.030  0.00  0.00    +0.000 OA
ATOM     29  C   UNL     1       7.234   6.537  17.361  0.00  0.00    +0.000 A 
ATOM     30  C   UNL     1       7.892   7.715  17.950  0.00  0.00    +0.000 C 
BRANCH  27  31
ATOM     31  C   UNL     1       6.686   4.714  14.377  0.00  0.00    +0.000 A 
ATOM     32  C   UNL     1       7.662   5.169  13.475  0.00  0.00    +0.000 A 
ATOM     33  C   UNL     1       7.687   4.711  12.154  0.00  0.00    +0.000 A 
ATOM     34  C   UNL     1       6.736   3.793  11.716  0.00  0.00    +0.000 A 
ATOM     35  C   UNL     1       5.755   3.337  12.594  0.00  0.00    +0.000 A 
ATOM     36  C   UNL     1       5.730   3.796  13.914  0.00  0.00    +0.000 A 
ENDBRANCH  27  31
ENDBRANCH  24  25
ENDBRANCH  23  24
ENDBRANCH  22  23
ENDBRANCH   4  22
TORSDOF 11
ENDMDL
MODEL 2
REMARK VINA RESULT:      -8.3      1.845      3.284
REMARK  Name = 
REMARK  13 active torsions:
REMARK  status: ('A' for Active; 'I' for Inactive)
REMARK    1  A    between atoms: C_1  and  C_2
REMARK    2  A    between atoms: C_2  and  O_3
REMARK    3  A    between atoms: O_3  and  C_4
REMARK    4  A    between atoms: C_8  and  C_9
REMARK    5  A    between atoms: C_9  and  C_10
REMARK    6  A    between atoms: C_13  and  O_14
REMARK    7  A    between atoms: O_14  and  C_15
REMARK    8  A    between atoms: C_15  and  C_16
REMARK    9  A    between atoms: C_16  and  C_17
REMARK   10  A    between atoms: C_19  and  C_20
REMARK   11  A    between atoms: C_27  and  C_28
REMARK   12  A    between atoms: C_31  and  C_32
REMARK   13  A    between atoms: C_32  and  O_34
REMARK                            x       y       z     vdW  Elec       q    Type
REMARK                         _______ _______ _______ _____ _____    ______ ____
ROOT
ATOM      1  C   UNL     1       1.414   9.089  18.954  0.00  0.00    +0.000 A 
ATOM      2  C   UNL     1       1.286   8.587  20.251  0.00  0.00    +0.000 A 
ATOM      3  C   UNL     1       1.836   7.357  20.588  0.00  0.00    +0.000 A 
ATOM      4  C   UNL     1       2.523   6.593  19.639  0.00  0.00    +0.000 A 
ATOM      5  C   UNL     1       2.653   7.086  18.341  0.00  0.00    +0.000 A 
ATOM      6  C   UNL     1       2.099   8.324  17.998  0.00  0.00    +0.000 A 
ENDROOT
BRANCH   1   7
ATOM      7  C   UNL     1       0.809  10.431  18.638  0.00  0.00    +0.000 C 
BRANCH   7  12
ATOM      8  C   UNL     1      -3.849  12.074  19.081  0.00  0.00    +0.000 C 
ATOM      9  O   UNL     1      -4.322  11.879  17.968  0.00  0.00    +0.000 OA
ATOM     10  N   UNL     1      -2.535  11.855  19.402  0.00  0.00    +0.000 N 
ATOM     11  C   UNL     1      -1.563  11.397  18.435  0.00  0.00    +0.000 C 
ATOM     12  C   UNL     1      -0.542  10.668  19.309  0.00  0.00    +0.000 C 
ATOM     13  C   UNL     1      -0.503  11.529  20.590  0.00  0.00    +0.000 C 
ATOM     14  C   UNL     1      -1.928  12.089  20.703  0.00  0.00    +0.000 C 
BRANCH  13  15
ATOM     15  C   UNL     1       0.516  12.651  20.539  0.00  0.00    +0.000 C 
ATOM     16  O   UNL     1       1.632  12.611  21.027  0.00  0.00    +0.000 OA
BRANCH  15  17
ATOM     17  O   UNL     1       0.044  13.765  19.929  0.00  0.00    +0.000 OA
ATOM     18  H   UNL     1      -0.764  14.147  20.320  0.00  0.00    +0.000 HD
ENDBRANCH  15  17
ENDBRANCH  13  15
BRANCH   8  19
ATOM     19  O   UNL     1      -4.563  12.510  20.154  0.00  0.00    +0.000 OA
BRANCH  19  21
ATOM     20  C   UNL     1      -5.256  14.803  20.516  0.00  0.00    +0.000 C 
ATOM     21  C   UNL     1      -5.589  13.471  19.869  0.00  0.00    +0.000 C 
ENDBRANCH  19  21
ENDBRANCH   8  19
ENDBRANCH   7  12
ENDBRANCH   1   7
BRANCH   4  22
ATOM     22  O   UNL     1       3.093   5.366  19.885  0.00  0.00    +0.000 OA
BRANCH  22  23
ATOM     23  C   UNL     1       3.945   4.901  18.832  0.00  0.00    +0.000 C 
BRANCH  23  24
ATOM     24  C   UNL     1       5.408   5.206  19.120  0.00  0.00    +0.000 C 
BRANCH  24  25
ATOM     25  C   UNL     1       6.149   5.405  17.845  0.00  0.00    +0.000 A 
ATOM     26  N   UNL     1       5.827   4.678  16.717  0.00  0.00    +0.000 NA
ATOM     27  C   UNL     1       6.685   5.090  15.802  0.00  0.00    +0.000 A 
ATOM     28  O   UNL     1       7.574   6.030  16.262  0.00  0.00    +0.000 OA
ATOM     29  C   UNL     1       7.217   6.227  17.566  0.00  0.00    +0.000 A 
ATOM     30  C   UNL     1       7.992   7.213  18.338  0.00  0.00    +0.000 C 
BRANCH  27  31
ATOM     31  C   UNL     1       6.792   4.718  14.393  0.00  0.00    +0.000 A 
ATOM     32  C   UNL     1       5.973   3.703  13.874  0.00  0.00    +0.000 A 
ATOM     33  C   UNL     1       6.030   3.356  12.520  0.00  0.00    +0.000 A 
ATOM     34  C   UNL     1       6.910   4.019  11.668  0.00  0.00    +0.000 A 
ATOM     35  C   UNL     1       7.737   5.022  12.168  0.00  0.00    +0.000 A 
ATOM     36  C   UNL     1       7.680   5.367  13.521  0.00  0.00    +0.000 A 
ENDBRANCH  27  31
ENDBRANCH  24  25
ENDBRANCH  23  24
ENDBRANCH  22  23
ENDBRANCH   4  22
TORSDOF 11
ENDMDL
MODEL 3
REMARK VINA RESULT:      -8.1      1.989      3.694
REMARK  Name = 
REMARK  13 active torsions:
REMARK  status: ('A' for Active; 'I' for Inactive)
REMARK    1  A    between atoms: C_1  and  C_2
REMARK    2  A    between atoms: C_2  and  O_3
REMARK    3  A    between atoms: O_3  and  C_4
REMARK    4  A    between atoms: C_8  and  C_9
REMARK    5  A    between atoms: C_9  and  C_10
REMARK    6  A    between atoms: C_13  and  O_14
REMARK    7  A    between atoms: O_14  and  C_15
REMARK    8  A    between atoms: C_15  and  C_16
REMARK    9  A    between atoms: C_16  and  C_17
REMARK   10  A    between atoms: C_19  and  C_20
REMARK   11  A    between atoms: C_27  and  C_28
REMARK   12  A    between atoms: C_31  and  C_32
REMARK   13  A    between atoms: C_32  and  O_34
REMARK                            x       y       z     vdW  Elec       q    Type
REMARK                         _______ _______ _______ _____ _____    ______ ____
ROOT
ATOM      1  C   UNL     1       1.571   9.235  18.688  0.00  0.00    +0.000 A 
ATOM      2  C   UNL     1       2.386   8.738  17.669  0.00  0.00    +0.000 A 
ATOM      3  C   UNL     1       2.977   7.486  17.786  0.00  0.00    +0.000 A 
ATOM      4  C   UNL     1       2.775   6.701  18.925  0.00  0.00    +0.000 A 
ATOM      5  C   UNL     1       1.964   7.191  19.949  0.00  0.00    +0.000 A 
ATOM      6  C   UNL     1       1.368   8.452  19.834  0.00  0.00    +0.000 A 
ENDROOT
BRANCH   1   7
ATOM      7  C   UNL     1       0.945  10.593  18.513  0.00  0.00    +0.000 C 
BRANCH   7  12
ATOM      8  C   UNL     1      -3.845  10.906  17.270  0.00  0.00    +0.000 C 
ATOM      9  O   UNL     1      -3.899  10.302  16.206  0.00  0.00    +0.000 OA
ATOM     10  N   UNL     1      -2.681  11.159  17.947  0.00  0.00    +0.000 N 
ATOM     11  C   UNL     1      -1.386  10.760  17.446  0.00  0.00    +0.000 C 
ATOM     12  C   UNL     1      -0.567  10.605  18.727  0.00  0.00    +0.000 C 
ATOM     13  C   UNL     1      -1.100  11.744  19.622  0.00  0.00    +0.000 C 
ATOM     14  C   UNL     1      -2.570  11.887  19.201  0.00  0.00    +0.000 C 
BRANCH  13  15
ATOM     15  C   UNL     1      -0.359  13.055  19.445  0.00  0.00    +0.000 C 
ATOM     16  O   UNL     1      -0.476  13.808  18.493  0.00  0.00    +0.000 OA
BRANCH  15  17
ATOM     17  O   UNL     1       0.520  13.303  20.446  0.00  0.00    +0.000 OA
ATOM     18  H   UNL     1       0.511  14.214  20.796  0.00  0.00    +0.000 HD
ENDBRANCH  15  17
ENDBRANCH  13  15
BRANCH   8  19
ATOM     19  O   UNL     1      -4.930  11.385  17.937  0.00  0.00    +0.000 OA
BRANCH  19  21
ATOM     20  C   UNL     1      -6.482  13.234  18.139  0.00  0.00    +0.000 C 
ATOM     21  C   UNL     1      -5.768  12.284  17.196  0.00  0.00    +0.000 C 
ENDBRANCH  19  21
ENDBRANCH   8  19
ENDBRANCH   7  12
ENDBRANCH   1   7
BRANCH   4  22
ATOM     22  O   UNL     1       3.324   5.456  19.126  0.00  0.00    +0.000 OA
BRANCH  22  23
ATOM     23  C   UNL     1       4.685   5.488  19.569  0.00  0.00    +0.000 C 
BRANCH  23  24
ATOM     24  C   UNL     1       5.492   4.335  18.987  0.00  0.00    +0.000 C 
BRANCH  24  25
ATOM     25  C   UNL     1       6.167   4.765  17.733  0.00  0.00    +0.000 A 
ATOM     26  N   UNL     1       5.913   4.126  16.536  0.00  0.00    +0.000 NA
ATOM     27  C   UNL     1       6.687   4.742  15.662  0.00  0.00    +0.000 A 
ATOM     28  O   UNL     1       7.458   5.736  16.212  0.00  0.00    +0.000 OA
ATOM     29  C   UNL     1       7.113   5.745  17.534  0.00  0.00    +0.000 A 
ATOM     30  C   UNL     1       7.774   6.735  18.399  0.00  0.00    +0.000 C 
BRANCH  27  31
ATOM     31  C   UNL     1       6.804   4.539  14.220  0.00  0.00    +0.000 A 
ATOM     32  C   UNL     1       5.999   3.583  13.580  0.00  0.00    +0.000 A 
ATOM     33  C   UNL     1       6.067   3.399  12.195  0.00  0.00    +0.000 A 
ATOM     34  C   UNL     1       6.943   4.167  11.432  0.00  0.00    +0.000 A 
ATOM     35  C   UNL     1       7.755   5.114  12.052  0.00  0.00    +0.000 A 
ATOM     36  C   UNL     1       7.688   5.297  13.435  0.00  0.00    +0.000 A 
ENDBRANCH  27  31
ENDBRANCH  24  25
ENDBRANCH  23  24
ENDBRANCH  22  23
ENDBRANCH   4  22
TORSDOF 11
ENDMDL
MODEL 4
REMARK VINA RESULT:      -8.1      1.907      3.801
REMARK  Name = 
REMARK  13 active torsions:
REMARK  status: ('A' for Active; 'I' for Inactive)
REMARK    1  A    between atoms: C_1  and  C_2
REMARK    2  A    between atoms: C_2  and  O_3
REMARK    3  A    between atoms: O_3  and  C_4
REMARK    4  A    between atoms: C_8  and  C_9
REMARK    5  A    between atoms: C_9  and  C_10
REMARK    6  A    between atoms: C_13  and  O_14
REMARK    7  A    between atoms: O_14  and  C_15
REMARK    8  A    between atoms: C_15  and  C_16
REMARK    9  A    between atoms: C_16  and  C_17
REMARK   10  A    between atoms: C_19  and  C_20
REMARK   11  A    between atoms: C_27  and  C_28
REMARK   12  A    between atoms: C_31  and  C_32
REMARK   13  A    between atoms: C_32  and  O_34
REMARK                            x       y       z     vdW  Elec       q    Type
REMARK                         _______ _______ _______ _____ _____    ______ ____
ROOT
ATOM      1  C   UNL     1       1.850   9.262  18.817  0.00  0.00    +0.000 A 
ATOM      2  C   UNL     1       1.780   8.264  19.792  0.00  0.00    +0.000 A 
ATOM      3  C   UNL     1       2.416   7.044  19.597  0.00  0.00    +0.000 A 
ATOM      4  C   UNL     1       3.134   6.788  18.425  0.00  0.00    +0.000 A 
ATOM      5  C   UNL     1       3.206   7.779  17.446  0.00  0.00    +0.000 A 
ATOM      6  C   UNL     1       2.565   9.007  17.638  0.00  0.00    +0.000 A 
ENDROOT
BRANCH   1   7
ATOM      7  C   UNL     1       1.151  10.571  19.075  0.00  0.00    +0.000 C 
BRANCH   7  12
ATOM      8  C   UNL     1      -3.508  10.266  17.406  0.00  0.00    +0.000 C 
ATOM      9  O   UNL     1      -3.405   9.556  16.413  0.00  0.00    +0.000 OA
ATOM     10  N   UNL     1      -2.442  10.704  18.147  0.00  0.00    +0.000 N 
ATOM     11  C   UNL     1      -1.074  10.391  17.803  0.00  0.00    +0.000 C 
ATOM     12  C   UNL     1      -0.369  10.449  19.158  0.00  0.00    +0.000 C 
ATOM     13  C   UNL     1      -1.088  11.612  19.875  0.00  0.00    +0.000 C 
ATOM     14  C   UNL     1      -2.518  11.561  19.319  0.00  0.00    +0.000 C 
BRANCH  13  15
ATOM     15  C   UNL     1      -0.458  12.967  19.620  0.00  0.00    +0.000 C 
ATOM     16  O   UNL     1       0.477  13.438  20.245  0.00  0.00    +0.000 OA
BRANCH  15  17
ATOM     17  O   UNL     1      -1.080  13.663  18.638  0.00  0.00    +0.000 OA
ATOM     18  H   UNL     1      -1.082  14.632  18.745  0.00  0.00    +0.000 HD
ENDBRANCH  15  17
ENDBRANCH  13  15
BRANCH   8  19
ATOM     19  O   UNL     1      -4.691  10.697  17.922  0.00  0.00    +0.000 OA
BRANCH  19  21
ATOM     20  C   UNL     1      -6.747  11.965  17.745  0.00  0.00    +0.000 C 
ATOM     21  C   UNL     1      -5.369  11.708  17.164  0.00  0.00    +0.000 C 
ENDBRANCH  19  21
ENDBRANCH   8  19
ENDBRANCH   7  12
ENDBRANCH   1   7
BRANCH   4  22
ATOM     22  O   UNL     1       3.788   5.609  18.150  0.00  0.00    +0.000 OA
BRANCH  22  23
ATOM     23  C   UNL     1       4.422   5.019  19.290  0.00  0.00    +0.000 C 
BRANCH  23  24
ATOM     24  C   UNL     1       5.938   5.133  19.209  0.00  0.00    +0.000 C 
BRANCH  24  25
ATOM     25  C   UNL     1       6.356   5.418  17.809  0.00  0.00    +0.000 A 
ATOM     26  N   UNL     1       6.127   4.503  16.801  0.00  0.00    +0.000 NA
ATOM     27  C   UNL     1       6.638   5.067  15.722  0.00  0.00    +0.000 A 
ATOM     28  O   UNL     1       7.213   6.291  15.958  0.00  0.00    +0.000 OA
ATOM     29  C   UNL     1       7.021   6.507  17.293  0.00  0.00    +0.000 A 
ATOM     30  C   UNL     1       7.524   7.772  17.854  0.00  0.00    +0.000 C 
BRANCH  27  31
ATOM     31  C   UNL     1       6.642   4.593  14.340  0.00  0.00    +0.000 A 
ATOM     32  C   UNL     1       5.617   3.746  13.888  0.00  0.00    +0.000 A 
ATOM     33  C   UNL     1       5.579   3.312  12.559  0.00  0.00    +0.000 A 
ATOM     34  C   UNL     1       6.567   3.717  11.665  0.00  0.00    +0.000 A 
ATOM     35  C   UNL     1       7.596   4.550  12.098  0.00  0.00    +0.000 A 
ATOM     36  C   UNL     1       7.634   4.983  13.426  0.00  0.00    +0.000 A 
ENDBRANCH  27  31
ENDBRANCH  24  25
ENDBRANCH  23  24
ENDBRANCH  22  23
ENDBRANCH   4  22
TORSDOF 11
ENDMDL
MODEL 5
REMARK VINA RESULT:      -8.1      1.154      1.467
REMARK  Name = 
REMARK  13 active torsions:
REMARK  status: ('A' for Active; 'I' for Inactive)
REMARK    1  A    between atoms: C_1  and  C_2
REMARK    2  A    between atoms: C_2  and  O_3
REMARK    3  A    between atoms: O_3  and  C_4
REMARK    4  A    between atoms: C_8  and  C_9
REMARK    5  A    between atoms: C_9  and  C_10
REMARK    6  A    between atoms: C_13  and  O_14
REMARK    7  A    between atoms: O_14  and  C_15
REMARK    8  A    between atoms: C_15  and  C_16
REMARK    9  A    between atoms: C_16  and  C_17
REMARK   10  A    between atoms: C_19  and  C_20
REMARK   11  A    between atoms: C_27  and  C_28
REMARK   12  A    between atoms: C_31  and  C_32
REMARK   13  A    between atoms: C_32  and  O_34
REMARK                            x       y       z     vdW  Elec       q    Type
REMARK                         _______ _______ _______ _____ _____    ______ ____
ROOT
ATOM      1  C   UNL     1       1.109   9.269  19.622  0.00  0.00    +0.000 A 
ATOM      2  C   UNL     1       1.682   9.274  18.349  0.00  0.00    +0.000 A 
ATOM      3  C   UNL     1       2.451   8.200  17.919  0.00  0.00    +0.000 A 
ATOM      4  C   UNL     1       2.672   7.097  18.749  0.00  0.00    +0.000 A 
ATOM      5  C   UNL     1       2.105   7.085  20.023  0.00  0.00    +0.000 A 
ATOM      6  C   UNL     1       1.331   8.166  20.459  0.00  0.00    +0.000 A 
ENDROOT
BRANCH   1   7
ATOM      7  C   UNL     1       0.277  10.452  20.042  0.00  0.00    +0.000 C 
BRANCH   7  12
ATOM      8  C   UNL     1       1.739  15.136  19.330  0.00  0.00    +0.000 C 
ATOM      9  O   UNL     1       2.695  15.250  20.087  0.00  0.00    +0.000 OA
ATOM     10  N   UNL     1       0.948  14.019  19.260  0.00  0.00    +0.000 N 
ATOM     11  C   UNL     1       1.152  12.866  20.106  0.00  0.00    +0.000 C 
ATOM     12  C   UNL     1       0.583  11.727  19.261  0.00  0.00    +0.000 C 
ATOM     13  C   UNL     1      -0.628  12.383  18.562  0.00  0.00    +0.000 C 
ATOM     14  C   UNL     1      -0.205  13.849  18.390  0.00  0.00    +0.000 C 
BRANCH  13  15
ATOM     15  C   UNL     1      -1.916  12.282  19.354  0.00  0.00    +0.000 C 
ATOM     16  O   UNL     1      -1.991  12.179  20.567  0.00  0.00    +0.000 OA
BRANCH  15  17
ATOM     17  O   UNL     1      -3.019  12.259  18.569  0.00  0.00    +0.000 OA
ATOM     18  H   UNL     1      -2.922  11.786  17.721  0.00  0.00    +0.000 HD
ENDBRANCH  15  17
ENDBRANCH  13  15
BRANCH   8  19
ATOM     19  O   UNL     1       1.345  16.088  18.441  0.00  0.00    +0.000 OA
BRANCH  19  21
ATOM     20  C   UNL     1      -0.273  17.851  18.065  0.00  0.00    +0.000 C 
ATOM     21  C   UNL     1       0.759  17.267  19.012  0.00  0.00    +0.000 C 
ENDBRANCH  19  21
ENDBRANCH   8  19
ENDBRANCH   7  12
ENDBRANCH   1   7
BRANCH   4  22
ATOM     22  O   UNL     1       3.423   5.997  18.405  0.00  0.00    +0.000 OA
BRANCH  22  23
ATOM     23  C   UNL     1       4.073   5.370  19.516  0.00  0.00    +0.000 C 
BRANCH  23  24
ATOM     24  C   UNL     1       4.849   4.133  19.085  0.00  0.00    +0.000 C 
BRANCH  24  25
ATOM     25  C   UNL     1       5.773   4.471  17.969  0.00  0.00    +0.000 A 
ATOM     26  N   UNL     1       5.495   4.080  16.675  0.00  0.00    +0.000 NA
ATOM     27  C   UNL     1       6.519   4.522  15.969  0.00  0.00    +0.000 A 
ATOM     28  O   UNL     1       7.472   5.162  16.721  0.00  0.00    +0.000 OA
ATOM     29  C   UNL     1       6.982   5.128  17.995  0.00  0.00    +0.000 A 
ATOM     30  C   UNL     1       7.790   5.764  19.049  0.00  0.00    +0.000 C 
BRANCH  27  31
ATOM     31  C   UNL     1       6.752   4.456  14.528  0.00  0.00    +0.000 A 
ATOM     32  C   UNL     1       6.026   3.545  13.743  0.00  0.00    +0.000 A 
ATOM     33  C   UNL     1       6.204   3.491  12.357  0.00  0.00    +0.000 A 
ATOM     34  C   UNL     1       7.113   4.345  11.737  0.00  0.00    +0.000 A 
ATOM     35  C   UNL     1       7.848   5.249  12.502  0.00  0.00    +0.000 A 
ATOM     36  C   UNL     1       7.670   5.302  13.886  0.00  0.00    +0.000 A 
ENDBRANCH  27  31
ENDBRANCH  24  25
ENDBRANCH  23  24
ENDBRANCH  22  23
ENDBRANCH   4  22
TORSDOF 11
ENDMDL
MODEL 6
REMARK VINA RESULT:      -8.0      1.939      3.770
REMARK  Name = 
REMARK  13 active torsions:
REMARK  status: ('A' for Active; 'I' for Inactive)
REMARK    1  A    between atoms: C_1  and  C_2
REMARK    2  A    between atoms: C_2  and  O_3
REMARK    3  A    between atoms: O_3  and  C_4
REMARK    4  A    between atoms: C_8  and  C_9
REMARK    5  A    between atoms: C_9  and  C_10
REMARK    6  A    between atoms: C_13  and  O_14
REMARK    7  A    between atoms: O_14  and  C_15
REMARK    8  A    between atoms: C_15  and  C_16
REMARK    9  A    between atoms: C_16  and  C_17
REMARK   10  A    between atoms: C_19  and  C_20
REMARK   11  A    between atoms: C_27  and  C_28
REMARK   12  A    between atoms: C_31  and  C_32
REMARK   13  A    between atoms: C_32  and  O_34
REMARK                            x       y       z     vdW  Elec       q    Type
REMARK                         _______ _______ _______ _____ _____    ______ ____
ROOT
ATOM      1  C   UNL     1       1.661   9.184  19.023  0.00  0.00    +0.000 A 
ATOM      2  C   UNL     1       1.623   8.286  20.092  0.00  0.00    +0.000 A 
ATOM      3  C   UNL     1       2.122   6.998  19.947  0.00  0.00    +0.000 A 
ATOM      4  C   UNL     1       2.667   6.570  18.733  0.00  0.00    +0.000 A 
ATOM      5  C   UNL     1       2.705   7.460  17.659  0.00  0.00    +0.000 A 
ATOM      6  C   UNL     1       2.202   8.758  17.801  0.00  0.00    +0.000 A 
ENDROOT
BRANCH   1   7
ATOM      7  C   UNL     1       1.115  10.572  19.228  0.00  0.00    +0.000 C 
BRANCH   7  12
ATOM      8  C   UNL     1      -3.615  11.478  18.049  0.00  0.00    +0.000 C 
ATOM      9  O   UNL     1      -3.671  11.178  16.862  0.00  0.00    +0.000 OA
ATOM     10  N   UNL     1      -2.459  11.477  18.784  0.00  0.00    +0.000 N 
ATOM     11  C   UNL     1      -1.173  11.149  18.212  0.00  0.00    +0.000 C 
ATOM     12  C   UNL     1      -0.399  10.615  19.418  0.00  0.00    +0.000 C 
ATOM     13  C   UNL     1      -0.897  11.509  20.574  0.00  0.00    +0.000 C 
ATOM     14  C   UNL     1      -2.344  11.842  20.187  0.00  0.00    +0.000 C 
BRANCH  13  15
ATOM     15  C   UNL     1      -0.083  12.774  20.759  0.00  0.00    +0.000 C 
ATOM     16  O   UNL     1       0.853  12.904  21.531  0.00  0.00    +0.000 OA
BRANCH  15  17
ATOM     17  O   UNL     1      -0.532  13.807  20.006  0.00  0.00    +0.000 OA
ATOM     18  H   UNL     1      -1.079  14.464  20.476  0.00  0.00    +0.000 HD
ENDBRANCH  15  17
ENDBRANCH  13  15
BRANCH   8  19
ATOM     19  O   UNL     1      -4.692  11.828  18.804  0.00  0.00    +0.000 OA
BRANCH  19  21
ATOM     20  C   UNL     1      -7.022  11.772  18.145  0.00  0.00    +0.000 C 
ATOM     21  C   UNL     1      -5.842  10.980  18.678  0.00  0.00    +0.000 C 
ENDBRANCH  19  21
ENDBRANCH   8  19
ENDBRANCH   7  12
ENDBRANCH   1   7
BRANCH   4  22
ATOM     22  O   UNL     1       3.177   5.314  18.502  0.00  0.00    +0.000 OA
BRANCH  22  23
ATOM     23  C   UNL     1       3.830   4.737  19.638  0.00  0.00    +0.000 C 
BRANCH  23  24
ATOM     24  C   UNL     1       4.818   3.654  19.227  0.00  0.00    +0.000 C 
BRANCH  24  25
ATOM     25  C   UNL     1       5.677   4.142  18.114  0.00  0.00    +0.000 A 
ATOM     26  N   UNL     1       5.444   3.746  16.813  0.00  0.00    +0.000 NA
ATOM     27  C   UNL     1       6.392   4.340  16.112  0.00  0.00    +0.000 A 
ATOM     28  O   UNL     1       7.254   5.088  16.873  0.00  0.00    +0.000 OA
ATOM     29  C   UNL     1       6.784   4.959  18.150  0.00  0.00    +0.000 A 
ATOM     30  C   UNL     1       7.506   5.675  19.214  0.00  0.00    +0.000 C 
BRANCH  27  31
ATOM     31  C   UNL     1       6.620   4.339  14.669  0.00  0.00    +0.000 A 
ATOM     32  C   UNL     1       5.850   3.507  13.840  0.00  0.00    +0.000 A 
ATOM     33  C   UNL     1       6.023   3.519  12.452  0.00  0.00    +0.000 A 
ATOM     34  C   UNL     1       6.971   4.360  11.875  0.00  0.00    +0.000 A 
ATOM     35  C   UNL     1       7.750   5.186  12.683  0.00  0.00    +0.000 A 
ATOM     36  C   UNL     1       7.577   5.173  14.069  0.00  0.00    +0.000 A 
ENDBRANCH  27  31
ENDBRANCH  24  25
ENDBRANCH  23  24
ENDBRANCH  22  23
ENDBRANCH   4  22
TORSDOF 11
ENDMDL
MODEL 7
REMARK VINA RESULT:      -8.0      0.987      1.052
REMARK  Name = 
REMARK  13 active torsions:
REMARK  status: ('A' for Active; 'I' for Inactive)
REMARK    1  A    between atoms: C_1  and  C_2
REMARK    2  A    between atoms: C_2  and  O_3
REMARK    3  A    between atoms: O_3  and  C_4
REMARK    4  A    between atoms: C_8  and  C_9
REMARK    5  A    between atoms: C_9  and  C_10
REMARK    6  A    between atoms: C_13  and  O_14
REMARK    7  A    between atoms: O_14  and  C_15
REMARK    8  A    between atoms: C_15  and  C_16
REMARK    9  A    between atoms: C_16  and  C_17
REMARK   10  A    between atoms: C_19  and  C_20
REMARK   11  A    between atoms: C_27  and  C_28
REMARK   12  A    between atoms: C_31  and  C_32
REMARK   13  A    between atoms: C_32  and  O_34
REMARK                            x       y       z     vdW  Elec       q    Type
REMARK                         _______ _______ _______ _____ _____    ______ ____
ROOT
ATOM      1  C   UNL     1       1.477   8.347  19.671  0.00  0.00    +0.000 A 
ATOM      2  C   UNL     1       2.093   8.478  18.425  0.00  0.00    +0.000 A 
ATOM      3  C   UNL     1       2.952   7.491  17.956  0.00  0.00    +0.000 A 
ATOM      4  C   UNL     1       3.222   6.352  18.720  0.00  0.00    +0.000 A 
ATOM      5  C   UNL     1       2.612   6.215  19.967  0.00  0.00    +0.000 A 
ATOM      6  C   UNL     1       1.748   7.207  20.442  0.00  0.00    +0.000 A 
ENDROOT
BRANCH   1   7
ATOM      7  C   UNL     1       0.548   9.437  20.133  0.00  0.00    +0.000 C 
BRANCH   7  12
ATOM      8  C   UNL     1       1.561  14.231  20.892  0.00  0.00    +0.000 C 
ATOM      9  O   UNL     1       1.996  14.249  22.037  0.00  0.00    +0.000 OA
ATOM     10  N   UNL     1       1.058  13.113  20.282  0.00  0.00    +0.000 N 
ATOM     11  C   UNL     1       0.962  11.837  20.953  0.00  0.00    +0.000 C 
ATOM     12  C   UNL     1       1.035  10.844  19.793  0.00  0.00    +0.000 C 
ATOM     13  C   UNL     1       0.254  11.562  18.671  0.00  0.00    +0.000 C 
ATOM     14  C   UNL     1       0.515  13.052  18.934  0.00  0.00    +0.000 C 
BRANCH  13  15
ATOM     15  C   UNL     1      -1.233  11.265  18.678  0.00  0.00    +0.000 C 
ATOM     16  O   UNL     1      -2.032  11.690  19.496  0.00  0.00    +0.000 OA
BRANCH  15  17
ATOM     17  O   UNL     1      -1.606  10.411  17.695  0.00  0.00    +0.000 OA
ATOM     18  H   UNL     1      -2.356  10.705  17.145  0.00  0.00    +0.000 HD
ENDBRANCH  15  17
ENDBRANCH  13  15
BRANCH   8  19
ATOM     19  O   UNL     1       1.539  15.310  20.062  0.00  0.00    +0.000 OA
BRANCH  19  21
ATOM     20  C   UNL     1       3.668  16.463  19.988  0.00  0.00    +0.000 C 
ATOM     21  C   UNL     1       2.722  15.514  19.276  0.00  0.00    +0.000 C 
ENDBRANCH  19  21
ENDBRANCH   8  19
ENDBRANCH   7  12
ENDBRANCH   1   7
BRANCH   4  22
ATOM     22  O   UNL     1       4.061   5.332  18.336  0.00  0.00    +0.000 OA
BRANCH  22  23
ATOM     23  C   UNL     1       4.832   4.780  19.409  0.00  0.00    +0.000 C 
BRANCH  23  24
ATOM     24  C   UNL     1       6.289   5.213  19.333  0.00  0.00    +0.000 C 
BRANCH  24  25
ATOM     25  C   UNL     1       6.662   5.507  17.923  0.00  0.00    +0.000 A 
ATOM     26  N   UNL     1       6.369   4.616  16.911  0.00  0.00    +0.000 NA
ATOM     27  C   UNL     1       6.855   5.180  15.821  0.00  0.00    +0.000 A 
ATOM     28  O   UNL     1       7.475   6.383  16.053  0.00  0.00    +0.000 OA
ATOM     29  C   UNL     1       7.340   6.584  17.397  0.00  0.00    +0.000 A 
ATOM     30  C   UNL     1       7.902   7.824  17.956  0.00  0.00    +0.000 C 
BRANCH  27  31
ATOM     31  C   UNL     1       6.793   4.728  14.433  0.00  0.00    +0.000 A 
ATOM     32  C   UNL     1       7.688   5.251  13.486  0.00  0.00    +0.000 A 
ATOM     33  C   UNL     1       7.673   4.804  12.161  0.00  0.00    +0.000 A 
ATOM     34  C   UNL     1       6.760   3.830  11.765  0.00  0.00    +0.000 A 
ATOM     35  C   UNL     1       5.858   3.307  12.689  0.00  0.00    +0.000 A 
ATOM     36  C   UNL     1       5.873   3.754  14.012  0.00  0.00    +0.000 A 
ENDBRANCH  27  31
ENDBRANCH  24  25
ENDBRANCH  23  24
ENDBRANCH  22  23
ENDBRANCH   4  22
TORSDOF 11
ENDMDL
MODEL 8
REMARK VINA RESULT:      -7.9      1.849      2.128
REMARK  Name = 
REMARK  13 active torsions:
REMARK  status: ('A' for Active; 'I' for Inactive)
REMARK    1  A    between atoms: C_1  and  C_2
REMARK    2  A    between atoms: C_2  and  O_3
REMARK    3  A    between atoms: O_3  and  C_4
REMARK    4  A    between atoms: C_8  and  C_9
REMARK    5  A    between atoms: C_9  and  C_10
REMARK    6  A    between atoms: C_13  and  O_14
REMARK    7  A    between atoms: O_14  and  C_15
REMARK    8  A    between atoms: C_15  and  C_16
REMARK    9  A    between atoms: C_16  and  C_17
REMARK   10  A    between atoms: C_19  and  C_20
REMARK   11  A    between atoms: C_27  and  C_28
REMARK   12  A    between atoms: C_31  and  C_32
REMARK   13  A    between atoms: C_32  and  O_34
REMARK                            x       y       z     vdW  Elec       q    Type
REMARK                         _______ _______ _______ _____ _____    ______ ____
ROOT
ATOM      1  C   UNL     1       1.178   8.893  19.394  0.00  0.00    +0.000 A 
ATOM      2  C   UNL     1       2.040   8.432  18.396  0.00  0.00    +0.000 A 
ATOM      3  C   UNL     1       2.697   7.216  18.539  0.00  0.00    +0.000 A 
ATOM      4  C   UNL     1       2.515   6.431  19.682  0.00  0.00    +0.000 A 
ATOM      5  C   UNL     1       1.657   6.885  20.684  0.00  0.00    +0.000 A 
ATOM      6  C   UNL     1       0.996   8.110  20.544  0.00  0.00    +0.000 A 
ENDROOT
BRANCH   1   7
ATOM      7  C   UNL     1       0.481  10.212  19.192  0.00  0.00    +0.000 C 
BRANCH   7  12
ATOM      8  C   UNL     1      -1.088  12.995  22.984  0.00  0.00    +0.000 C 
ATOM      9  O   UNL     1      -1.988  12.322  23.473  0.00  0.00    +0.000 OA
ATOM     10  N   UNL     1      -0.417  12.658  21.838  0.00  0.00    +0.000 N 
ATOM     11  C   UNL     1      -0.735  11.477  21.069  0.00  0.00    +0.000 C 
ATOM     12  C   UNL     1       0.595  11.155  20.387  0.00  0.00    +0.000 C 
ATOM     13  C   UNL     1       1.173  12.553  20.075  0.00  0.00    +0.000 C 
ATOM     14  C   UNL     1       0.643  13.434  21.215  0.00  0.00    +0.000 C 
BRANCH  13  15
ATOM     15  C   UNL     1       0.748  13.100  18.727  0.00  0.00    +0.000 C 
ATOM     16  O   UNL     1      -0.352  13.558  18.468  0.00  0.00    +0.000 OA
BRANCH  15  17
ATOM     17  O   UNL     1       1.712  12.985  17.782  0.00  0.00    +0.000 OA
ATOM     18  H   UNL     1       2.434  12.363  17.992  0.00  0.00    +0.000 HD
ENDBRANCH  15  17
ENDBRANCH  13  15
BRANCH   8  19
ATOM     19  O   UNL     1      -0.615  14.152  23.523  0.00  0.00    +0.000 OA
BRANCH  19  21
ATOM     20  C   UNL     1      -1.248  15.794  25.187  0.00  0.00    +0.000 C 
ATOM     21  C   UNL     1      -1.608  15.126  23.873  0.00  0.00    +0.000 C 
ENDBRANCH  19  21
ENDBRANCH   8  19
ENDBRANCH   7  12
ENDBRANCH   1   7
BRANCH   4  22
ATOM     22  O   UNL     1       3.128   5.221  19.906  0.00  0.00    +0.000 OA
BRANCH  22  23
ATOM     23  C   UNL     1       4.550   5.252  19.736  0.00  0.00    +0.000 C 
BRANCH  23  24
ATOM     24  C   UNL     1       5.051   4.027  18.984  0.00  0.00    +0.000 C 
BRANCH  24  25
ATOM     25  C   UNL     1       5.876   4.444  17.818  0.00  0.00    +0.000 A 
ATOM     26  N   UNL     1       5.585   3.994  16.546  0.00  0.00    +0.000 NA
ATOM     27  C   UNL     1       6.517   4.535  15.783  0.00  0.00    +0.000 A 
ATOM     28  O   UNL     1       7.422   5.299  16.476  0.00  0.00    +0.000 OA
ATOM     29  C   UNL     1       6.999   5.238  17.773  0.00  0.00    +0.000 A 
ATOM     30  C   UNL     1       7.776   5.987  18.775  0.00  0.00    +0.000 C 
BRANCH  27  31
ATOM     31  C   UNL     1       6.689   4.463  14.334  0.00  0.00    +0.000 A 
ATOM     32  C   UNL     1       7.655   5.264  13.703  0.00  0.00    +0.000 A 
ATOM     33  C   UNL     1       7.864   5.183  12.323  0.00  0.00    +0.000 A 
ATOM     34  C   UNL     1       7.108   4.301  11.554  0.00  0.00    +0.000 A 
ATOM     35  C   UNL     1       6.139   3.506  12.162  0.00  0.00    +0.000 A 
ATOM     36  C   UNL     1       5.930   3.588  13.541  0.00  0.00    +0.000 A 
ENDBRANCH  27  31
ENDBRANCH  24  25
ENDBRANCH  23  24
ENDBRANCH  22  23
ENDBRANCH   4  22
TORSDOF 11
ENDMDL
MODEL 9
REMARK VINA RESULT:      -7.9      2.150      3.901
REMARK  Name = 
REMARK  13 active torsions:
REMARK  status: ('A' for Active; 'I' for Inactive)
REMARK    1  A    between atoms: C_1  and  C_2
REMARK    2  A    between atoms: C_2  and  O_3
REMARK    3  A    between atoms: O_3  and  C_4
REMARK    4  A    between atoms: C_8  and  C_9
REMARK    5  A    between atoms: C_9  and  C_10
REMARK    6  A    between atoms: C_13  and  O_14
REMARK    7  A    between atoms: O_14  and  C_15
REMARK    8  A    between atoms: C_15  and  C_16
REMARK    9  A    between atoms: C_16  and  C_17
REMARK   10  A    between atoms: C_19  and  C_20
REMARK   11  A    between atoms: C_27  and  C_28
REMARK   12  A    between atoms: C_31  and  C_32
REMARK   13  A    between atoms: C_32  and  O_34
REMARK                            x       y       z     vdW  Elec       q    Type
REMARK                         _______ _______ _______ _____ _____    ______ ____
ROOT
ATOM      1  C   UNL     1       1.072   9.981  19.647  0.00  0.00    +0.000 A 
ATOM      2  C   UNL     1       1.525  10.003  18.326  0.00  0.00    +0.000 A 
ATOM      3  C   UNL     1       2.180   8.902  17.787  0.00  0.00    +0.000 A 
ATOM      4  C   UNL     1       2.404   7.754  18.554  0.00  0.00    +0.000 A 
ATOM      5  C   UNL     1       1.957   7.725  19.874  0.00  0.00    +0.000 A 
ATOM      6  C   UNL     1       1.298   8.833  20.420  0.00  0.00    +0.000 A 
ENDROOT
BRANCH   1   7
ATOM      7  C   UNL     1       0.360  11.194  20.184  0.00  0.00    +0.000 C 
BRANCH   7  12
ATOM      8  C   UNL     1      -3.847  11.384  17.568  0.00  0.00    +0.000 C 
ATOM      9  O   UNL     1      -3.575  10.756  16.552  0.00  0.00    +0.000 OA
ATOM     10  N   UNL     1      -2.940  11.676  18.552  0.00  0.00    +0.000 N 
ATOM     11  C   UNL     1      -1.550  11.291  18.469  0.00  0.00    +0.000 C 
ATOM     12  C   UNL     1      -1.147  11.180  19.940  0.00  0.00    +0.000 C 
ATOM     13  C   UNL     1      -1.936  12.329  20.605  0.00  0.00    +0.000 C 
ATOM     14  C   UNL     1      -3.216  12.433  19.763  0.00  0.00    +0.000 C 
BRANCH  13  15
ATOM     15  C   UNL     1      -1.192  13.649  20.621  0.00  0.00    +0.000 C 
ATOM     16  O   UNL     1      -0.665  14.149  21.600  0.00  0.00    +0.000 OA
BRANCH  15  17
ATOM     17  O   UNL     1      -1.208  14.279  19.422  0.00  0.00    +0.000 OA
ATOM     18  H   UNL     1      -1.112  15.250  19.455  0.00  0.00    +0.000 HD
ENDBRANCH  15  17
ENDBRANCH  13  15
BRANCH   8  19
ATOM     19  O   UNL     1      -5.087  11.857  17.869  0.00  0.00    +0.000 OA
BRANCH  19  21
ATOM     20  C   UNL     1      -7.068  11.512  19.221  0.00  0.00    +0.000 C 
ATOM     21  C   UNL     1      -6.038  10.875  18.306  0.00  0.00    +0.000 C 
ENDBRANCH  19  21
ENDBRANCH   8  19
ENDBRANCH   7  12
ENDBRANCH   1   7
BRANCH   4  22
ATOM     22  O   UNL     1       3.046   6.625  18.102  0.00  0.00    +0.000 OA
BRANCH  22  23
ATOM     23  C   UNL     1       2.328   5.411  18.352  0.00  0.00    +0.000 C 
BRANCH  23  24
ATOM     24  C   UNL     1       3.267   4.219  18.475  0.00  0.00    +0.000 C 
BRANCH  24  25
ATOM     25  C   UNL     1       4.474   4.429  17.629  0.00  0.00    +0.000 A 
ATOM     26  N   UNL     1       4.451   4.145  16.279  0.00  0.00    +0.000 NA
ATOM     27  C   UNL     1       5.673   4.423  15.862  0.00  0.00    +0.000 A 
ATOM     28  O   UNL     1       6.511   4.852  16.860  0.00  0.00    +0.000 OA
ATOM     29  C   UNL     1       5.733   4.858  17.983  0.00  0.00    +0.000 A 
ATOM     30  C   UNL     1       6.360   5.298  19.240  0.00  0.00    +0.000 C 
BRANCH  27  31
ATOM     31  C   UNL     1       6.228   4.371  14.512  0.00  0.00    +0.000 A 
ATOM     32  C   UNL     1       5.639   3.541  13.545  0.00  0.00    +0.000 A 
ATOM     33  C   UNL     1       6.130   3.505  12.235  0.00  0.00    +0.000 A 
ATOM     34  C   UNL     1       7.218   4.297  11.877  0.00  0.00    +0.000 A 
ATOM     35  C   UNL     1       7.820   5.120  12.826  0.00  0.00    +0.000 A 
ATOM     36  C   UNL     1       7.330   5.155  14.134  0.00  0.00    +0.000 A 
ENDBRANCH  27  31
ENDBRANCH  24  25
ENDBRANCH  23  24
ENDBRANCH  22  23
ENDBRANCH   4  22
TORSDOF 11
ENDMDL
