MODEL 1
REMARK VINA RESULT:      -6.8      0.000      0.000
REMARK  Name = 
REMARK  13 active torsions:
REMARK  status: ('A' for Active; 'I' for Inactive)
REMARK    1  A    between atoms: C_1  and  O_2
REMARK    2  A    between atoms: O_2  and  C_3
REMARK    3  A    between atoms: C_6  and  S_7
REMARK    4  A    between atoms: S_7  and  N_8
REMARK    5  A    between atoms: C_12  and  C_13
REMARK    6  A    between atoms: N_18  and  C_19
REMARK    7  A    between atoms: C_19  and  C_20
REMARK    8  A    between atoms: C_22  and  O_23
REMARK    9  A    between atoms: O_23  and  C_24
REMARK   10  A    between atoms: C_25  and  O_26
REMARK   11  A    between atoms: O_26  and  C_27
REMARK   12  A    between atoms: C_28  and  O_29
REMARK   13  A    between atoms: O_29  and  C_30
REMARK                            x       y       z     vdW  Elec       q    Type
REMARK                         _______ _______ _______ _____ _____    ______ ____
ROOT
ATOM      1  C   UNL     1       2.533   5.958  19.696  0.00  0.00    +0.000 C 
ATOM      2  O   UNL     1       2.425   5.495  20.834  0.00  0.00    +0.000 OA
ATOM      3  N   UNL     1       1.873   7.131  19.329  0.00  0.00    +0.000 N 
ATOM      4  C   UNL     1       1.223   7.940  20.366  0.00  0.00    +0.000 C 
ATOM      5  C   UNL     1       1.666   9.417  20.275  0.00  0.00    +0.000 C 
ATOM      6  N   UNL     1       1.554  10.041  18.933  0.00  0.00    +0.000 NA
ATOM      7  C   UNL     1       2.169   9.145  17.922  0.00  0.00    +0.000 C 
ATOM      8  C   UNL     1       1.691   7.674  17.983  0.00  0.00    +0.000 C 
ENDROOT
BRANCH   1  14
ATOM      9  C   UNL     1       2.908   4.250  17.807  0.00  0.00    +0.000 A 
ATOM     10  C   UNL     1       3.801   3.549  16.982  0.00  0.00    +0.000 A 
ATOM     11  C   UNL     1       5.140   3.908  16.925  0.00  0.00    +0.000 A 
ATOM     12  C   UNL     1       5.593   4.952  17.722  0.00  0.00    +0.000 A 
ATOM     13  C   UNL     1       4.754   5.547  18.674  0.00  0.00    +0.000 A 
ATOM     14  C   UNL     1       3.393   5.178  18.747  0.00  0.00    +0.000 A 
BRANCH  12  15
ATOM     15  S   UNL     1       7.210   5.587  17.415  0.00  0.00    +0.000 S 
ATOM     16  O   UNL     1       7.335   5.957  16.028  0.00  0.00    +0.000 OA
ATOM     17  O   UNL     1       7.588   6.471  18.488  0.00  0.00    +0.000 OA
BRANCH  15  18
ATOM     18  N   UNL     1       8.126   4.190  17.623  0.00  0.00    +0.000 NA
ATOM     19  H   UNL     1       7.762   3.429  17.050  0.00  0.00    +0.000 HD
ATOM     20  H   UNL     1       9.122   4.376  17.504  0.00  0.00    +0.000 HD
ENDBRANCH  15  18
ENDBRANCH  12  15
BRANCH   9  22
ATOM     21  C   UNL     1       1.065   2.926  18.414  0.00  0.00    +0.000 C 
ATOM     22  O   UNL     1       1.560   4.049  17.682  0.00  0.00    +0.000 OA
ENDBRANCH   9  22
ENDBRANCH   1  14
BRANCH   6  23
ATOM     23  C   UNL     1       0.175  10.367  18.556  0.00  0.00    +0.000 C 
BRANCH  23  24
ATOM     24  C   UNL     1      -0.298  11.713  19.057  0.00  0.00    +0.000 A 
ATOM     25  C   UNL     1       0.336  12.895  18.664  0.00  0.00    +0.000 A 
ATOM     26  C   UNL     1      -0.148  14.140  19.086  0.00  0.00    +0.000 A 
ATOM     27  C   UNL     1      -1.288  14.207  19.920  0.00  0.00    +0.000 A 
ATOM     28  C   UNL     1      -1.923  13.017  20.333  0.00  0.00    +0.000 A 
ATOM     29  C   UNL     1      -1.411  11.787  19.901  0.00  0.00    +0.000 A 
BRANCH  26  30
ATOM     30  O   UNL     1       0.436  15.334  18.729  0.00  0.00    +0.000 OA
ATOM     31  C   UNL     1       1.816  15.486  19.040  0.00  0.00    +0.000 C 
ENDBRANCH  26  30
BRANCH  27  32
ATOM     32  O   UNL     1      -1.644  15.471  20.338  0.00  0.00    +0.000 OA
ATOM     33  C   UNL     1      -1.169  15.878  21.616  0.00  0.00    +0.000 C 
ENDBRANCH  27  32
BRANCH  28  34
ATOM     34  O   UNL     1      -3.008  13.107  21.165  0.00  0.00    +0.000 OA
ATOM     35  C   UNL     1      -4.284  12.760  20.637  0.00  0.00    +0.000 C 
ENDBRANCH  28  34
ENDBRANCH  23  24
ENDBRANCH   6  23
TORSDOF 9
ENDMDL
MODEL 2
REMARK VINA RESULT:      -6.8      0.678      2.269
REMARK  Name = 
REMARK  13 active torsions:
REMARK  status: ('A' for Active; 'I' for Inactive)
REMARK    1  A    between atoms: C_1  and  O_2
REMARK    2  A    between atoms: O_2  and  C_3
REMARK    3  A    between atoms: C_6  and  S_7
REMARK    4  A    between atoms: S_7  and  N_8
REMARK    5  A    between atoms: C_12  and  C_13
REMARK    6  A    between atoms: N_18  and  C_19
REMARK    7  A    between atoms: C_19  and  C_20
REMARK    8  A    between atoms: C_22  and  O_23
REMARK    9  A    between atoms: O_23  and  C_24
REMARK   10  A    between atoms: C_25  and  O_26
REMARK   11  A    between atoms: O_26  and  C_27
REMARK   12  A    between atoms: C_28  and  O_29
REMARK   13  A    between atoms: O_29  and  C_30
REMARK                            x       y       z     vdW  Elec       q    Type
REMARK                         _______ _______ _______ _____ _____    ______ ____
ROOT
ATOM      1  C   UNL     1       2.562   5.525  19.917  0.00  0.00    +0.000 C 
ATOM      2  O   UNL     1       2.456   4.927  20.991  0.00  0.00    +0.000 OA
ATOM      3  N   UNL     1       1.872   6.715  19.683  0.00  0.00    +0.000 N 
ATOM      4  C   UNL     1       1.189   7.377  20.800  0.00  0.00    +0.000 C 
ATOM      5  C   UNL     1       1.591   8.866  20.890  0.00  0.00    +0.000 C 
ATOM      6  N   UNL     1       1.474   9.642  19.629  0.00  0.00    +0.000 NA
ATOM      7  C   UNL     1       2.124   8.888  18.528  0.00  0.00    +0.000 C 
ATOM      8  C   UNL     1       1.688   7.408  18.408  0.00  0.00    +0.000 C 
ENDROOT
BRANCH   1  14
ATOM      9  C   UNL     1       3.002   4.068  17.842  0.00  0.00    +0.000 A 
ATOM     10  C   UNL     1       3.923   3.493  16.952  0.00  0.00    +0.000 A 
ATOM     11  C   UNL     1       5.252   3.888  16.958  0.00  0.00    +0.000 A 
ATOM     12  C   UNL     1       5.669   4.838  17.882  0.00  0.00    +0.000 A 
ATOM     13  C   UNL     1       4.804   5.294  18.886  0.00  0.00    +0.000 A 
ATOM     14  C   UNL     1       3.452   4.886  18.894  0.00  0.00    +0.000 A 
BRANCH  12  15
ATOM     15  S   UNL     1       7.273   5.545  17.677  0.00  0.00    +0.000 S 
ATOM     16  O   UNL     1       7.391   6.118  16.360  0.00  0.00    +0.000 OA
ATOM     17  O   UNL     1       7.632   6.269  18.870  0.00  0.00    +0.000 OA
BRANCH  15  18
ATOM     18  N   UNL     1       8.217   4.152  17.681  0.00  0.00    +0.000 NA
ATOM     19  H   UNL     1       8.088   3.628  18.547  0.00  0.00    +0.000 HD
ATOM     20  H   UNL     1       8.082   3.607  16.829  0.00  0.00    +0.000 HD
ENDBRANCH  15  18
ENDBRANCH  12  15
BRANCH   9  22
ATOM     21  C   UNL     1       1.152   2.735  18.407  0.00  0.00    +0.000 C 
ATOM     22  O   UNL     1       1.661   3.851  17.674  0.00  0.00    +0.000 OA
ENDBRANCH   9  22
ENDBRANCH   1  14
BRANCH   6  23
ATOM     23  C   UNL     1       0.090   9.972  19.276  0.00  0.00    +0.000 C 
BRANCH  23  24
ATOM     24  C   UNL     1      -0.243  11.442  19.400  0.00  0.00    +0.000 A 
ATOM     25  C   UNL     1      -1.464  11.866  19.931  0.00  0.00    +0.000 A 
ATOM     26  C   UNL     1      -1.737  13.229  20.097  0.00  0.00    +0.000 A 
ATOM     27  C   UNL     1      -0.770  14.192  19.723  0.00  0.00    +0.000 A 
ATOM     28  C   UNL     1       0.458  13.771  19.173  0.00  0.00    +0.000 A 
ATOM     29  C   UNL     1       0.698  12.401  19.011  0.00  0.00    +0.000 A 
BRANCH  26  30
ATOM     30  O   UNL     1      -2.920  13.702  20.616  0.00  0.00    +0.000 OA
ATOM     31  C   UNL     1      -3.281  13.233  21.910  0.00  0.00    +0.000 C 
ENDBRANCH  26  30
BRANCH  27  32
ATOM     32  O   UNL     1      -1.159  15.507  19.860  0.00  0.00    +0.000 OA
ATOM     33  C   UNL     1      -0.678  16.198  21.007  0.00  0.00    +0.000 C 
ENDBRANCH  27  32
BRANCH  28  34
ATOM     34  O   UNL     1       1.366  14.724  18.791  0.00  0.00    +0.000 OA
ATOM     35  C   UNL     1       2.635  14.285  18.319  0.00  0.00    +0.000 C 
ENDBRANCH  28  34
ENDBRANCH  23  24
ENDBRANCH   6  23
TORSDOF 9
ENDMDL
MODEL 3
REMARK VINA RESULT:      -6.8      0.998      2.266
REMARK  Name = 
REMARK  13 active torsions:
REMARK  status: ('A' for Active; 'I' for Inactive)
REMARK    1  A    between atoms: C_1  and  O_2
REMARK    2  A    between atoms: O_2  and  C_3
REMARK    3  A    between atoms: C_6  and  S_7
REMARK    4  A    between atoms: S_7  and  N_8
REMARK    5  A    between atoms: C_12  and  C_13
REMARK    6  A    between atoms: N_18  and  C_19
REMARK    7  A    between atoms: C_19  and  C_20
REMARK    8  A    between atoms: C_22  and  O_23
REMARK    9  A    between atoms: O_23  and  C_24
REMARK   10  A    between atoms: C_25  and  O_26
REMARK   11  A    between atoms: O_26  and  C_27
REMARK   12  A    between atoms: C_28  and  O_29
REMARK   13  A    between atoms: O_29  and  C_30
REMARK                            x       y       z     vdW  Elec       q    Type
REMARK                         _______ _______ _______ _____ _____    ______ ____
ROOT
ATOM      1  C   UNL     1       2.599   5.557  19.909  0.00  0.00    +0.000 C 
ATOM      2  O   UNL     1       2.534   4.969  20.991  0.00  0.00    +0.000 OA
ATOM      3  N   UNL     1       1.903   6.745  19.690  0.00  0.00    +0.000 N 
ATOM      4  C   UNL     1       1.265   7.420  20.826  0.00  0.00    +0.000 C 
ATOM      5  C   UNL     1       1.673   8.909  20.887  0.00  0.00    +0.000 C 
ATOM      6  N   UNL     1       1.509   9.673  19.623  0.00  0.00    +0.000 NA
ATOM      7  C   UNL     1       2.114   8.907  18.505  0.00  0.00    +0.000 C 
ATOM      8  C   UNL     1       1.671   7.427  18.417  0.00  0.00    +0.000 C 
ENDROOT
BRANCH   1  14
ATOM      9  C   UNL     1       2.954   4.088  17.825  0.00  0.00    +0.000 A 
ATOM     10  C   UNL     1       3.839   3.501  16.906  0.00  0.00    +0.000 A 
ATOM     11  C   UNL     1       5.171   3.885  16.864  0.00  0.00    +0.000 A 
ATOM     12  C   UNL     1       5.628   4.835  17.769  0.00  0.00    +0.000 A 
ATOM     13  C   UNL     1       4.803   5.301  18.801  0.00  0.00    +0.000 A 
ATOM     14  C   UNL     1       3.448   4.906  18.858  0.00  0.00    +0.000 A 
BRANCH  12  15
ATOM     15  S   UNL     1       7.230   5.526  17.507  0.00  0.00    +0.000 S 
ATOM     16  O   UNL     1       7.356   5.962  16.139  0.00  0.00    +0.000 OA
ATOM     17  O   UNL     1       7.575   6.370  18.622  0.00  0.00    +0.000 OA
BRANCH  15  18
ATOM     18  N   UNL     1       8.181   4.147  17.661  0.00  0.00    +0.000 NA
ATOM     19  H   UNL     1       7.754   3.481  18.305  0.00  0.00    +0.000 HD
ATOM     20  H   UNL     1       8.427   3.759  16.749  0.00  0.00    +0.000 HD
ENDBRANCH  15  18
ENDBRANCH  12  15
BRANCH   9  22
ATOM     21  C   UNL     1       1.109   2.792  18.483  0.00  0.00    +0.000 C 
ATOM     22  O   UNL     1       1.607   3.882  17.704  0.00  0.00    +0.000 OA
ENDBRANCH   9  22
ENDBRANCH   1  14
BRANCH   6  23
ATOM     23  C   UNL     1       0.112  10.002  19.322  0.00  0.00    +0.000 C 
BRANCH  23  24
ATOM     24  C   UNL     1      -0.344  11.327  19.891  0.00  0.00    +0.000 A 
ATOM     25  C   UNL     1      -0.861  11.419  21.186  0.00  0.00    +0.000 A 
ATOM     26  C   UNL     1      -1.224  12.660  21.724  0.00  0.00    +0.000 A 
ATOM     27  C   UNL     1      -1.069  13.835  20.952  0.00  0.00    +0.000 A 
ATOM     28  C   UNL     1      -0.562  13.747  19.639  0.00  0.00    +0.000 A 
ATOM     29  C   UNL     1      -0.216  12.491  19.126  0.00  0.00    +0.000 A 
BRANCH  26  30
ATOM     30  O   UNL     1      -1.737  12.809  22.992  0.00  0.00    +0.000 OA
ATOM     31  C   UNL     1      -3.001  12.205  23.243  0.00  0.00    +0.000 C 
ENDBRANCH  26  30
BRANCH  27  32
ATOM     32  O   UNL     1      -1.519  14.996  21.543  0.00  0.00    +0.000 OA
ATOM     33  C   UNL     1      -2.821  15.438  21.173  0.00  0.00    +0.000 C 
ENDBRANCH  27  32
BRANCH  28  34
ATOM     34  O   UNL     1      -0.449  14.897  18.902  0.00  0.00    +0.000 OA
ATOM     35  C   UNL     1       0.806  15.567  18.899  0.00  0.00    +0.000 C 
ENDBRANCH  28  34
ENDBRANCH  23  24
ENDBRANCH   6  23
TORSDOF 9
ENDMDL
MODEL 4
REMARK VINA RESULT:      -6.8      2.609      3.989
REMARK  Name = 
REMARK  13 active torsions:
REMARK  status: ('A' for Active; 'I' for Inactive)
REMARK    1  A    between atoms: C_1  and  O_2
REMARK    2  A    between atoms: O_2  and  C_3
REMARK    3  A    between atoms: C_6  and  S_7
REMARK    4  A    between atoms: S_7  and  N_8
REMARK    5  A    between atoms: C_12  and  C_13
REMARK    6  A    between atoms: N_18  and  C_19
REMARK    7  A    between atoms: C_19  and  C_20
REMARK    8  A    between atoms: C_22  and  O_23
REMARK    9  A    between atoms: O_23  and  C_24
REMARK   10  A    between atoms: C_25  and  O_26
REMARK   11  A    between atoms: O_26  and  C_27
REMARK   12  A    between atoms: C_28  and  O_29
REMARK   13  A    between atoms: O_29  and  C_30
REMARK                            x       y       z     vdW  Elec       q    Type
REMARK                         _______ _______ _______ _____ _____    ______ ____
ROOT
ATOM      1  C   UNL     1       2.292   8.072  18.085  0.00  0.00    +0.000 C 
ATOM      2  O   UNL     1       2.356   8.708  17.030  0.00  0.00    +0.000 OA
ATOM      3  N   UNL     1       1.754   8.641  19.239  0.00  0.00    +0.000 N 
ATOM      4  C   UNL     1       1.058   9.929  19.143  0.00  0.00    +0.000 C 
ATOM      5  C   UNL     1      -0.336   9.856  19.807  0.00  0.00    +0.000 C 
ATOM      6  N   UNL     1      -0.364   9.310  21.187  0.00  0.00    +0.000 NA
ATOM      7  C   UNL     1       0.413   8.046  21.231  0.00  0.00    +0.000 C 
ATOM      8  C   UNL     1       1.826   8.130  20.608  0.00  0.00    +0.000 C 
ENDROOT
BRANCH   1  14
ATOM      9  C   UNL     1       4.186   6.352  17.805  0.00  0.00    +0.000 A 
ATOM     10  C   UNL     1       4.590   5.008  17.759  0.00  0.00    +0.000 A 
ATOM     11  C   UNL     1       3.730   3.997  18.158  0.00  0.00    +0.000 A 
ATOM     12  C   UNL     1       2.445   4.328  18.572  0.00  0.00    +0.000 A 
ATOM     13  C   UNL     1       1.970   5.642  18.461  0.00  0.00    +0.000 A 
ATOM     14  C   UNL     1       2.838   6.676  18.044  0.00  0.00    +0.000 A 
BRANCH  12  15
ATOM     15  S   UNL     1       1.478   3.078  19.355  0.00  0.00    +0.000 S 
ATOM     16  O   UNL     1       0.537   2.526  18.413  0.00  0.00    +0.000 OA
ATOM     17  O   UNL     1       2.333   2.251  20.168  0.00  0.00    +0.000 OA
BRANCH  15  18
ATOM     18  N   UNL     1       0.587   4.016  20.430  0.00  0.00    +0.000 NA
ATOM     19  H   UNL     1      -0.414   3.857  20.308  0.00  0.00    +0.000 HD
ATOM     20  H   UNL     1       0.921   3.906  21.388  0.00  0.00    +0.000 HD
ENDBRANCH  15  18
ENDBRANCH  12  15
BRANCH   9  22
ATOM     21  C   UNL     1       6.394   6.894  17.218  0.00  0.00    +0.000 C 
ATOM     22  O   UNL     1       5.107   7.350  17.640  0.00  0.00    +0.000 OA
ENDBRANCH   9  22
ENDBRANCH   1  14
BRANCH   6  23
ATOM     23  C   UNL     1       0.135  10.252  22.194  0.00  0.00    +0.000 C 
BRANCH  23  24
ATOM     24  C   UNL     1      -0.705  11.501  22.338  0.00  0.00    +0.000 A 
ATOM     25  C   UNL     1      -0.213  12.753  21.960  0.00  0.00    +0.000 A 
ATOM     26  C   UNL     1      -1.021  13.893  22.041  0.00  0.00    +0.000 A 
ATOM     27  C   UNL     1      -2.350  13.783  22.513  0.00  0.00    +0.000 A 
ATOM     28  C   UNL     1      -2.848  12.525  22.910  0.00  0.00    +0.000 A 
ATOM     29  C   UNL     1      -2.013  11.404  22.825  0.00  0.00    +0.000 A 
BRANCH  26  30
ATOM     30  O   UNL     1      -0.589  15.149  21.681  0.00  0.00    +0.000 OA
ATOM     31  C   UNL     1      -0.359  15.370  20.294  0.00  0.00    +0.000 C 
ENDBRANCH  26  30
BRANCH  27  32
ATOM     32  O   UNL     1      -3.041  14.970  22.622  0.00  0.00    +0.000 OA
ATOM     33  C   UNL     1      -2.972  15.636  23.877  0.00  0.00    +0.000 C 
ENDBRANCH  27  32
BRANCH  28  34
ATOM     34  O   UNL     1      -4.129  12.449  23.391  0.00  0.00    +0.000 OA
ATOM     35  C   UNL     1      -4.308  12.344  24.799  0.00  0.00    +0.000 C 
ENDBRANCH  28  34
ENDBRANCH  23  24
ENDBRANCH   6  23
TORSDOF 9
ENDMDL
MODEL 5
REMARK VINA RESULT:      -6.8      3.606     10.482
REMARK  Name = 
REMARK  13 active torsions:
REMARK  status: ('A' for Active; 'I' for Inactive)
REMARK    1  A    between atoms: C_1  and  O_2
REMARK    2  A    between atoms: O_2  and  C_3
REMARK    3  A    between atoms: C_6  and  S_7
REMARK    4  A    between atoms: S_7  and  N_8
REMARK    5  A    between atoms: C_12  and  C_13
REMARK    6  A    between atoms: N_18  and  C_19
REMARK    7  A    between atoms: C_19  and  C_20
REMARK    8  A    between atoms: C_22  and  O_23
REMARK    9  A    between atoms: O_23  and  C_24
REMARK   10  A    between atoms: C_25  and  O_26
REMARK   11  A    between atoms: O_26  and  C_27
REMARK   12  A    between atoms: C_28  and  O_29
REMARK   13  A    between atoms: O_29  and  C_30
REMARK                            x       y       z     vdW  Elec       q    Type
REMARK                         _______ _______ _______ _____ _____    ______ ____
ROOT
ATOM      1  C   UNL     1      -1.211  11.598  19.724  0.00  0.00    +0.000 C 
ATOM      2  O   UNL     1      -1.797  12.147  18.788  0.00  0.00    +0.000 OA
ATOM      3  N   UNL     1      -0.463  10.438  19.526  0.00  0.00    +0.000 N 
ATOM      4  C   UNL     1      -0.188   9.990  18.156  0.00  0.00    +0.000 C 
ATOM      5  C   UNL     1       1.320   9.727  17.951  0.00  0.00    +0.000 C 
ATOM      6  N   UNL     1       1.965   8.851  18.963  0.00  0.00    +0.000 NA
ATOM      7  C   UNL     1       1.593   9.315  20.322  0.00  0.00    +0.000 C 
ATOM      8  C   UNL     1       0.077   9.534  20.542  0.00  0.00    +0.000 C 
ENDROOT
BRANCH   1  14
ATOM      9  C   UNL     1      -0.417  13.083  21.671  0.00  0.00    +0.000 A 
ATOM     10  C   UNL     1      -0.652  13.614  22.949  0.00  0.00    +0.000 A 
ATOM     11  C   UNL     1      -1.901  13.503  23.542  0.00  0.00    +0.000 A 
ATOM     12  C   UNL     1      -2.910  12.827  22.867  0.00  0.00    +0.000 A 
ATOM     13  C   UNL     1      -2.644  12.144  21.672  0.00  0.00    +0.000 A 
ATOM     14  C   UNL     1      -1.371  12.242  21.069  0.00  0.00    +0.000 A 
BRANCH  12  15
ATOM     15  S   UNL     1      -4.555  12.957  23.491  0.00  0.00    +0.000 S 
ATOM     16  O   UNL     1      -4.757  11.991  24.542  0.00  0.00    +0.000 OA
ATOM     17  O   UNL     1      -4.900  14.347  23.642  0.00  0.00    +0.000 OA
BRANCH  15  18
ATOM     18  N   UNL     1      -5.425  12.407  22.160  0.00  0.00    +0.000 NA
ATOM     19  H   UNL     1      -5.728  11.443  22.298  0.00  0.00    +0.000 HD
ATOM     20  H   UNL     1      -6.171  13.056  21.908  0.00  0.00    +0.000 HD
ENDBRANCH  15  18
ENDBRANCH  12  15
BRANCH   9  22
ATOM     21  C   UNL     1       1.393  14.568  21.487  0.00  0.00    +0.000 C 
ATOM     22  O   UNL     1       0.733  13.399  20.999  0.00  0.00    +0.000 OA
ENDBRANCH   9  22
ENDBRANCH   1  14
BRANCH   6  23
ATOM     23  C   UNL     1       1.632   7.432  18.797  0.00  0.00    +0.000 C 
BRANCH  23  24
ATOM     24  C   UNL     1       2.723   6.617  18.141  0.00  0.00    +0.000 A 
ATOM     25  C   UNL     1       3.860   7.227  17.604  0.00  0.00    +0.000 A 
ATOM     26  C   UNL     1       4.891   6.458  17.052  0.00  0.00    +0.000 A 
ATOM     27  C   UNL     1       4.785   5.047  17.033  0.00  0.00    +0.000 A 
ATOM     28  C   UNL     1       3.634   4.426  17.559  0.00  0.00    +0.000 A 
ATOM     29  C   UNL     1       2.615   5.223  18.097  0.00  0.00    +0.000 A 
BRANCH  26  30
ATOM     30  O   UNL     1       6.032   7.005  16.512  0.00  0.00    +0.000 OA
ATOM     31  C   UNL     1       7.059   7.368  17.428  0.00  0.00    +0.000 C 
ENDBRANCH  26  30
BRANCH  27  32
ATOM     32  O   UNL     1       5.818   4.383  16.407  0.00  0.00    +0.000 OA
ATOM     33  C   UNL     1       5.675   4.153  15.010  0.00  0.00    +0.000 C 
ENDBRANCH  27  32
BRANCH  28  34
ATOM     34  O   UNL     1       3.542   3.060  17.503  0.00  0.00    +0.000 OA
ATOM     35  C   UNL     1       2.297   2.460  17.844  0.00  0.00    +0.000 C 
ENDBRANCH  28  34
ENDBRANCH  23  24
ENDBRANCH   6  23
TORSDOF 9
ENDMDL
MODEL 6
REMARK VINA RESULT:      -6.7      3.662     10.719
REMARK  Name = 
REMARK  13 active torsions:
REMARK  status: ('A' for Active; 'I' for Inactive)
REMARK    1  A    between atoms: C_1  and  O_2
REMARK    2  A    between atoms: O_2  and  C_3
REMARK    3  A    between atoms: C_6  and  S_7
REMARK    4  A    between atoms: S_7  and  N_8
REMARK    5  A    between atoms: C_12  and  C_13
REMARK    6  A    between atoms: N_18  and  C_19
REMARK    7  A    between atoms: C_19  and  C_20
REMARK    8  A    between atoms: C_22  and  O_23
REMARK    9  A    between atoms: O_23  and  C_24
REMARK   10  A    between atoms: C_25  and  O_26
REMARK   11  A    between atoms: O_26  and  C_27
REMARK   12  A    between atoms: C_28  and  O_29
REMARK   13  A    between atoms: O_29  and  C_30
REMARK                            x       y       z     vdW  Elec       q    Type
REMARK                         _______ _______ _______ _____ _____    ______ ____
ROOT
ATOM      1  C   UNL     1      -1.224  11.715  19.711  0.00  0.00    +0.000 C 
ATOM      2  O   UNL     1      -1.768  12.272  18.754  0.00  0.00    +0.000 OA
ATOM      3  N   UNL     1      -0.499  10.536  19.542  0.00  0.00    +0.000 N 
ATOM      4  C   UNL     1      -0.193  10.072  18.185  0.00  0.00    +0.000 C 
ATOM      5  C   UNL     1       1.314   9.773  18.028  0.00  0.00    +0.000 C 
ATOM      6  N   UNL     1       1.906   8.888  19.064  0.00  0.00    +0.000 NA
ATOM      7  C   UNL     1       1.505   9.371  20.409  0.00  0.00    +0.000 C 
ATOM      8  C   UNL     1      -0.011   9.628  20.581  0.00  0.00    +0.000 C 
ENDROOT
BRANCH   1  14
ATOM      9  C   UNL     1      -0.459  13.204  21.666  0.00  0.00    +0.000 A 
ATOM     10  C   UNL     1      -0.719  13.749  22.933  0.00  0.00    +0.000 A 
ATOM     11  C   UNL     1      -1.984  13.661  23.494  0.00  0.00    +0.000 A 
ATOM     12  C   UNL     1      -2.985  12.994  22.799  0.00  0.00    +0.000 A 
ATOM     13  C   UNL     1      -2.699  12.298  21.617  0.00  0.00    +0.000 A 
ATOM     14  C   UNL     1      -1.410  12.373  21.045  0.00  0.00    +0.000 A 
BRANCH  12  15
ATOM     15  S   UNL     1      -4.644  13.154  23.378  0.00  0.00    +0.000 S 
ATOM     16  O   UNL     1      -4.981  14.548  23.520  0.00  0.00    +0.000 OA
ATOM     17  O   UNL     1      -5.488  12.222  22.674  0.00  0.00    +0.000 OA
BRANCH  15  18
ATOM     18  N   UNL     1      -4.478  12.540  24.936  0.00  0.00    +0.000 NA
ATOM     19  H   UNL     1      -5.214  12.896  25.547  0.00  0.00    +0.000 HD
ATOM     20  H   UNL     1      -4.386  11.524  24.929  0.00  0.00    +0.000 HD
ENDBRANCH  15  18
ENDBRANCH  12  15
BRANCH   9  22
ATOM     21  C   UNL     1       1.497  14.504  21.665  0.00  0.00    +0.000 C 
ATOM     22  O   UNL     1       0.712  13.498  21.022  0.00  0.00    +0.000 OA
ENDBRANCH   9  22
ENDBRANCH   1  14
BRANCH   6  23
ATOM     23  C   UNL     1       1.545   7.477  18.898  0.00  0.00    +0.000 C 
BRANCH  23  24
ATOM     24  C   UNL     1       2.616   6.642  18.233  0.00  0.00    +0.000 A 
ATOM     25  C   UNL     1       2.468   5.261  18.080  0.00  0.00    +0.000 A 
ATOM     26  C   UNL     1       3.438   4.507  17.410  0.00  0.00    +0.000 A 
ATOM     27  C   UNL     1       4.585   5.145  16.883  0.00  0.00    +0.000 A 
ATOM     28  C   UNL     1       4.749   6.536  17.047  0.00  0.00    +0.000 A 
ATOM     29  C   UNL     1       3.765   7.261  17.729  0.00  0.00    +0.000 A 
BRANCH  26  30
ATOM     30  O   UNL     1       3.342   3.146  17.229  0.00  0.00    +0.000 OA
ATOM     31  C   UNL     1       3.352   2.345  18.406  0.00  0.00    +0.000 C 
ENDBRANCH  26  30
BRANCH  27  32
ATOM     32  O   UNL     1       5.515   4.308  16.303  0.00  0.00    +0.000 OA
ATOM     33  C   UNL     1       5.573   4.307  14.881  0.00  0.00    +0.000 C 
ENDBRANCH  27  32
BRANCH  28  34
ATOM     34  O   UNL     1       5.883   7.125  16.552  0.00  0.00    +0.000 OA
ATOM     35  C   UNL     1       6.996   7.269  17.427  0.00  0.00    +0.000 C 
ENDBRANCH  28  34
ENDBRANCH  23  24
ENDBRANCH   6  23
TORSDOF 9
ENDMDL
MODEL 7
REMARK VINA RESULT:      -6.7      3.636     10.486
REMARK  Name = 
REMARK  13 active torsions:
REMARK  status: ('A' for Active; 'I' for Inactive)
REMARK    1  A    between atoms: C_1  and  O_2
REMARK    2  A    between atoms: O_2  and  C_3
REMARK    3  A    between atoms: C_6  and  S_7
REMARK    4  A    between atoms: S_7  and  N_8
REMARK    5  A    between atoms: C_12  and  C_13
REMARK    6  A    between atoms: N_18  and  C_19
REMARK    7  A    between atoms: C_19  and  C_20
REMARK    8  A    between atoms: C_22  and  O_23
REMARK    9  A    between atoms: O_23  and  C_24
REMARK   10  A    between atoms: C_25  and  O_26
REMARK   11  A    between atoms: O_26  and  C_27
REMARK   12  A    between atoms: C_28  and  O_29
REMARK   13  A    between atoms: O_29  and  C_30
REMARK                            x       y       z     vdW  Elec       q    Type
REMARK                         _______ _______ _______ _____ _____    ______ ____
ROOT
ATOM      1  C   UNL     1      -1.622  12.958  19.462  0.00  0.00    +0.000 C 
ATOM      2  O   UNL     1      -1.217  14.115  19.327  0.00  0.00    +0.000 OA
ATOM      3  N   UNL     1      -0.804  11.868  19.165  0.00  0.00    +0.000 N 
ATOM      4  C   UNL     1       0.621  12.095  18.899  0.00  0.00    +0.000 C 
ATOM      5  C   UNL     1       1.501  11.166  19.766  0.00  0.00    +0.000 C 
ATOM      6  N   UNL     1       1.150   9.724  19.724  0.00  0.00    +0.000 NA
ATOM      7  C   UNL     1      -0.311   9.568  19.931  0.00  0.00    +0.000 C 
ATOM      8  C   UNL     1      -1.194  10.465  19.030  0.00  0.00    +0.000 C 
ENDROOT
BRANCH   1  14
ATOM      9  C   UNL     1      -4.081  12.251  19.186  0.00  0.00    +0.000 A 
ATOM     10  C   UNL     1      -5.378  12.182  19.719  0.00  0.00    +0.000 A 
ATOM     11  C   UNL     1      -5.606  12.455  21.060  0.00  0.00    +0.000 A 
ATOM     12  C   UNL     1      -4.537  12.833  21.862  0.00  0.00    +0.000 A 
ATOM     13  C   UNL     1      -3.271  13.072  21.310  0.00  0.00    +0.000 A 
ATOM     14  C   UNL     1      -3.034  12.808  19.943  0.00  0.00    +0.000 A 
BRANCH  12  15
ATOM     15  S   UNL     1      -4.787  12.879  23.608  0.00  0.00    +0.000 S 
ATOM     16  O   UNL     1      -4.489  14.198  24.110  0.00  0.00    +0.000 OA
ATOM     17  O   UNL     1      -6.007  12.186  23.935  0.00  0.00    +0.000 OA
BRANCH  15  18
ATOM     18  N   UNL     1      -3.535  11.877  24.118  0.00  0.00    +0.000 NA
ATOM     19  H   UNL     1      -3.658  11.613  25.096  0.00  0.00    +0.000 HD
ATOM     20  H   UNL     1      -3.400  11.094  23.479  0.00  0.00    +0.000 HD
ENDBRANCH  15  18
ENDBRANCH  12  15
BRANCH   9  22
ATOM     21  C   UNL     1      -5.001  11.435  17.185  0.00  0.00    +0.000 C 
ATOM     22  O   UNL     1      -3.829  11.755  17.935  0.00  0.00    +0.000 OA
ENDBRANCH   9  22
ENDBRANCH   1  14
BRANCH   6  23
ATOM     23  C   UNL     1       1.565   9.062  18.482  0.00  0.00    +0.000 C 
BRANCH  23  24
ATOM     24  C   UNL     1       2.351   7.788  18.698  0.00  0.00    +0.000 A 
ATOM     25  C   UNL     1       2.040   6.913  19.742  0.00  0.00    +0.000 A 
ATOM     26  C   UNL     1       2.736   5.708  19.895  0.00  0.00    +0.000 A 
ATOM     27  C   UNL     1       3.766   5.368  18.988  0.00  0.00    +0.000 A 
ATOM     28  C   UNL     1       4.095   6.254  17.940  0.00  0.00    +0.000 A 
ATOM     29  C   UNL     1       3.387   7.456  17.818  0.00  0.00    +0.000 A 
BRANCH  26  30
ATOM     30  O   UNL     1       2.471   4.809  20.903  0.00  0.00    +0.000 OA
ATOM     31  C   UNL     1       1.329   3.977  20.731  0.00  0.00    +0.000 C 
ENDBRANCH  26  30
BRANCH  27  32
ATOM     32  O   UNL     1       4.436   4.196  19.263  0.00  0.00    +0.000 OA
ATOM     33  C   UNL     1       4.112   3.070  18.456  0.00  0.00    +0.000 C 
ENDBRANCH  27  32
BRANCH  28  34
ATOM     34  O   UNL     1       5.116   5.915  17.092  0.00  0.00    +0.000 OA
ATOM     35  C   UNL     1       6.276   6.740  17.082  0.00  0.00    +0.000 C 
ENDBRANCH  28  34
ENDBRANCH  23  24
ENDBRANCH   6  23
TORSDOF 9
ENDMDL
MODEL 8
REMARK VINA RESULT:      -6.7      3.670     10.730
REMARK  Name = 
REMARK  13 active torsions:
REMARK  status: ('A' for Active; 'I' for Inactive)
REMARK    1  A    between atoms: C_1  and  O_2
REMARK    2  A    between atoms: O_2  and  C_3
REMARK    3  A    between atoms: C_6  and  S_7
REMARK    4  A    between atoms: S_7  and  N_8
REMARK    5  A    between atoms: C_12  and  C_13
REMARK    6  A    between atoms: N_18  and  C_19
REMARK    7  A    between atoms: C_19  and  C_20
REMARK    8  A    between atoms: C_22  and  O_23
REMARK    9  A    between atoms: O_23  and  C_24
REMARK   10  A    between atoms: C_25  and  O_26
REMARK   11  A    between atoms: O_26  and  C_27
REMARK   12  A    between atoms: C_28  and  O_29
REMARK   13  A    between atoms: O_29  and  C_30
REMARK                            x       y       z     vdW  Elec       q    Type
REMARK                         _______ _______ _______ _____ _____    ______ ____
ROOT
ATOM      1  C   UNL     1      -1.149  11.514  19.638  0.00  0.00    +0.000 C 
ATOM      2  O   UNL     1      -1.560  12.137  18.656  0.00  0.00    +0.000 OA
ATOM      3  N   UNL     1      -0.370  10.367  19.491  0.00  0.00    +0.000 N 
ATOM      4  C   UNL     1       0.149  10.020  18.163  0.00  0.00    +0.000 C 
ATOM      5  C   UNL     1       1.671   9.762  18.214  0.00  0.00    +0.000 C 
ATOM      6  N   UNL     1       2.128   8.807  19.256  0.00  0.00    +0.000 NA
ATOM      7  C   UNL     1       1.515   9.172  20.558  0.00  0.00    +0.000 C 
ATOM      8  C   UNL     1      -0.017   9.385  20.517  0.00  0.00    +0.000 C 
ENDROOT
BRANCH   1  14
ATOM      9  C   UNL     1      -0.676  12.689  21.879  0.00  0.00    +0.000 A 
ATOM     10  C   UNL     1      -1.149  13.138  23.122  0.00  0.00    +0.000 A 
ATOM     11  C   UNL     1      -2.509  13.167  23.393  0.00  0.00    +0.000 A 
ATOM     12  C   UNL     1      -3.399  12.712  22.427  0.00  0.00    +0.000 A 
ATOM     13  C   UNL     1      -2.936  12.102  21.253  0.00  0.00    +0.000 A 
ATOM     14  C   UNL     1      -1.552  12.058  20.976  0.00  0.00    +0.000 A 
BRANCH  12  15
ATOM     15  S   UNL     1      -5.117  13.035  22.665  0.00  0.00    +0.000 S 
ATOM     16  O   UNL     1      -5.558  12.450  23.906  0.00  0.00    +0.000 OA
ATOM     17  O   UNL     1      -5.399  14.403  22.312  0.00  0.00    +0.000 OA
BRANCH  15  18
ATOM     18  N   UNL     1      -5.772  12.096  21.432  0.00  0.00    +0.000 NA
ATOM     19  H   UNL     1      -6.324  11.328  21.815  0.00  0.00    +0.000 HD
ATOM     20  H   UNL     1      -6.261  12.670  20.745  0.00  0.00    +0.000 HD
ENDBRANCH  15  18
ENDBRANCH  12  15
BRANCH   9  22
ATOM     21  C   UNL     1       1.062  14.245  21.612  0.00  0.00    +0.000 C 
ATOM     22  O   UNL     1       0.633  12.885  21.534  0.00  0.00    +0.000 OA
ENDBRANCH   9  22
ENDBRANCH   1  14
BRANCH   6  23
ATOM     23  C   UNL     1       1.838   7.408  18.928  0.00  0.00    +0.000 C 
BRANCH  23  24
ATOM     24  C   UNL     1       3.062   6.593  18.573  0.00  0.00    +0.000 A 
ATOM     25  C   UNL     1       3.462   5.508  19.358  0.00  0.00    +0.000 A 
ATOM     26  C   UNL     1       4.562   4.725  18.987  0.00  0.00    +0.000 A 
ATOM     27  C   UNL     1       5.280   5.032  17.808  0.00  0.00    +0.000 A 
ATOM     28  C   UNL     1       4.891   6.134  17.020  0.00  0.00    +0.000 A 
ATOM     29  C   UNL     1       3.792   6.904  17.421  0.00  0.00    +0.000 A 
BRANCH  26  30
ATOM     30  O   UNL     1       4.998   3.645  19.721  0.00  0.00    +0.000 OA
ATOM     31  C   UNL     1       4.138   2.512  19.760  0.00  0.00    +0.000 C 
ENDBRANCH  26  30
BRANCH  27  32
ATOM     32  O   UNL     1       6.386   4.246  17.566  0.00  0.00    +0.000 OA
ATOM     33  C   UNL     1       7.649   4.793  17.928  0.00  0.00    +0.000 C 
ENDBRANCH  27  32
BRANCH  28  34
ATOM     34  O   UNL     1       5.621   6.429  15.898  0.00  0.00    +0.000 OA
ATOM     35  C   UNL     1       5.591   5.499  14.820  0.00  0.00    +0.000 C 
ENDBRANCH  28  34
ENDBRANCH  23  24
ENDBRANCH   6  23
TORSDOF 9
ENDMDL
MODEL 9
REMARK VINA RESULT:      -6.7      2.614      4.486
REMARK  Name = 
REMARK  13 active torsions:
REMARK  status: ('A' for Active; 'I' for Inactive)
REMARK    1  A    between atoms: C_1  and  O_2
REMARK    2  A    between atoms: O_2  and  C_3
REMARK    3  A    between atoms: C_6  and  S_7
REMARK    4  A    between atoms: S_7  and  N_8
REMARK    5  A    between atoms: C_12  and  C_13
REMARK    6  A    between atoms: N_18  and  C_19
REMARK    7  A    between atoms: C_19  and  C_20
REMARK    8  A    between atoms: C_22  and  O_23
REMARK    9  A    between atoms: O_23  and  C_24
REMARK   10  A    between atoms: C_25  and  O_26
REMARK   11  A    between atoms: O_26  and  C_27
REMARK   12  A    between atoms: C_28  and  O_29
REMARK   13  A    between atoms: O_29  and  C_30
REMARK                            x       y       z     vdW  Elec       q    Type
REMARK                         _______ _______ _______ _____ _____    ______ ____
ROOT
ATOM      1  C   UNL     1       2.258   8.093  18.102  0.00  0.00    +0.000 C 
ATOM      2  O   UNL     1       2.323   8.747  17.058  0.00  0.00    +0.000 OA
ATOM      3  N   UNL     1       1.717   8.642  19.265  0.00  0.00    +0.000 N 
ATOM      4  C   UNL     1       1.019   9.930  19.190  0.00  0.00    +0.000 C 
ATOM      5  C   UNL     1      -0.376   9.843  19.850  0.00  0.00    +0.000 C 
ATOM      6  N   UNL     1      -0.405   9.273  21.221  0.00  0.00    +0.000 NA
ATOM      7  C   UNL     1       0.374   8.010  21.244  0.00  0.00    +0.000 C 
ATOM      8  C   UNL     1       1.789   8.108  20.625  0.00  0.00    +0.000 C 
ENDROOT
BRANCH   1  14
ATOM      9  C   UNL     1       4.149   6.380  17.762  0.00  0.00    +0.000 A 
ATOM     10  C   UNL     1       4.556   5.039  17.697  0.00  0.00    +0.000 A 
ATOM     11  C   UNL     1       3.709   4.022  18.113  0.00  0.00    +0.000 A 
ATOM     12  C   UNL     1       2.436   4.347  18.564  0.00  0.00    +0.000 A 
ATOM     13  C   UNL     1       1.954   5.660  18.473  0.00  0.00    +0.000 A 
ATOM     14  C   UNL     1       2.807   6.699  18.039  0.00  0.00    +0.000 A 
BRANCH  12  15
ATOM     15  S   UNL     1       1.494   3.089  19.366  0.00  0.00    +0.000 S 
ATOM     16  O   UNL     1       0.570   2.499  18.430  0.00  0.00    +0.000 OA
ATOM     17  O   UNL     1       2.364   2.297  20.196  0.00  0.00    +0.000 OA
BRANCH  15  18
ATOM     18  N   UNL     1       0.577   4.027  20.420  0.00  0.00    +0.000 NA
ATOM     19  H   UNL     1      -0.339   3.606  20.576  0.00  0.00    +0.000 HD
ATOM     20  H   UNL     1       1.096   4.246  21.272  0.00  0.00    +0.000 HD
ENDBRANCH  15  18
ENDBRANCH  12  15
BRANCH   9  22
ATOM     21  C   UNL     1       6.369   6.925  17.223  0.00  0.00    +0.000 C 
ATOM     22  O   UNL     1       5.063   7.382  17.577  0.00  0.00    +0.000 OA
ENDBRANCH   9  22
ENDBRANCH   1  14
BRANCH   6  23
ATOM     23  C   UNL     1       0.091  10.199  22.245  0.00  0.00    +0.000 C 
BRANCH  23  24
ATOM     24  C   UNL     1      -0.650  11.517  22.293  0.00  0.00    +0.000 A 
ATOM     25  C   UNL     1      -1.961  11.593  22.768  0.00  0.00    +0.000 A 
ATOM     26  C   UNL     1      -2.616  12.827  22.864  0.00  0.00    +0.000 A 
ATOM     27  C   UNL     1      -1.948  14.011  22.475  0.00  0.00    +0.000 A 
ATOM     28  C   UNL     1      -0.630  13.940  21.980  0.00  0.00    +0.000 A 
ATOM     29  C   UNL     1      -0.005  12.690  21.887  0.00  0.00    +0.000 A 
BRANCH  26  30
ATOM     30  O   UNL     1      -3.906  12.961  23.327  0.00  0.00    +0.000 OA
ATOM     31  C   UNL     1      -4.169  12.460  24.633  0.00  0.00    +0.000 C 
ENDBRANCH  26  30
BRANCH  27  32
ATOM     32  O   UNL     1      -2.700  15.165  22.541  0.00  0.00    +0.000 OA
ATOM     33  C   UNL     1      -3.304  15.603  21.329  0.00  0.00    +0.000 C 
ENDBRANCH  27  32
BRANCH  28  34
ATOM     34  O   UNL     1      -0.015  15.098  21.581  0.00  0.00    +0.000 OA
ATOM     35  C   UNL     1       0.652  15.101  20.324  0.00  0.00    +0.000 C 
ENDBRANCH  28  34
ENDBRANCH  23  24
ENDBRANCH   6  23
TORSDOF 9
ENDMDL
