MODEL 1
REMARK VINA RESULT:      -8.6      0.000      0.000
REMARK  Name = 
REMARK  8 active torsions:
REMARK  status: ('A' for Active; 'I' for Inactive)
REMARK    1  A    between atoms: C_2  and  C_3
REMARK    2  A    between atoms: C_3  and  O_4
REMARK    3  A    between atoms: O_4  and  C_5
REMARK    4  A    between atoms: C_8  and  C_9
REMARK    5  A    between atoms: C_12  and  N_13
REMARK    6  A    between atoms: N_13  and  C_14
REMARK    7  A    between atoms: C_17  and  N_18
REMARK    8  A    between atoms: C_19  and  C_20
REMARK                            x       y       z     vdW  Elec       q    Type
REMARK                         _______ _______ _______ _____ _____    ______ ____
ROOT
ATOM      1  C   UNL     1       4.389   4.321  17.428  0.00  0.00    +0.000 A 
ATOM      2  N   UNL     1       5.377   4.756  18.273  0.00  0.00    +0.000 NA
ATOM      3  N   UNL     1       5.100   5.483  19.369  0.00  0.00    +0.000 NA
ATOM      4  C   UNL     1       3.830   5.593  19.611  0.00  0.00    +0.000 A 
ATOM      5  C   UNL     1       3.279   4.299  19.440  0.00  0.00    +0.000 A 
ATOM      6  C   UNL     1       3.135   3.061  20.405  0.00  0.00    +0.000 A 
ATOM      7  C   UNL     1       1.887   2.648  20.896  0.00  0.00    +0.000 A 
ATOM      8  C   UNL     1       0.927   3.465  20.447  0.00  0.00    +0.000 A 
ATOM      9  C   UNL     1       1.303   4.164  19.153  0.00  0.00    +0.000 A 
ATOM     10  C   UNL     1       2.834   4.241  18.289  0.00  0.00    +0.000 A 
ENDROOT
BRANCH   1  14
ATOM     11  C   UNL     1       6.796   3.943  12.815  0.00  0.00    +0.000 A 
ATOM     12  C   UNL     1       7.303   4.732  13.847  0.00  0.00    +0.000 A 
ATOM     13  C   UNL     1       6.695   4.911  15.379  0.00  0.00    +0.000 A 
ATOM     14  C   UNL     1       5.484   4.339  15.954  0.00  0.00    +0.000 A 
ATOM     15  C   UNL     1       4.965   3.707  14.712  0.00  0.00    +0.000 A 
ATOM     16  C   UNL     1       5.539   3.521  13.253  0.00  0.00    +0.000 A 
BRANCH  11  17
ATOM     17  O   UNL     1       7.274   3.776  11.501  0.00  0.00    +0.000 OA
BRANCH  17  18
ATOM     18  C   UNL     1       7.770   2.443  10.812  0.00  0.00    +0.000 C 
BRANCH  18  20
ATOM     19  C   UNL     1       6.061   0.238  11.241  0.00  0.00    +0.000 C 
ATOM     20  C   UNL     1       6.851   1.256  11.043  0.00  0.00    +0.000 C 
ENDBRANCH  18  20
ENDBRANCH  17  18
ENDBRANCH  11  17
ENDBRANCH   1  14
BRANCH   4  21
ATOM     21  N   UNL     1       3.116   6.688  18.865  0.00  0.00    +0.000 N 
ATOM     22  H   UNL     1       3.181   6.658  17.853  0.00  0.00    +0.000 HD
BRANCH  21  23
ATOM     23  C   UNL     1       2.194   7.660  19.310  0.00  0.00    +0.000 A 
ATOM     24  C   UNL     1       1.633   7.632  20.598  0.00  0.00    +0.000 A 
ATOM     25  C   UNL     1       0.783   8.676  21.045  0.00  0.00    +0.000 A 
ATOM     26  C   UNL     1       0.513   9.789  20.242  0.00  0.00    +0.000 A 
ATOM     27  C   UNL     1       0.976   9.732  18.919  0.00  0.00    +0.000 A 
ATOM     28  C   UNL     1       1.790   8.680  18.466  0.00  0.00    +0.000 A 
BRANCH  26  29
ATOM     29  N   UNL     1      -0.112  11.001  20.706  0.00  0.00    +0.000 N 
ATOM     30  C   UNL     1       0.540  12.182  21.058  0.00  0.00    +0.000 C 
ATOM     31  C   UNL     1      -0.321  13.421  21.310  0.00  0.00    +0.000 C 
ATOM     32  O   UNL     1       1.762  12.300  21.173  0.00  0.00    +0.000 OA
ATOM     33  H   UNL     1      -1.123  11.011  20.684  0.00  0.00    +0.000 HD
ENDBRANCH  26  29
ENDBRANCH  21  23
ENDBRANCH   4  21
TORSDOF 7
ENDMDL
MODEL 2
REMARK VINA RESULT:      -8.6      1.164      1.443
REMARK  Name = 
REMARK  8 active torsions:
REMARK  status: ('A' for Active; 'I' for Inactive)
REMARK    1  A    between atoms: C_2  and  C_3
REMARK    2  A    between atoms: C_3  and  O_4
REMARK    3  A    between atoms: O_4  and  C_5
REMARK    4  A    between atoms: C_8  and  C_9
REMARK    5  A    between atoms: C_12  and  N_13
REMARK    6  A    between atoms: N_13  and  C_14
REMARK    7  A    between atoms: C_17  and  N_18
REMARK    8  A    between atoms: C_19  and  C_20
REMARK                            x       y       z     vdW  Elec       q    Type
REMARK                         _______ _______ _______ _____ _____    ______ ____
ROOT
ATOM      1  C   UNL     1       4.268   4.165  17.682  0.00  0.00    +0.000 A 
ATOM      2  N   UNL     1       5.162   4.835  18.478  0.00  0.00    +0.000 NA
ATOM      3  N   UNL     1       4.756   5.629  19.483  0.00  0.00    +0.000 NA
ATOM      4  C   UNL     1       3.479   5.572  19.706  0.00  0.00    +0.000 A 
ATOM      5  C   UNL     1       3.131   4.198  19.679  0.00  0.00    +0.000 A 
ATOM      6  C   UNL     1       3.152   3.069  20.777  0.00  0.00    +0.000 A 
ATOM      7  C   UNL     1       1.970   2.529  21.306  0.00  0.00    +0.000 A 
ATOM      8  C   UNL     1       0.909   3.137  20.763  0.00  0.00    +0.000 A 
ATOM      9  C   UNL     1       1.204   3.737  19.400  0.00  0.00    +0.000 A 
ATOM     10  C   UNL     1       2.725   3.948  18.540  0.00  0.00    +0.000 A 
ENDROOT
BRANCH   1  14
ATOM     11  C   UNL     1       6.676   3.946  13.060  0.00  0.00    +0.000 A 
ATOM     12  C   UNL     1       7.273   4.536  14.173  0.00  0.00    +0.000 A 
ATOM     13  C   UNL     1       6.671   4.634  15.714  0.00  0.00    +0.000 A 
ATOM     14  C   UNL     1       5.381   4.184  16.221  0.00  0.00    +0.000 A 
ATOM     15  C   UNL     1       4.797   3.772  14.916  0.00  0.00    +0.000 A 
ATOM     16  C   UNL     1       5.364   3.664  13.447  0.00  0.00    +0.000 A 
BRANCH  11  17
ATOM     17  O   UNL     1       7.147   3.854  11.736  0.00  0.00    +0.000 OA
BRANCH  17  18
ATOM     18  C   UNL     1       7.715   2.580  10.994  0.00  0.00    +0.000 C 
BRANCH  18  20
ATOM     19  C   UNL     1       6.044   0.313  11.193  0.00  0.00    +0.000 C 
ATOM     20  C   UNL     1       6.816   1.360  11.101  0.00  0.00    +0.000 C 
ENDBRANCH  18  20
ENDBRANCH  17  18
ENDBRANCH  11  17
ENDBRANCH   1  14
BRANCH   4  21
ATOM     21  N   UNL     1       2.626   6.458  18.837  0.00  0.00    +0.000 N 
ATOM     22  H   UNL     1       2.218   6.023  18.017  0.00  0.00    +0.000 HD
BRANCH  21  23
ATOM     23  C   UNL     1       2.120   7.757  19.058  0.00  0.00    +0.000 A 
ATOM     24  C   UNL     1       2.200   8.771  18.089  0.00  0.00    +0.000 A 
ATOM     25  C   UNL     1       1.598  10.037  18.308  0.00  0.00    +0.000 A 
ATOM     26  C   UNL     1       0.864  10.302  19.470  0.00  0.00    +0.000 A 
ATOM     27  C   UNL     1       0.908   9.324  20.474  0.00  0.00    +0.000 A 
ATOM     28  C   UNL     1       1.535   8.083  20.269  0.00  0.00    +0.000 A 
BRANCH  26  29
ATOM     29  N   UNL     1       0.010  11.447  19.655  0.00  0.00    +0.000 N 
ATOM     30  C   UNL     1      -1.351  11.517  19.359  0.00  0.00    +0.000 C 
ATOM     31  C   UNL     1      -2.120  12.749  19.838  0.00  0.00    +0.000 C 
ATOM     32  O   UNL     1      -1.979  10.650  18.747  0.00  0.00    +0.000 OA
ATOM     33  H   UNL     1       0.429  12.238  20.125  0.00  0.00    +0.000 HD
ENDBRANCH  26  29
ENDBRANCH  21  23
ENDBRANCH   4  21
TORSDOF 7
ENDMDL
MODEL 3
REMARK VINA RESULT:      -8.2      1.105      1.157
REMARK  Name = 
REMARK  8 active torsions:
REMARK  status: ('A' for Active; 'I' for Inactive)
REMARK    1  A    between atoms: C_2  and  C_3
REMARK    2  A    between atoms: C_3  and  O_4
REMARK    3  A    between atoms: O_4  and  C_5
REMARK    4  A    between atoms: C_8  and  C_9
REMARK    5  A    between atoms: C_12  and  N_13
REMARK    6  A    between atoms: N_13  and  C_14
REMARK    7  A    between atoms: C_17  and  N_18
REMARK    8  A    between atoms: C_19  and  C_20
REMARK                            x       y       z     vdW  Elec       q    Type
REMARK                         _______ _______ _______ _____ _____    ______ ____
ROOT
ATOM      1  C   UNL     1       4.246   4.313  17.646  0.00  0.00    +0.000 A 
ATOM      2  N   UNL     1       5.105   5.067  18.404  0.00  0.00    +0.000 NA
ATOM      3  N   UNL     1       4.661   5.890  19.369  0.00  0.00    +0.000 NA
ATOM      4  C   UNL     1       3.388   5.781  19.598  0.00  0.00    +0.000 A 
ATOM      5  C   UNL     1       3.109   4.392  19.642  0.00  0.00    +0.000 A 
ATOM      6  C   UNL     1       3.188   3.322  20.796  0.00  0.00    +0.000 A 
ATOM      7  C   UNL     1       2.034   2.753  21.356  0.00  0.00    +0.000 A 
ATOM      8  C   UNL     1       0.944   3.278  20.786  0.00  0.00    +0.000 A 
ATOM      9  C   UNL     1       1.208   3.822  19.394  0.00  0.00    +0.000 A 
ATOM     10  C   UNL     1       2.715   4.064  18.519  0.00  0.00    +0.000 A 
ENDROOT
BRANCH   1  14
ATOM     11  C   UNL     1       6.664   3.960  13.038  0.00  0.00    +0.000 A 
ATOM     12  C   UNL     1       7.219   4.660  14.108  0.00  0.00    +0.000 A 
ATOM     13  C   UNL     1       6.611   4.815  15.643  0.00  0.00    +0.000 A 
ATOM     14  C   UNL     1       5.354   4.313  16.183  0.00  0.00    +0.000 A 
ATOM     15  C   UNL     1       4.800   3.780  14.909  0.00  0.00    +0.000 A 
ATOM     16  C   UNL     1       5.373   3.617  13.447  0.00  0.00    +0.000 A 
BRANCH  11  17
ATOM     17  O   UNL     1       7.140   3.816  11.721  0.00  0.00    +0.000 OA
BRANCH  17  18
ATOM     18  C   UNL     1       7.753   2.525  11.047  0.00  0.00    +0.000 C 
BRANCH  18  20
ATOM     19  C   UNL     1       6.066   0.266  11.178  0.00  0.00    +0.000 C 
ATOM     20  C   UNL     1       6.845   1.308  11.117  0.00  0.00    +0.000 C 
ENDBRANCH  18  20
ENDBRANCH  17  18
ENDBRANCH  11  17
ENDBRANCH   1  14
BRANCH   4  21
ATOM     21  N   UNL     1       2.491   6.578  18.688  0.00  0.00    +0.000 N 
ATOM     22  H   UNL     1       2.033   6.061  17.946  0.00  0.00    +0.000 HD
BRANCH  21  23
ATOM     23  C   UNL     1       2.008   7.900  18.794  0.00  0.00    +0.000 A 
ATOM     24  C   UNL     1       1.361   8.375  19.947  0.00  0.00    +0.000 A 
ATOM     25  C   UNL     1       0.973   9.735  20.056  0.00  0.00    +0.000 A 
ATOM     26  C   UNL     1       1.264  10.658  19.045  0.00  0.00    +0.000 A 
ATOM     27  C   UNL     1       1.791  10.136  17.855  0.00  0.00    +0.000 A 
ATOM     28  C   UNL     1       2.144   8.781  17.735  0.00  0.00    +0.000 A 
BRANCH  26  29
ATOM     29  N   UNL     1       1.147  12.087  19.183  0.00  0.00    +0.000 N 
ATOM     30  C   UNL     1      -0.009  12.842  18.986  0.00  0.00    +0.000 C 
ATOM     31  C   UNL     1       0.024  14.314  19.402  0.00  0.00    +0.000 C 
ATOM     32  O   UNL     1      -1.059  12.405  18.509  0.00  0.00    +0.000 OA
ATOM     33  H   UNL     1       1.963  12.563  19.542  0.00  0.00    +0.000 HD
ENDBRANCH  26  29
ENDBRANCH  21  23
ENDBRANCH   4  21
TORSDOF 7
ENDMDL
MODEL 4
REMARK VINA RESULT:      -7.9      4.784      7.482
REMARK  Name = 
REMARK  8 active torsions:
REMARK  status: ('A' for Active; 'I' for Inactive)
REMARK    1  A    between atoms: C_2  and  C_3
REMARK    2  A    between atoms: C_3  and  O_4
REMARK    3  A    between atoms: O_4  and  C_5
REMARK    4  A    between atoms: C_8  and  C_9
REMARK    5  A    between atoms: C_12  and  N_13
REMARK    6  A    between atoms: N_13  and  C_14
REMARK    7  A    between atoms: C_17  and  N_18
REMARK    8  A    between atoms: C_19  and  C_20
REMARK                            x       y       z     vdW  Elec       q    Type
REMARK                         _______ _______ _______ _____ _____    ______ ____
ROOT
ATOM      1  C   UNL     1       7.320   7.399  17.362  0.00  0.00    +0.000 A 
ATOM      2  N   UNL     1       7.281   6.689  18.534  0.00  0.00    +0.000 NA
ATOM      3  N   UNL     1       6.267   5.854  18.822  0.00  0.00    +0.000 NA
ATOM      4  C   UNL     1       5.439   5.686  17.837  0.00  0.00    +0.000 A 
ATOM      5  C   UNL     1       6.232   5.493  16.678  0.00  0.00    +0.000 A 
ATOM      6  C   UNL     1       6.906   4.218  16.044  0.00  0.00    +0.000 A 
ATOM      7  C   UNL     1       6.448   3.661  14.840  0.00  0.00    +0.000 A 
ATOM      8  C   UNL     1       5.392   4.350  14.392  0.00  0.00    +0.000 A 
ATOM      9  C   UNL     1       5.359   5.780  14.901  0.00  0.00    +0.000 A 
ATOM     10  C   UNL     1       6.335   6.590  16.121  0.00  0.00    +0.000 A 
ENDROOT
BRANCH   1  14
ATOM     11  C   UNL     1       9.574  11.867  18.834  0.00  0.00    +0.000 A 
ATOM     12  C   UNL     1       9.676  10.705  19.597  0.00  0.00    +0.000 A 
ATOM     13  C   UNL     1       9.074   9.202  19.242  0.00  0.00    +0.000 A 
ATOM     14  C   UNL     1       8.267   8.787  18.102  0.00  0.00    +0.000 A 
ATOM     15  C   UNL     1       8.078  10.136  17.503  0.00  0.00    +0.000 A 
ATOM     16  C   UNL     1       8.655  11.569  17.825  0.00  0.00    +0.000 A 
BRANCH  11  17
ATOM     17  O   UNL     1      10.058  13.161  19.106  0.00  0.00    +0.000 OA
BRANCH  17  18
ATOM     18  C   UNL     1      10.858  13.650  20.378  0.00  0.00    +0.000 C 
BRANCH  18  20
ATOM     19  C   UNL     1       9.203  14.402  22.538  0.00  0.00    +0.000 C 
ATOM     20  C   UNL     1       9.967  14.055  21.541  0.00  0.00    +0.000 C 
ENDBRANCH  18  20
ENDBRANCH  17  18
ENDBRANCH  11  17
ENDBRANCH   1  14
BRANCH   4  21
ATOM     21  N   UNL     1       4.365   6.733  17.702  0.00  0.00    +0.000 N 
ATOM     22  H   UNL     1       4.313   7.208  16.808  0.00  0.00    +0.000 HD
BRANCH  21  23
ATOM     23  C   UNL     1       3.273   7.048  18.538  0.00  0.00    +0.000 A 
ATOM     24  C   UNL     1       2.887   6.230  19.613  0.00  0.00    +0.000 A 
ATOM     25  C   UNL     1       1.844   6.625  20.491  0.00  0.00    +0.000 A 
ATOM     26  C   UNL     1       1.200   7.859  20.347  0.00  0.00    +0.000 A 
ATOM     27  C   UNL     1       1.512   8.596  19.195  0.00  0.00    +0.000 A 
ATOM     28  C   UNL     1       2.521   8.187  18.307  0.00  0.00    +0.000 A 
BRANCH  26  29
ATOM     29  N   UNL     1       0.330   8.447  21.332  0.00  0.00    +0.000 N 
ATOM     30  C   UNL     1       0.721   9.248  22.405  0.00  0.00    +0.000 C 
ATOM     31  C   UNL     1      -0.376   9.955  23.202  0.00  0.00    +0.000 C 
ATOM     32  O   UNL     1       1.891   9.432  22.750  0.00  0.00    +0.000 OA
ATOM     33  H   UNL     1      -0.662   8.335  21.168  0.00  0.00    +0.000 HD
ENDBRANCH  26  29
ENDBRANCH  21  23
ENDBRANCH   4  21
TORSDOF 7
ENDMDL
MODEL 5
REMARK VINA RESULT:      -7.8      4.733      8.672
REMARK  Name = 
REMARK  8 active torsions:
REMARK  status: ('A' for Active; 'I' for Inactive)
REMARK    1  A    between atoms: C_2  and  C_3
REMARK    2  A    between atoms: C_3  and  O_4
REMARK    3  A    between atoms: O_4  and  C_5
REMARK    4  A    between atoms: C_8  and  C_9
REMARK    5  A    between atoms: C_12  and  N_13
REMARK    6  A    between atoms: N_13  and  C_14
REMARK    7  A    between atoms: C_17  and  N_18
REMARK    8  A    between atoms: C_19  and  C_20
REMARK                            x       y       z     vdW  Elec       q    Type
REMARK                         _______ _______ _______ _____ _____    ______ ____
ROOT
ATOM      1  C   UNL     1      -0.750  11.225  20.857  0.00  0.00    +0.000 A 
ATOM      2  N   UNL     1       0.185  11.710  21.734  0.00  0.00    +0.000 NA
ATOM      3  N   UNL     1       0.248  13.015  22.051  0.00  0.00    +0.000 NA
ATOM      4  C   UNL     1      -0.736  13.712  21.571  0.00  0.00    +0.000 A 
ATOM      5  C   UNL     1      -1.913  12.961  21.815  0.00  0.00    +0.000 A 
ATOM      6  C   UNL     1      -2.877  12.857  23.056  0.00  0.00    +0.000 A 
ATOM      7  C   UNL     1      -4.181  13.374  23.025  0.00  0.00    +0.000 A 
ATOM      8  C   UNL     1      -4.413  13.954  21.841  0.00  0.00    +0.000 A 
ATOM      9  C   UNL     1      -3.535  13.404  20.731  0.00  0.00    +0.000 A 
ATOM     10  C   UNL     1      -2.153  12.317  20.788  0.00  0.00    +0.000 A 
ENDROOT
BRANCH   1  14
ATOM     11  C   UNL     1       2.391   7.816  18.464  0.00  0.00    +0.000 A 
ATOM     12  C   UNL     1       2.096   7.717  19.823  0.00  0.00    +0.000 A 
ATOM     13  C   UNL     1       1.078   8.676  20.713  0.00  0.00    +0.000 A 
ATOM     14  C   UNL     1       0.328   9.851  20.290  0.00  0.00    +0.000 A 
ATOM     15  C   UNL     1       0.884   9.946  18.914  0.00  0.00    +0.000 A 
ATOM     16  C   UNL     1       1.844   9.034  18.053  0.00  0.00    +0.000 A 
BRANCH  11  17
ATOM     17  O   UNL     1       3.257   7.033  17.677  0.00  0.00    +0.000 OA
BRANCH  17  18
ATOM     18  C   UNL     1       3.701   5.536  17.921  0.00  0.00    +0.000 C 
BRANCH  18  20
ATOM     19  C   UNL     1       1.560   3.697  17.891  0.00  0.00    +0.000 C 
ATOM     20  C   UNL     1       2.549   4.546  17.905  0.00  0.00    +0.000 C 
ENDBRANCH  18  20
ENDBRANCH  17  18
ENDBRANCH  11  17
ENDBRANCH   1  14
BRANCH   4  21
ATOM     21  N   UNL     1      -0.570  14.184  20.151  0.00  0.00    +0.000 N 
ATOM     22  H   UNL     1      -1.410  14.506  19.684  0.00  0.00    +0.000 HD
BRANCH  21  23
ATOM     23  C   UNL     1       0.593  14.448  19.396  0.00  0.00    +0.000 A 
ATOM     24  C   UNL     1       1.194  15.717  19.358  0.00  0.00    +0.000 A 
ATOM     25  C   UNL     1       2.416  15.925  18.666  0.00  0.00    +0.000 A 
ATOM     26  C   UNL     1       3.087  14.867  18.041  0.00  0.00    +0.000 A 
ATOM     27  C   UNL     1       2.405  13.643  17.982  0.00  0.00    +0.000 A 
ATOM     28  C   UNL     1       1.178  13.448  18.639  0.00  0.00    +0.000 A 
BRANCH  26  29
ATOM     29  N   UNL     1       4.440  14.932  17.553  0.00  0.00    +0.000 N 
ATOM     30  C   UNL     1       5.599  14.898  18.327  0.00  0.00    +0.000 C 
ATOM     31  C   UNL     1       6.936  14.753  17.600  0.00  0.00    +0.000 C 
ATOM     32  O   UNL     1       5.620  14.968  19.558  0.00  0.00    +0.000 OA
ATOM     33  H   UNL     1       4.547  14.910  16.547  0.00  0.00    +0.000 HD
ENDBRANCH  26  29
ENDBRANCH  21  23
ENDBRANCH   4  21
TORSDOF 7
ENDMDL
MODEL 6
REMARK VINA RESULT:      -7.7      5.030      8.774
REMARK  Name = 
REMARK  8 active torsions:
REMARK  status: ('A' for Active; 'I' for Inactive)
REMARK    1  A    between atoms: C_2  and  C_3
REMARK    2  A    between atoms: C_3  and  O_4
REMARK    3  A    between atoms: O_4  and  C_5
REMARK    4  A    between atoms: C_8  and  C_9
REMARK    5  A    between atoms: C_12  and  N_13
REMARK    6  A    between atoms: N_13  and  C_14
REMARK    7  A    between atoms: C_17  and  N_18
REMARK    8  A    between atoms: C_19  and  C_20
REMARK                            x       y       z     vdW  Elec       q    Type
REMARK                         _______ _______ _______ _____ _____    ______ ____
ROOT
ATOM      1  C   UNL     1      -0.572  11.160  20.633  0.00  0.00    +0.000 A 
ATOM      2  N   UNL     1       0.323  11.624  21.562  0.00  0.00    +0.000 NA
ATOM      3  N   UNL     1       0.316  12.904  21.973  0.00  0.00    +0.000 NA
ATOM      4  C   UNL     1      -0.691  13.587  21.523  0.00  0.00    +0.000 A 
ATOM      5  C   UNL     1      -1.834  12.765  21.687  0.00  0.00    +0.000 A 
ATOM      6  C   UNL     1      -2.815  12.527  22.897  0.00  0.00    +0.000 A 
ATOM      7  C   UNL     1      -4.142  12.983  22.874  0.00  0.00    +0.000 A 
ATOM      8  C   UNL     1      -4.380  13.635  21.730  0.00  0.00    +0.000 A 
ATOM      9  C   UNL     1      -3.457  13.209  20.603  0.00  0.00    +0.000 A 
ATOM     10  C   UNL     1      -2.025  12.187  20.612  0.00  0.00    +0.000 A 
ENDROOT
BRANCH   1  14
ATOM     11  C   UNL     1       2.483   7.063  19.584  0.00  0.00    +0.000 A 
ATOM     12  C   UNL     1       2.215   8.045  18.631  0.00  0.00    +0.000 A 
ATOM     13  C   UNL     1       1.321   9.427  18.822  0.00  0.00    +0.000 A 
ATOM     14  C   UNL     1       0.581   9.882  19.992  0.00  0.00    +0.000 A 
ATOM     15  C   UNL     1       0.790   8.672  20.831  0.00  0.00    +0.000 A 
ATOM     16  C   UNL     1       1.647   7.357  20.664  0.00  0.00    +0.000 A 
BRANCH  11  17
ATOM     17  O   UNL     1       3.224   5.873  19.458  0.00  0.00    +0.000 OA
BRANCH  17  18
ATOM     18  C   UNL     1       2.769   4.513  18.794  0.00  0.00    +0.000 C 
BRANCH  18  20
ATOM     19  C   UNL     1       1.067   2.964  20.429  0.00  0.00    +0.000 C 
ATOM     20  C   UNL     1       1.852   3.679  19.674  0.00  0.00    +0.000 C 
ENDBRANCH  18  20
ENDBRANCH  17  18
ENDBRANCH  11  17
ENDBRANCH   1  14
BRANCH   4  21
ATOM     21  N   UNL     1      -0.522  14.168  20.144  0.00  0.00    +0.000 N 
ATOM     22  H   UNL     1      -1.350  14.576  19.725  0.00  0.00    +0.000 HD
BRANCH  21  23
ATOM     23  C   UNL     1       0.641  14.427  19.388  0.00  0.00    +0.000 A 
ATOM     24  C   UNL     1       1.252  15.692  19.357  0.00  0.00    +0.000 A 
ATOM     25  C   UNL     1       2.473  15.895  18.663  0.00  0.00    +0.000 A 
ATOM     26  C   UNL     1       3.134  14.836  18.030  0.00  0.00    +0.000 A 
ATOM     27  C   UNL     1       2.443  13.618  17.965  0.00  0.00    +0.000 A 
ATOM     28  C   UNL     1       1.217  13.428  18.623  0.00  0.00    +0.000 A 
BRANCH  26  29
ATOM     29  N   UNL     1       4.487  14.893  17.538  0.00  0.00    +0.000 N 
ATOM     30  C   UNL     1       5.647  14.881  18.312  0.00  0.00    +0.000 C 
ATOM     31  C   UNL     1       6.984  14.724  17.587  0.00  0.00    +0.000 C 
ATOM     32  O   UNL     1       5.669  14.981  19.541  0.00  0.00    +0.000 OA
ATOM     33  H   UNL     1       4.593  14.848  16.533  0.00  0.00    +0.000 HD
ENDBRANCH  26  29
ENDBRANCH  21  23
ENDBRANCH   4  21
TORSDOF 7
ENDMDL
MODEL 7
REMARK VINA RESULT:      -7.7      4.673      7.960
REMARK  Name = 
REMARK  8 active torsions:
REMARK  status: ('A' for Active; 'I' for Inactive)
REMARK    1  A    between atoms: C_2  and  C_3
REMARK    2  A    between atoms: C_3  and  O_4
REMARK    3  A    between atoms: O_4  and  C_5
REMARK    4  A    between atoms: C_8  and  C_9
REMARK    5  A    between atoms: C_12  and  N_13
REMARK    6  A    between atoms: N_13  and  C_14
REMARK    7  A    between atoms: C_17  and  N_18
REMARK    8  A    between atoms: C_19  and  C_20
REMARK                            x       y       z     vdW  Elec       q    Type
REMARK                         _______ _______ _______ _____ _____    ______ ____
ROOT
ATOM      1  C   UNL     1       1.061   9.635  19.788  0.00  0.00    +0.000 A 
ATOM      2  N   UNL     1       1.426  10.377  18.694  0.00  0.00    +0.000 NA
ATOM      3  N   UNL     1       0.634  11.342  18.197  0.00  0.00    +0.000 NA
ATOM      4  C   UNL     1      -0.407  11.588  18.933  0.00  0.00    +0.000 A 
ATOM      5  C   UNL     1       0.056  11.645  20.271  0.00  0.00    +0.000 A 
ATOM      6  C   UNL     1       0.674  12.805  21.140  0.00  0.00    +0.000 A 
ATOM      7  C   UNL     1      -0.028  13.383  22.209  0.00  0.00    +0.000 A 
ATOM      8  C   UNL     1      -1.239  12.823  22.314  0.00  0.00    +0.000 A 
ATOM      9  C   UNL     1      -1.297  11.424  21.728  0.00  0.00    +0.000 A 
ATOM     10  C   UNL     1      -0.126  10.529  20.767  0.00  0.00    +0.000 A 
ENDROOT
BRANCH   1  14
ATOM     11  C   UNL     1       3.527   5.093  19.078  0.00  0.00    +0.000 A 
ATOM     12  C   UNL     1       3.310   5.985  18.028  0.00  0.00    +0.000 A 
ATOM     13  C   UNL     1       2.602   7.482  18.099  0.00  0.00    +0.000 A 
ATOM     14  C   UNL     1       2.006   8.158  19.244  0.00  0.00    +0.000 A 
ATOM     15  C   UNL     1       2.129   7.035  20.212  0.00  0.00    +0.000 A 
ATOM     16  C   UNL     1       2.811   5.612  20.159  0.00  0.00    +0.000 A 
BRANCH  11  17
ATOM     17  O   UNL     1       4.110   3.813  19.056  0.00  0.00    +0.000 OA
BRANCH  17  18
ATOM     18  C   UNL     1       3.388   2.420  18.864  0.00  0.00    +0.000 C 
BRANCH  18  20
ATOM     19  C   UNL     1       0.573   2.605  18.768  0.00  0.00    +0.000 C 
ATOM     20  C   UNL     1       1.872   2.520  18.812  0.00  0.00    +0.000 C 
ENDBRANCH  18  20
ENDBRANCH  17  18
ENDBRANCH  11  17
ENDBRANCH   1  14
BRANCH   4  21
ATOM     21  N   UNL     1      -1.591  10.684  18.710  0.00  0.00    +0.000 N 
ATOM     22  H   UNL     1      -1.956  10.215  19.532  0.00  0.00    +0.000 HD
BRANCH  21  23
ATOM     23  C   UNL     1      -2.423  10.513  17.584  0.00  0.00    +0.000 A 
ATOM     24  C   UNL     1      -3.543  11.326  17.345  0.00  0.00    +0.000 A 
ATOM     25  C   UNL     1      -4.303  11.189  16.154  0.00  0.00    +0.000 A 
ATOM     26  C   UNL     1      -3.936  10.276  15.158  0.00  0.00    +0.000 A 
ATOM     27  C   UNL     1      -2.896   9.390  15.475  0.00  0.00    +0.000 A 
ATOM     28  C   UNL     1      -2.166   9.505  16.671  0.00  0.00    +0.000 A 
BRANCH  26  29
ATOM     29  N   UNL     1      -4.482  10.256  13.826  0.00  0.00    +0.000 N 
ATOM     30  C   UNL     1      -3.851   9.766  12.683  0.00  0.00    +0.000 C 
ATOM     31  C   UNL     1      -4.688   9.631  11.411  0.00  0.00    +0.000 C 
ATOM     32  O   UNL     1      -2.666   9.426  12.629  0.00  0.00    +0.000 OA
ATOM     33  H   UNL     1      -5.448  10.544  13.741  0.00  0.00    +0.000 HD
ENDBRANCH  26  29
ENDBRANCH  21  23
ENDBRANCH   4  21
TORSDOF 7
ENDMDL
MODEL 8
REMARK VINA RESULT:      -7.6      3.994      8.235
REMARK  Name = 
REMARK  8 active torsions:
REMARK  status: ('A' for Active; 'I' for Inactive)
REMARK    1  A    between atoms: C_2  and  C_3
REMARK    2  A    between atoms: C_3  and  O_4
REMARK    3  A    between atoms: O_4  and  C_5
REMARK    4  A    between atoms: C_8  and  C_9
REMARK    5  A    between atoms: C_12  and  N_13
REMARK    6  A    between atoms: N_13  and  C_14
REMARK    7  A    between atoms: C_17  and  N_18
REMARK    8  A    between atoms: C_19  and  C_20
REMARK                            x       y       z     vdW  Elec       q    Type
REMARK                         _______ _______ _______ _____ _____    ______ ____
ROOT
ATOM      1  C   UNL     1      -0.290  10.872  20.497  0.00  0.00    +0.000 A 
ATOM      2  N   UNL     1       0.623  11.309  21.422  0.00  0.00    +0.000 NA
ATOM      3  N   UNL     1       0.622  12.575  21.874  0.00  0.00    +0.000 NA
ATOM      4  C   UNL     1      -0.396  13.270  21.467  0.00  0.00    +0.000 A 
ATOM      5  C   UNL     1      -1.534  12.440  21.628  0.00  0.00    +0.000 A 
ATOM      6  C   UNL     1      -2.489  12.160  22.849  0.00  0.00    +0.000 A 
ATOM      7  C   UNL     1      -3.817  12.613  22.868  0.00  0.00    +0.000 A 
ATOM      8  C   UNL     1      -4.080  13.301  21.751  0.00  0.00    +0.000 A 
ATOM      9  C   UNL     1      -3.179  12.914  20.592  0.00  0.00    +0.000 A 
ATOM     10  C   UNL     1      -1.745  11.896  20.539  0.00  0.00    +0.000 A 
ENDROOT
BRANCH   1  14
ATOM     11  C   UNL     1       2.765   6.828  19.263  0.00  0.00    +0.000 A 
ATOM     12  C   UNL     1       2.457   7.826  18.340  0.00  0.00    +0.000 A 
ATOM     13  C   UNL     1       1.557   9.196  18.589  0.00  0.00    +0.000 A 
ATOM     14  C   UNL     1       0.852   9.620  19.792  0.00  0.00    +0.000 A 
ATOM     15  C   UNL     1       1.101   8.395  20.599  0.00  0.00    +0.000 A 
ATOM     16  C   UNL     1       1.964   7.092  20.376  0.00  0.00    +0.000 A 
BRANCH  11  17
ATOM     17  O   UNL     1       3.512   5.648  19.088  0.00  0.00    +0.000 OA
BRANCH  17  18
ATOM     18  C   UNL     1       3.475   4.649  17.864  0.00  0.00    +0.000 C 
BRANCH  18  20
ATOM     19  C   UNL     1       5.328   5.278  15.829  0.00  0.00    +0.000 C 
ATOM     20  C   UNL     1       4.473   4.988  16.768  0.00  0.00    +0.000 C 
ENDBRANCH  18  20
ENDBRANCH  17  18
ENDBRANCH  11  17
ENDBRANCH   1  14
BRANCH   4  21
ATOM     21  N   UNL     1      -0.257  13.895  20.104  0.00  0.00    +0.000 N 
ATOM     22  H   UNL     1      -1.104  14.274  19.696  0.00  0.00    +0.000 HD
BRANCH  21  23
ATOM     23  C   UNL     1       0.892  14.231  19.356  0.00  0.00    +0.000 A 
ATOM     24  C   UNL     1       1.380  15.545  19.276  0.00  0.00    +0.000 A 
ATOM     25  C   UNL     1       2.591  15.833  18.593  0.00  0.00    +0.000 A 
ATOM     26  C   UNL     1       3.362  14.815  18.021  0.00  0.00    +0.000 A 
ATOM     27  C   UNL     1       2.791  13.534  18.001  0.00  0.00    +0.000 A 
ATOM     28  C   UNL     1       1.575  13.258  18.648  0.00  0.00    +0.000 A 
BRANCH  26  29
ATOM     29  N   UNL     1       4.713  14.980  17.549  0.00  0.00    +0.000 N 
ATOM     30  C   UNL     1       5.868  14.957  18.330  0.00  0.00    +0.000 C 
ATOM     31  C   UNL     1       7.215  14.926  17.607  0.00  0.00    +0.000 C 
ATOM     32  O   UNL     1       5.879  14.950  19.563  0.00  0.00    +0.000 OA
ATOM     33  H   UNL     1       4.826  15.027  16.545  0.00  0.00    +0.000 HD
ENDBRANCH  26  29
ENDBRANCH  21  23
ENDBRANCH   4  21
TORSDOF 7
ENDMDL
MODEL 9
REMARK VINA RESULT:      -7.4      0.977      1.322
REMARK  Name = 
REMARK  8 active torsions:
REMARK  status: ('A' for Active; 'I' for Inactive)
REMARK    1  A    between atoms: C_2  and  C_3
REMARK    2  A    between atoms: C_3  and  O_4
REMARK    3  A    between atoms: O_4  and  C_5
REMARK    4  A    between atoms: C_8  and  C_9
REMARK    5  A    between atoms: C_12  and  N_13
REMARK    6  A    between atoms: N_13  and  C_14
REMARK    7  A    between atoms: C_17  and  N_18
REMARK    8  A    between atoms: C_19  and  C_20
REMARK                            x       y       z     vdW  Elec       q    Type
REMARK                         _______ _______ _______ _____ _____    ______ ____
ROOT
ATOM      1  C   UNL     1       4.215   4.318  17.861  0.00  0.00    +0.000 A 
ATOM      2  N   UNL     1       5.025   5.069  18.673  0.00  0.00    +0.000 NA
ATOM      3  N   UNL     1       4.523   5.848  19.647  0.00  0.00    +0.000 NA
ATOM      4  C   UNL     1       3.247   5.697  19.825  0.00  0.00    +0.000 A 
ATOM      5  C   UNL     1       3.006   4.300  19.815  0.00  0.00    +0.000 A 
ATOM      6  C   UNL     1       3.074   3.196  20.936  0.00  0.00    +0.000 A 
ATOM      7  C   UNL     1       1.917   2.576  21.435  0.00  0.00    +0.000 A 
ATOM      8  C   UNL     1       0.833   3.090  20.842  0.00  0.00    +0.000 A 
ATOM      9  C   UNL     1       1.132   3.686  19.478  0.00  0.00    +0.000 A 
ATOM     10  C   UNL     1       2.663   3.998  18.668  0.00  0.00    +0.000 A 
ENDROOT
BRANCH   1  14
ATOM     11  C   UNL     1       6.831   4.122  13.351  0.00  0.00    +0.000 A 
ATOM     12  C   UNL     1       7.283   4.877  14.432  0.00  0.00    +0.000 A 
ATOM     13  C   UNL     1       6.606   4.997  15.940  0.00  0.00    +0.000 A 
ATOM     14  C   UNL     1       5.376   4.396  16.440  0.00  0.00    +0.000 A 
ATOM     15  C   UNL     1       4.918   3.805  15.154  0.00  0.00    +0.000 A 
ATOM     16  C   UNL     1       5.559   3.675  13.717  0.00  0.00    +0.000 A 
BRANCH  11  17
ATOM     17  O   UNL     1       7.368   4.004  12.055  0.00  0.00    +0.000 OA
BRANCH  17  18
ATOM     18  C   UNL     1       6.747   3.253  10.811  0.00  0.00    +0.000 C 
BRANCH  18  20
ATOM     19  C   UNL     1       6.290   0.503  11.258  0.00  0.00    +0.000 C 
ATOM     20  C   UNL     1       6.501   1.773  11.052  0.00  0.00    +0.000 C 
ENDBRANCH  18  20
ENDBRANCH  17  18
ENDBRANCH  11  17
ENDBRANCH   1  14
BRANCH   4  21
ATOM     21  N   UNL     1       2.361   6.498  18.908  0.00  0.00    +0.000 N 
ATOM     22  H   UNL     1       1.807   5.968  18.244  0.00  0.00    +0.000 HD
BRANCH  21  23
ATOM     23  C   UNL     1       2.005   7.864  18.929  0.00  0.00    +0.000 A 
ATOM     24  C   UNL     1       2.182   8.705  17.818  0.00  0.00    +0.000 A 
ATOM     25  C   UNL     1       1.726  10.048  17.841  0.00  0.00    +0.000 A 
ATOM     26  C   UNL     1       1.044  10.566  18.948  0.00  0.00    +0.000 A 
ATOM     27  C   UNL     1       0.995   9.751  20.089  0.00  0.00    +0.000 A 
ATOM     28  C   UNL     1       1.478   8.432  20.075  0.00  0.00    +0.000 A 
BRANCH  26  29
ATOM     29  N   UNL     1       0.325  11.814  18.956  0.00  0.00    +0.000 N 
ATOM     30  C   UNL     1       0.845  13.064  19.290  0.00  0.00    +0.000 C 
ATOM     31  C   UNL     1      -0.025  14.292  19.017  0.00  0.00    +0.000 C 
ATOM     32  O   UNL     1       1.961  13.248  19.781  0.00  0.00    +0.000 OA
ATOM     33  H   UNL     1      -0.621  11.779  18.598  0.00  0.00    +0.000 HD
ENDBRANCH  26  29
ENDBRANCH  21  23
ENDBRANCH   4  21
TORSDOF 7
ENDMDL
