MODEL 1
REMARK VINA RESULT:      -7.3      0.000      0.000
REMARK  Name = 
REMARK  2 active torsions:
REMARK  status: ('A' for Active; 'I' for Inactive)
REMARK    1  A    between atoms: C_2  and  OXT_3
REMARK    2  A    between atoms: C_2  and  CA_4
REMARK                            x       y       z     vdW  Elec       q    Type
REMARK                         _______ _______ _______ _____ _____    ______ ____
ROOT
ATOM      1  CA  UNL     1       5.595   4.316  15.430  0.00  0.00    +0.000 A 
ATOM      2  C   UNL     1       4.628   5.255  15.468  0.00  0.00    +0.000 A 
ATOM      3  C   UNL     1       4.644   5.712  16.893  0.00  0.00    +0.000 A 
ATOM      4  O   UNL     1       5.133   6.781  17.219  0.00  0.00    +0.000 OA
ATOM      5  C   UNL     1       4.265   4.663  17.853  0.00  0.00    +0.000 A 
ATOM      6  C   UNL     1       3.355   4.803  18.885  0.00  0.00    +0.000 A 
ATOM      7  C   UNL     1       2.992   3.607  19.533  0.00  0.00    +0.000 A 
ATOM      8  C   UNL     1       3.548   2.356  19.272  0.00  0.00    +0.000 A 
ATOM      9  C   UNL     1       4.537   2.272  18.286  0.00  0.00    +0.000 A 
ATOM     10  C   UNL     1       4.860   3.411  17.539  0.00  0.00    +0.000 A 
ATOM     11  N   UNL     1       5.819   3.367  16.463  0.00  0.00    +0.000 N 
ATOM     12  S   UNL     1       1.688   3.934  20.679  0.00  0.00    +0.000 S 
ATOM     13  O   UNL     1       0.466   3.393  20.128  0.00  0.00    +0.000 OA
ATOM     14  O   UNL     1       2.177   3.655  22.011  0.00  0.00    +0.000 OA
ATOM     15  C   UNL     1       1.712   5.671  20.408  0.00  0.00    +0.000 A 
ATOM     16  C   UNL     1       0.975   6.612  21.107  0.00  0.00    +0.000 A 
ATOM     17  C   UNL     1       1.182   7.951  20.785  0.00  0.00    +0.000 A 
ATOM     18  C   UNL     1       2.100   8.306  19.789  0.00  0.00    +0.000 A 
ATOM     19  C   UNL     1       2.827   7.327  19.102  0.00  0.00    +0.000 A 
ATOM     20  C   UNL     1       2.651   5.983  19.407  0.00  0.00    +0.000 A 
ATOM     21  H   UNL     1       6.740   3.562  16.883  0.00  0.00    +0.000 HD
ENDROOT
BRANCH   1  23
ATOM     22  O   UNL     1       6.634   4.154  13.254  0.00  0.00    +0.000 OA
ATOM     23  C   UNL     1       6.625   4.603  14.383  0.00  0.00    +0.000 C 
BRANCH  23  24
ATOM     24  OXT UNL     1       7.564   5.458  14.837  0.00  0.00    +0.000 OA
ATOM     25  HXT UNL     1       8.430   5.026  14.943  0.00  0.00    +0.000 HD
ENDBRANCH  23  24
ENDBRANCH   1  23
TORSDOF 2
ENDMDL
MODEL 2
REMARK VINA RESULT:      -7.2      9.052     10.313
REMARK  Name = 
REMARK  2 active torsions:
REMARK  status: ('A' for Active; 'I' for Inactive)
REMARK    1  A    between atoms: C_2  and  OXT_3
REMARK    2  A    between atoms: C_2  and  CA_4
REMARK                            x       y       z     vdW  Elec       q    Type
REMARK                         _______ _______ _______ _____ _____    ______ ____
ROOT
ATOM      1  CA  UNL     1      -2.754  10.761  16.659  0.00  0.00    +0.000 A 
ATOM      2  C   UNL     1      -3.597  10.360  17.632  0.00  0.00    +0.000 A 
ATOM      3  C   UNL     1      -3.795  11.596  18.452  0.00  0.00    +0.000 A 
ATOM      4  O   UNL     1      -4.822  12.251  18.388  0.00  0.00    +0.000 OA
ATOM      5  C   UNL     1      -2.567  12.068  19.111  0.00  0.00    +0.000 A 
ATOM      6  C   UNL     1      -2.454  12.435  20.440  0.00  0.00    +0.000 A 
ATOM      7  C   UNL     1      -1.139  12.642  20.897  0.00  0.00    +0.000 A 
ATOM      8  C   UNL     1       0.002  12.599  20.097  0.00  0.00    +0.000 A 
ATOM      9  C   UNL     1      -0.164  12.319  18.735  0.00  0.00    +0.000 A 
ATOM     10  C   UNL     1      -1.438  12.002  18.250  0.00  0.00    +0.000 A 
ATOM     11  N   UNL     1      -1.657  11.637  16.872  0.00  0.00    +0.000 N 
ATOM     12  S   UNL     1      -1.160  12.906  22.643  0.00  0.00    +0.000 S 
ATOM     13  O   UNL     1      -0.636  11.717  23.279  0.00  0.00    +0.000 OA
ATOM     14  O   UNL     1      -0.686  14.247  22.903  0.00  0.00    +0.000 OA
ATOM     15  C   UNL     1      -2.915  12.881  22.755  0.00  0.00    +0.000 A 
ATOM     16  C   UNL     1      -3.660  13.154  23.890  0.00  0.00    +0.000 A 
ATOM     17  C   UNL     1      -5.047  13.147  23.759  0.00  0.00    +0.000 A 
ATOM     18  C   UNL     1      -5.639  12.867  22.522  0.00  0.00    +0.000 A 
ATOM     19  C   UNL     1      -4.853  12.594  21.396  0.00  0.00    +0.000 A 
ATOM     20  C   UNL     1      -3.468  12.605  21.491  0.00  0.00    +0.000 A 
ATOM     21  H   UNL     1      -1.842  12.513  16.363  0.00  0.00    +0.000 HD
ENDROOT
BRANCH   1  23
ATOM     22  O   UNL     1      -2.639  10.258  14.297  0.00  0.00    +0.000 OA
ATOM     23  C   UNL     1      -3.298  10.493  15.290  0.00  0.00    +0.000 C 
BRANCH  23  24
ATOM     24  OXT UNL     1      -4.646  10.526  15.281  0.00  0.00    +0.000 OA
ATOM     25  HXT UNL     1      -5.020  10.467  16.178  0.00  0.00    +0.000 HD
ENDBRANCH  23  24
ENDBRANCH   1  23
TORSDOF 2
ENDMDL
MODEL 3
REMARK VINA RESULT:      -6.9      9.258     10.598
REMARK  Name = 
REMARK  2 active torsions:
REMARK  status: ('A' for Active; 'I' for Inactive)
REMARK    1  A    between atoms: C_2  and  OXT_3
REMARK    2  A    between atoms: C_2  and  CA_4
REMARK                            x       y       z     vdW  Elec       q    Type
REMARK                         _______ _______ _______ _____ _____    ______ ____
ROOT
ATOM      1  CA  UNL     1      -2.947  10.479  16.111  0.00  0.00    +0.000 A 
ATOM      2  C   UNL     1      -3.912  10.038  16.945  0.00  0.00    +0.000 A 
ATOM      3  C   UNL     1      -4.350  11.280  17.656  0.00  0.00    +0.000 A 
ATOM      4  O   UNL     1      -5.400  11.837  17.386  0.00  0.00    +0.000 OA
ATOM      5  C   UNL     1      -3.299  11.883  18.491  0.00  0.00    +0.000 A 
ATOM      6  C   UNL     1      -3.451  12.305  19.799  0.00  0.00    +0.000 A 
ATOM      7  C   UNL     1      -2.257  12.644  20.464  0.00  0.00    +0.000 A 
ATOM      8  C   UNL     1      -0.994  12.675  19.874  0.00  0.00    +0.000 A 
ATOM      9  C   UNL     1      -0.896  12.335  18.519  0.00  0.00    +0.000 A 
ATOM     10  C   UNL     1      -2.036  11.888  17.840  0.00  0.00    +0.000 A 
ATOM     11  N   UNL     1      -1.980  11.456  16.465  0.00  0.00    +0.000 N 
ATOM     12  S   UNL     1      -2.604  12.967  22.166  0.00  0.00    +0.000 S 
ATOM     13  O   UNL     1      -2.103  11.852  22.940  0.00  0.00    +0.000 OA
ATOM     14  O   UNL     1      -2.294  14.353  22.435  0.00  0.00    +0.000 OA
ATOM     15  C   UNL     1      -4.343  12.789  21.977  0.00  0.00    +0.000 A 
ATOM     16  C   UNL     1      -5.295  13.034  22.953  0.00  0.00    +0.000 A 
ATOM     17  C   UNL     1      -6.632  12.897  22.587  0.00  0.00    +0.000 A 
ATOM     18  C   UNL     1      -6.974  12.523  21.283  0.00  0.00    +0.000 A 
ATOM     19  C   UNL     1      -5.984  12.282  20.322  0.00  0.00    +0.000 A 
ATOM     20  C   UNL     1      -4.642  12.420  20.652  0.00  0.00    +0.000 A 
ATOM     21  H   UNL     1      -2.145  12.294  15.888  0.00  0.00    +0.000 HD
ENDROOT
BRANCH   1  23
ATOM     22  O   UNL     1      -2.381   9.920  13.829  0.00  0.00    +0.000 OA
ATOM     23  C   UNL     1      -3.220  10.116  14.685  0.00  0.00    +0.000 C 
BRANCH  23  24
ATOM     24  OXT UNL     1      -4.544  10.010  14.449  0.00  0.00    +0.000 OA
ATOM     25  HXT UNL     1      -4.730   9.549  13.611  0.00  0.00    +0.000 HD
ENDBRANCH  23  24
ENDBRANCH   1  23
TORSDOF 2
ENDMDL
MODEL 4
REMARK VINA RESULT:      -6.9      0.918      1.225
REMARK  Name = 
REMARK  2 active torsions:
REMARK  status: ('A' for Active; 'I' for Inactive)
REMARK    1  A    between atoms: C_2  and  OXT_3
REMARK    2  A    between atoms: C_2  and  CA_4
REMARK                            x       y       z     vdW  Elec       q    Type
REMARK                         _______ _______ _______ _____ _____    ______ ____
ROOT
ATOM      1  CA  UNL     1       5.973   4.547  15.050  0.00  0.00    +0.000 A 
ATOM      2  C   UNL     1       4.954   5.419  14.906  0.00  0.00    +0.000 A 
ATOM      3  C   UNL     1       4.928   6.144  16.215  0.00  0.00    +0.000 A 
ATOM      4  O   UNL     1       5.353   7.281  16.327  0.00  0.00    +0.000 OA
ATOM      5  C   UNL     1       4.598   5.280  17.360  0.00  0.00    +0.000 A 
ATOM      6  C   UNL     1       3.670   5.565  18.345  0.00  0.00    +0.000 A 
ATOM      7  C   UNL     1       3.367   4.498  19.212  0.00  0.00    +0.000 A 
ATOM      8  C   UNL     1       3.996   3.254  19.199  0.00  0.00    +0.000 A 
ATOM      9  C   UNL     1       5.000   3.038  18.248  0.00  0.00    +0.000 A 
ATOM     10  C   UNL     1       5.266   4.027  17.294  0.00  0.00    +0.000 A 
ATOM     11  N   UNL     1       6.239   3.831  16.248  0.00  0.00    +0.000 N 
ATOM     12  S   UNL     1       2.035   4.965  20.273  0.00  0.00    +0.000 S 
ATOM     13  O   UNL     1       0.851   4.259  19.836  0.00  0.00    +0.000 OA
ATOM     14  O   UNL     1       2.523   4.978  21.633  0.00  0.00    +0.000 OA
ATOM     15  C   UNL     1       1.964   6.616  19.670  0.00  0.00    +0.000 A 
ATOM     16  C   UNL     1       1.166   7.631  20.173  0.00  0.00    +0.000 A 
ATOM     17  C   UNL     1       1.302   8.892  19.597  0.00  0.00    +0.000 A 
ATOM     18  C   UNL     1       2.210   9.098  18.552  0.00  0.00    +0.000 A 
ATOM     19  C   UNL     1       2.998   8.048  18.068  0.00  0.00    +0.000 A 
ATOM     20  C   UNL     1       2.895   6.781  18.627  0.00  0.00    +0.000 A 
ATOM     21  H   UNL     1       7.142   4.156  16.623  0.00  0.00    +0.000 HD
ENDROOT
BRANCH   1  23
ATOM     22  O   UNL     1       7.967   5.415  13.996  0.00  0.00    +0.000 OA
ATOM     23  C   UNL     1       6.997   4.685  13.968  0.00  0.00    +0.000 C 
BRANCH  23  24
ATOM     24  OXT UNL     1       6.726   3.870  12.927  0.00  0.00    +0.000 OA
ATOM     25  HXT UNL     1       7.133   2.991  13.036  0.00  0.00    +0.000 HD
ENDBRANCH  23  24
ENDBRANCH   1  23
TORSDOF 2
ENDMDL
MODEL 5
REMARK VINA RESULT:      -6.7      3.115      6.178
REMARK  Name = 
REMARK  2 active torsions:
REMARK  status: ('A' for Active; 'I' for Inactive)
REMARK    1  A    between atoms: C_2  and  OXT_3
REMARK    2  A    between atoms: C_2  and  CA_4
REMARK                            x       y       z     vdW  Elec       q    Type
REMARK                         _______ _______ _______ _____ _____    ______ ____
ROOT
ATOM      1  CA  UNL     1       0.920   8.116  21.068  0.00  0.00    +0.000 A 
ATOM      2  C   UNL     1       2.107   8.463  20.531  0.00  0.00    +0.000 A 
ATOM      3  C   UNL     1       2.152   7.685  19.254  0.00  0.00    +0.000 A 
ATOM      4  O   UNL     1       1.965   8.216  18.172  0.00  0.00    +0.000 OA
ATOM      5  C   UNL     1       2.177   6.227  19.452  0.00  0.00    +0.000 A 
ATOM      6  C   UNL     1       3.041   5.343  18.832  0.00  0.00    +0.000 A 
ATOM      7  C   UNL     1       3.025   4.031  19.341  0.00  0.00    +0.000 A 
ATOM      8  C   UNL     1       2.155   3.565  20.326  0.00  0.00    +0.000 A 
ATOM      9  C   UNL     1       1.230   4.468  20.861  0.00  0.00    +0.000 A 
ATOM     10  C   UNL     1       1.273   5.810  20.466  0.00  0.00    +0.000 A 
ATOM     11  N   UNL     1       0.391   6.798  21.037  0.00  0.00    +0.000 N 
ATOM     12  S   UNL     1       4.313   3.091  18.579  0.00  0.00    +0.000 S 
ATOM     13  O   UNL     1       5.361   2.899  19.557  0.00  0.00    +0.000 OA
ATOM     14  O   UNL     1       3.704   2.025  17.816  0.00  0.00    +0.000 OA
ATOM     15  C   UNL     1       4.787   4.386  17.487  0.00  0.00    +0.000 A 
ATOM     16  C   UNL     1       5.723   4.289  16.472  0.00  0.00    +0.000 A 
ATOM     17  C   UNL     1       5.912   5.413  15.671  0.00  0.00    +0.000 A 
ATOM     18  C   UNL     1       5.178   6.581  15.906  0.00  0.00    +0.000 A 
ATOM     19  C   UNL     1       4.240   6.643  16.944  0.00  0.00    +0.000 A 
ATOM     20  C   UNL     1       4.020   5.536  17.753  0.00  0.00    +0.000 A 
ATOM     21  H   UNL     1      -0.457   6.806  20.452  0.00  0.00    +0.000 HD
ENDROOT
BRANCH   1  23
ATOM     22  O   UNL     1      -0.213  10.197  20.587  0.00  0.00    +0.000 OA
ATOM     23  C   UNL     1       0.061   9.305  21.366  0.00  0.00    +0.000 C 
BRANCH  23  24
ATOM     24  OXT UNL     1      -0.406   9.272  22.631  0.00  0.00    +0.000 OA
ATOM     25  HXT UNL     1       0.303   9.401  23.286  0.00  0.00    +0.000 HD
ENDBRANCH  23  24
ENDBRANCH   1  23
TORSDOF 2
ENDMDL
MODEL 6
REMARK VINA RESULT:      -6.6      8.781     10.481
REMARK  Name = 
REMARK  2 active torsions:
REMARK  status: ('A' for Active; 'I' for Inactive)
REMARK    1  A    between atoms: C_2  and  OXT_3
REMARK    2  A    between atoms: C_2  and  CA_4
REMARK                            x       y       z     vdW  Elec       q    Type
REMARK                         _______ _______ _______ _____ _____    ______ ____
ROOT
ATOM      1  CA  UNL     1       0.126  12.616  18.428  0.00  0.00    +0.000 A 
ATOM      2  C   UNL     1      -0.609  13.568  19.040  0.00  0.00    +0.000 A 
ATOM      3  C   UNL     1      -1.603  12.782  19.835  0.00  0.00    +0.000 A 
ATOM      4  O   UNL     1      -1.501  12.654  21.044  0.00  0.00    +0.000 OA
ATOM      5  C   UNL     1      -2.526  11.990  19.007  0.00  0.00    +0.000 A 
ATOM      6  C   UNL     1      -3.901  11.942  19.152  0.00  0.00    +0.000 A 
ATOM      7  C   UNL     1      -4.592  11.293  18.111  0.00  0.00    +0.000 A 
ATOM      8  C   UNL     1      -3.991  10.635  17.039  0.00  0.00    +0.000 A 
ATOM      9  C   UNL     1      -2.592  10.624  16.980  0.00  0.00    +0.000 A 
ATOM     10  C   UNL     1      -1.860  11.344  17.931  0.00  0.00    +0.000 A 
ATOM     11  N   UNL     1      -0.420  11.426  17.878  0.00  0.00    +0.000 N 
ATOM     12  S   UNL     1      -6.331  11.492  18.349  0.00  0.00    +0.000 S 
ATOM     13  O   UNL     1      -6.808  12.441  17.369  0.00  0.00    +0.000 OA
ATOM     14  O   UNL     1      -6.910  10.186  18.570  0.00  0.00    +0.000 OA
ATOM     15  C   UNL     1      -6.155  12.314  19.895  0.00  0.00    +0.000 A 
ATOM     16  C   UNL     1      -7.188  12.678  20.742  0.00  0.00    +0.000 A 
ATOM     17  C   UNL     1      -6.838  13.264  21.956  0.00  0.00    +0.000 A 
ATOM     18  C   UNL     1      -5.492  13.471  22.281  0.00  0.00    +0.000 A 
ATOM     19  C   UNL     1      -4.475  13.091  21.398  0.00  0.00    +0.000 A 
ATOM     20  C   UNL     1      -4.790  12.493  20.184  0.00  0.00    +0.000 A 
ATOM     21  H   UNL     1      -0.061  10.627  18.422  0.00  0.00    +0.000 HD
ENDROOT
BRANCH   1  23
ATOM     22  O   UNL     1       2.086  12.972  19.796  0.00  0.00    +0.000 OA
ATOM     23  C   UNL     1       1.588  12.759  18.708  0.00  0.00    +0.000 C 
BRANCH  23  24
ATOM     24  OXT UNL     1       2.322  12.605  17.587  0.00  0.00    +0.000 OA
ATOM     25  HXT UNL     1       1.998  11.871  17.036  0.00  0.00    +0.000 HD
ENDBRANCH  23  24
ENDBRANCH   1  23
TORSDOF 2
ENDMDL
MODEL 7
REMARK VINA RESULT:      -6.5      6.796      9.860
REMARK  Name = 
REMARK  2 active torsions:
REMARK  status: ('A' for Active; 'I' for Inactive)
REMARK    1  A    between atoms: C_2  and  OXT_3
REMARK    2  A    between atoms: C_2  and  CA_4
REMARK                            x       y       z     vdW  Elec       q    Type
REMARK                         _______ _______ _______ _____ _____    ______ ____
ROOT
ATOM      1  CA  UNL     1      -0.796  15.376  20.005  0.00  0.00    +0.000 A 
ATOM      2  C   UNL     1       0.333  14.817  19.524  0.00  0.00    +0.000 A 
ATOM      3  C   UNL     1      -0.094  13.428  19.162  0.00  0.00    +0.000 A 
ATOM      4  O   UNL     1      -0.273  13.094  18.003  0.00  0.00    +0.000 OA
ATOM      5  C   UNL     1      -0.517  12.623  20.318  0.00  0.00    +0.000 A 
ATOM      6  C   UNL     1      -0.109  11.330  20.594  0.00  0.00    +0.000 A 
ATOM      7  C   UNL     1      -0.470  10.844  21.864  0.00  0.00    +0.000 A 
ATOM      8  C   UNL     1      -1.268  11.523  22.784  0.00  0.00    +0.000 A 
ATOM      9  C   UNL     1      -1.743  12.790  22.427  0.00  0.00    +0.000 A 
ATOM     10  C   UNL     1      -1.326  13.364  21.220  0.00  0.00    +0.000 A 
ATOM     11  N   UNL     1      -1.726  14.696  20.834  0.00  0.00    +0.000 N 
ATOM     12  S   UNL     1       0.291   9.271  22.129  0.00  0.00    +0.000 S 
ATOM     13  O   UNL     1       1.364   9.452  23.081  0.00  0.00    +0.000 OA
ATOM     14  O   UNL     1      -0.753   8.279  22.254  0.00  0.00    +0.000 OA
ATOM     15  C   UNL     1       0.976   9.188  20.511  0.00  0.00    +0.000 A 
ATOM     16  C   UNL     1       1.646   8.104  19.968  0.00  0.00    +0.000 A 
ATOM     17  C   UNL     1       2.059   8.210  18.642  0.00  0.00    +0.000 A 
ATOM     18  C   UNL     1       1.800   9.375  17.911  0.00  0.00    +0.000 A 
ATOM     19  C   UNL     1       1.121  10.451  18.493  0.00  0.00    +0.000 A 
ATOM     20  C   UNL     1       0.686  10.374  19.811  0.00  0.00    +0.000 A 
ATOM     21  H   UNL     1      -2.609  14.596  20.313  0.00  0.00    +0.000 HD
ENDROOT
BRANCH   1  23
ATOM     22  O   UNL     1      -0.393  17.324  18.631  0.00  0.00    +0.000 OA
ATOM     23  C   UNL     1      -1.153  16.641  19.289  0.00  0.00    +0.000 C 
BRANCH  23  24
ATOM     24  OXT UNL     1      -2.459  16.942  19.443  0.00  0.00    +0.000 OA
ATOM     25  HXT UNL     1      -2.976  16.178  19.753  0.00  0.00    +0.000 HD
ENDBRANCH  23  24
ENDBRANCH   1  23
TORSDOF 2
ENDMDL
MODEL 8
REMARK VINA RESULT:      -6.5      8.827     10.416
REMARK  Name = 
REMARK  2 active torsions:
REMARK  status: ('A' for Active; 'I' for Inactive)
REMARK    1  A    between atoms: C_2  and  OXT_3
REMARK    2  A    between atoms: C_2  and  CA_4
REMARK                            x       y       z     vdW  Elec       q    Type
REMARK                         _______ _______ _______ _____ _____    ______ ____
ROOT
ATOM      1  CA  UNL     1      -3.722  10.876  15.324  0.00  0.00    +0.000 A 
ATOM      2  C   UNL     1      -2.555  11.338  15.819  0.00  0.00    +0.000 A 
ATOM      3  C   UNL     1      -2.544  10.820  17.223  0.00  0.00    +0.000 A 
ATOM      4  O   UNL     1      -1.846   9.876  17.553  0.00  0.00    +0.000 OA
ATOM      5  C   UNL     1      -3.618  11.371  18.064  0.00  0.00    +0.000 A 
ATOM      6  C   UNL     1      -3.462  11.889  19.337  0.00  0.00    +0.000 A 
ATOM      7  C   UNL     1      -4.587  12.558  19.856  0.00  0.00    +0.000 A 
ATOM      8  C   UNL     1      -5.830  12.637  19.230  0.00  0.00    +0.000 A 
ATOM      9  C   UNL     1      -5.976  12.015  17.984  0.00  0.00    +0.000 A 
ATOM     10  C   UNL     1      -4.860  11.429  17.375  0.00  0.00    +0.000 A 
ATOM     11  N   UNL     1      -4.935  10.837  16.062  0.00  0.00    +0.000 N 
ATOM     12  S   UNL     1      -4.159  13.322  21.390  0.00  0.00    +0.000 S 
ATOM     13  O   UNL     1      -4.068  14.748  21.166  0.00  0.00    +0.000 OA
ATOM     14  O   UNL     1      -4.946  12.709  22.436  0.00  0.00    +0.000 OA
ATOM     15  C   UNL     1      -2.534  12.648  21.419  0.00  0.00    +0.000 A 
ATOM     16  C   UNL     1      -1.628  12.759  22.460  0.00  0.00    +0.000 A 
ATOM     17  C   UNL     1      -0.411  12.098  22.318  0.00  0.00    +0.000 A 
ATOM     18  C   UNL     1      -0.136  11.362  21.159  0.00  0.00    +0.000 A 
ATOM     19  C   UNL     1      -1.076  11.274  20.126  0.00  0.00    +0.000 A 
ATOM     20  C   UNL     1      -2.304  11.913  20.241  0.00  0.00    +0.000 A 
ATOM     21  H   UNL     1      -5.195   9.850  16.200  0.00  0.00    +0.000 HD
ENDROOT
BRANCH   1  23
ATOM     22  O   UNL     1      -2.465   9.800  13.563  0.00  0.00    +0.000 OA
ATOM     23  C   UNL     1      -3.532  10.081  14.072  0.00  0.00    +0.000 C 
BRANCH  23  24
ATOM     24  OXT UNL     1      -4.714   9.680  13.559  0.00  0.00    +0.000 OA
ATOM     25  HXT UNL     1      -4.922   8.759  13.798  0.00  0.00    +0.000 HD
ENDBRANCH  23  24
ENDBRANCH   1  23
TORSDOF 2
ENDMDL
MODEL 9
REMARK VINA RESULT:      -6.4      7.419      9.918
REMARK  Name = 
REMARK  2 active torsions:
REMARK  status: ('A' for Active; 'I' for Inactive)
REMARK    1  A    between atoms: C_2  and  OXT_3
REMARK    2  A    between atoms: C_2  and  CA_4
REMARK                            x       y       z     vdW  Elec       q    Type
REMARK                         _______ _______ _______ _____ _____    ______ ____
ROOT
ATOM      1  CA  UNL     1       0.842  10.997  18.998  0.00  0.00    +0.000 A 
ATOM      2  C   UNL     1      -0.331  10.367  18.781  0.00  0.00    +0.000 A 
ATOM      3  C   UNL     1      -1.325  11.486  18.750  0.00  0.00    +0.000 A 
ATOM      4  O   UNL     1      -1.809  11.886  17.705  0.00  0.00    +0.000 OA
ATOM      5  C   UNL     1      -1.448  12.200  20.031  0.00  0.00    +0.000 A 
ATOM      6  C   UNL     1      -2.634  12.522  20.664  0.00  0.00    +0.000 A 
ATOM      7  C   UNL     1      -2.501  13.008  21.979  0.00  0.00    +0.000 A 
ATOM      8  C   UNL     1      -1.289  13.267  22.617  0.00  0.00    +0.000 A 
ATOM      9  C   UNL     1      -0.109  13.019  21.906  0.00  0.00    +0.000 A 
ATOM     10  C   UNL     1      -0.184  12.436  20.635  0.00  0.00    +0.000 A 
ATOM     11  N   UNL     1       1.001  12.093  19.886  0.00  0.00    +0.000 N 
ATOM     12  S   UNL     1      -4.102  13.181  22.706  0.00  0.00    +0.000 S 
ATOM     13  O   UNL     1      -4.267  12.119  23.673  0.00  0.00    +0.000 OA
ATOM     14  O   UNL     1      -4.322  14.582  22.985  0.00  0.00    +0.000 OA
ATOM     15  C   UNL     1      -4.958  12.744  21.233  0.00  0.00    +0.000 A 
ATOM     16  C   UNL     1      -6.330  12.784  21.049  0.00  0.00    +0.000 A 
ATOM     17  C   UNL     1      -6.813  12.461  19.783  0.00  0.00    +0.000 A 
ATOM     18  C   UNL     1      -5.929  12.107  18.758  0.00  0.00    +0.000 A 
ATOM     19  C   UNL     1      -4.547  12.076  18.981  0.00  0.00    +0.000 A 
ATOM     20  C   UNL     1      -4.033  12.404  20.228  0.00  0.00    +0.000 A 
ATOM     21  H   UNL     1       1.246  12.925  19.329  0.00  0.00    +0.000 HD
ENDROOT
BRANCH   1  23
ATOM     22  O   UNL     1       2.102   9.566  17.512  0.00  0.00    +0.000 OA
ATOM     23  C   UNL     1       1.862  10.673  17.952  0.00  0.00    +0.000 C 
BRANCH  23  24
ATOM     24  OXT UNL     1       2.498  11.783  17.523  0.00  0.00    +0.000 OA
ATOM     25  HXT UNL     1       1.875  12.498  17.301  0.00  0.00    +0.000 HD
ENDBRANCH  23  24
ENDBRANCH   1  23
TORSDOF 2
ENDMDL
