MODEL 1
REMARK VINA RESULT:      -6.6      0.000      0.000
REMARK  Name = 
REMARK  10 active torsions:
REMARK  status: ('A' for Active; 'I' for Inactive)
REMARK    1  A    between atoms: C_1  and  N_2
REMARK    2  A    between atoms: N_5  and  C_6
REMARK    3  A    between atoms: C_6  and  C_7
REMARK    4  A    between atoms: C_10  and  C_11
REMARK    5  A    between atoms: N_14  and  C_15
REMARK    6  A    between atoms: C_15  and  C_16
REMARK    7  A    between atoms: C_15  and  C_18
REMARK    8  A    between atoms: C_16  and  O_17
REMARK    9  A    between atoms: C_18  and  O_19
REMARK   10  A    between atoms: N_22  and  C_23
REMARK                            x       y       z     vdW  Elec       q    Type
REMARK                         _______ _______ _______ _____ _____    ______ ____
ROOT
ATOM      1  C   UNL     1       2.134   8.092  18.969  0.00  0.00    +0.000 A 
ATOM      2  N   UNL     1       2.857   8.150  17.868  0.00  0.00    +0.000 NA
ATOM      3  N   UNL     1       3.364   6.895  17.602  0.00  0.00    +0.000 NA
ATOM      4  C   UNL     1       2.952   6.078  18.552  0.00  0.00    +0.000 A 
ATOM      5  N   UNL     1       2.203   6.807  19.454  0.00  0.00    +0.000 N 
ATOM      6  C   UNL     1       1.595   6.330  20.670  0.00  0.00    +0.000 C 
ENDROOT
BRANCH   4   7
ATOM      7  C   UNL     1       3.261   4.604  18.661  0.00  0.00    +0.000 C 
ATOM      8  C   UNL     1       4.529   4.280  19.452  0.00  0.00    +0.000 C 
ATOM      9  C   UNL     1       5.826   4.577  18.697  0.00  0.00    +0.000 C 
ATOM     10  N   UNL     1       5.893   4.115  17.303  0.00  0.00    +0.000 NA
ATOM     11  C   UNL     1       4.643   4.251  16.543  0.00  0.00    +0.000 C 
ATOM     12  C   UNL     1       3.363   3.907  17.303  0.00  0.00    +0.000 C 
BRANCH  10  13
ATOM     13  C   UNL     1       7.034   4.733  16.550  0.00  0.00    +0.000 C 
BRANCH  13  14
ATOM     14  C   UNL     1       6.932   4.648  14.993  0.00  0.00    +0.000 C 
BRANCH  14  15
ATOM     15  O   UNL     1       7.863   5.518  14.351  0.00  0.00    +0.000 OA
ATOM     16  H   UNL     1       7.350   5.992  13.663  0.00  0.00    +0.000 HD
ENDBRANCH  14  15
ENDBRANCH  13  14
BRANCH  13  17
ATOM     17  C   UNL     1       7.298   6.195  17.005  0.00  0.00    +0.000 C 
BRANCH  17  18
ATOM     18  O   UNL     1       6.374   7.123  16.424  0.00  0.00    +0.000 OA
ATOM     19  H   UNL     1       5.707   6.597  15.943  0.00  0.00    +0.000 HD
ENDBRANCH  17  18
ENDBRANCH  13  17
ENDBRANCH  10  13
ENDBRANCH   4   7
BRANCH   1  20
ATOM     20  C   UNL     1       1.266   9.214  19.482  0.00  0.00    +0.000 C 
BRANCH  20  25
ATOM     21  C   UNL     1      -1.836  12.605  20.985  0.00  0.00    +0.000 C 
ATOM     22  N   UNL     1      -0.998  12.183  19.864  0.00  0.00    +0.000 NA
ATOM     23  C   UNL     1      -1.455  10.889  19.322  0.00  0.00    +0.000 C 
ATOM     24  C   UNL     1      -0.527  10.333  18.210  0.00  0.00    +0.000 C 
ATOM     25  N   UNL     1       0.920  10.286  18.527  0.00  0.00    +0.000 NA
ATOM     26  C   UNL     1       1.298  11.613  19.081  0.00  0.00    +0.000 C 
ATOM     27  C   UNL     1       0.418  12.104  20.257  0.00  0.00    +0.000 C 
ENDBRANCH  20  25
ENDBRANCH   1  20
TORSDOF 8
ENDMDL
MODEL 2
REMARK VINA RESULT:      -6.4      0.984      1.224
REMARK  Name = 
REMARK  10 active torsions:
REMARK  status: ('A' for Active; 'I' for Inactive)
REMARK    1  A    between atoms: C_1  and  N_2
REMARK    2  A    between atoms: N_5  and  C_6
REMARK    3  A    between atoms: C_6  and  C_7
REMARK    4  A    between atoms: C_10  and  C_11
REMARK    5  A    between atoms: N_14  and  C_15
REMARK    6  A    between atoms: C_15  and  C_16
REMARK    7  A    between atoms: C_15  and  C_18
REMARK    8  A    between atoms: C_16  and  O_17
REMARK    9  A    between atoms: C_18  and  O_19
REMARK   10  A    between atoms: N_22  and  C_23
REMARK                            x       y       z     vdW  Elec       q    Type
REMARK                         _______ _______ _______ _____ _____    ______ ____
ROOT
ATOM      1  C   UNL     1       2.032   8.869  18.628  0.00  0.00    +0.000 A 
ATOM      2  N   UNL     1       2.613   8.657  17.463  0.00  0.00    +0.000 NA
ATOM      3  N   UNL     1       3.004   7.336  17.394  0.00  0.00    +0.000 NA
ATOM      4  C   UNL     1       2.666   6.750  18.526  0.00  0.00    +0.000 A 
ATOM      5  N   UNL     1       2.082   7.696  19.345  0.00  0.00    +0.000 N 
ATOM      6  C   UNL     1       1.604   7.509  20.690  0.00  0.00    +0.000 C 
ENDROOT
BRANCH   4   7
ATOM      7  C   UNL     1       2.894   5.302  18.887  0.00  0.00    +0.000 C 
ATOM      8  C   UNL     1       4.096   5.059  19.800  0.00  0.00    +0.000 C 
ATOM      9  C   UNL     1       5.449   5.179  19.095  0.00  0.00    +0.000 C 
ATOM     10  N   UNL     1       5.573   4.496  17.799  0.00  0.00    +0.000 NA
ATOM     11  C   UNL     1       4.378   4.558  16.946  0.00  0.00    +0.000 C 
ATOM     12  C   UNL     1       3.040   4.391  17.666  0.00  0.00    +0.000 C 
BRANCH  10  13
ATOM     13  C   UNL     1       6.785   4.939  17.033  0.00  0.00    +0.000 C 
BRANCH  13  14
ATOM     14  C   UNL     1       6.683   4.802  15.481  0.00  0.00    +0.000 C 
BRANCH  14  15
ATOM     15  O   UNL     1       7.759   5.465  14.815  0.00  0.00    +0.000 OA
ATOM     16  H   UNL     1       7.401   5.738  13.945  0.00  0.00    +0.000 HD
ENDBRANCH  14  15
ENDBRANCH  13  14
BRANCH  13  17
ATOM     17  C   UNL     1       7.223   6.377  17.431  0.00  0.00    +0.000 C 
BRANCH  17  18
ATOM     18  O   UNL     1       6.615   7.379  16.608  0.00  0.00    +0.000 OA
ATOM     19  H   UNL     1       5.854   6.960  16.164  0.00  0.00    +0.000 HD
ENDBRANCH  17  18
ENDBRANCH  13  17
ENDBRANCH  10  13
ENDBRANCH   4   7
BRANCH   1  20
ATOM     20  C   UNL     1       1.306  10.136  19.004  0.00  0.00    +0.000 C 
BRANCH  20  25
ATOM     21  C   UNL     1      -1.078  14.226  19.986  0.00  0.00    +0.000 C 
ATOM     22  N   UNL     1      -1.235  12.788  19.779  0.00  0.00    +0.000 NA
ATOM     23  C   UNL     1      -0.527  12.024  20.824  0.00  0.00    +0.000 C 
ATOM     24  C   UNL     1      -0.556  10.492  20.584  0.00  0.00    +0.000 C 
ATOM     25  N   UNL     1      -0.150  10.033  19.234  0.00  0.00    +0.000 NA
ATOM     26  C   UNL     1      -0.889  10.857  18.241  0.00  0.00    +0.000 C 
ATOM     27  C   UNL     1      -0.765  12.387  18.444  0.00  0.00    +0.000 C 
ENDBRANCH  20  25
ENDBRANCH   1  20
TORSDOF 8
ENDMDL
MODEL 3
REMARK VINA RESULT:      -6.3      1.491      1.946
REMARK  Name = 
REMARK  10 active torsions:
REMARK  status: ('A' for Active; 'I' for Inactive)
REMARK    1  A    between atoms: C_1  and  N_2
REMARK    2  A    between atoms: N_5  and  C_6
REMARK    3  A    between atoms: C_6  and  C_7
REMARK    4  A    between atoms: C_10  and  C_11
REMARK    5  A    between atoms: N_14  and  C_15
REMARK    6  A    between atoms: C_15  and  C_16
REMARK    7  A    between atoms: C_15  and  C_18
REMARK    8  A    between atoms: C_16  and  O_17
REMARK    9  A    between atoms: C_18  and  O_19
REMARK   10  A    between atoms: N_22  and  C_23
REMARK                            x       y       z     vdW  Elec       q    Type
REMARK                         _______ _______ _______ _____ _____    ______ ____
ROOT
ATOM      1  C   UNL     1       1.759   9.194  19.020  0.00  0.00    +0.000 A 
ATOM      2  N   UNL     1       2.315   9.019  17.836  0.00  0.00    +0.000 NA
ATOM      3  N   UNL     1       2.633   7.685  17.687  0.00  0.00    +0.000 NA
ATOM      4  C   UNL     1       2.276   7.054  18.789  0.00  0.00    +0.000 A 
ATOM      5  N   UNL     1       1.755   7.981  19.668  0.00  0.00    +0.000 N 
ATOM      6  C   UNL     1       1.282   7.743  21.008  0.00  0.00    +0.000 C 
ENDROOT
BRANCH   4   7
ATOM      7  C   UNL     1       2.431   5.577  19.064  0.00  0.00    +0.000 C 
ATOM      8  C   UNL     1       3.617   5.222  19.961  0.00  0.00    +0.000 C 
ATOM      9  C   UNL     1       4.976   5.314  19.263  0.00  0.00    +0.000 C 
ATOM     10  N   UNL     1       5.069   4.703  17.929  0.00  0.00    +0.000 NA
ATOM     11  C   UNL     1       3.880   4.875  17.082  0.00  0.00    +0.000 C 
ATOM     12  C   UNL     1       2.534   4.734  17.792  0.00  0.00    +0.000 C 
BRANCH  10  13
ATOM     13  C   UNL     1       6.304   5.128  17.190  0.00  0.00    +0.000 C 
BRANCH  13  14
ATOM     14  C   UNL     1       7.622   5.119  18.029  0.00  0.00    +0.000 C 
BRANCH  14  15
ATOM     15  O   UNL     1       8.408   3.955  17.772  0.00  0.00    +0.000 OA
ATOM     16  H   UNL     1       8.294   3.767  16.817  0.00  0.00    +0.000 HD
ENDBRANCH  14  15
ENDBRANCH  13  14
BRANCH  13  17
ATOM     17  C   UNL     1       6.487   4.329  15.869  0.00  0.00    +0.000 C 
BRANCH  17  18
ATOM     18  O   UNL     1       7.549   4.848  15.061  0.00  0.00    +0.000 OA
ATOM     19  H   UNL     1       7.430   4.480  14.165  0.00  0.00    +0.000 HD
ENDBRANCH  17  18
ENDBRANCH  13  17
ENDBRANCH  10  13
ENDBRANCH   4   7
BRANCH   1  20
ATOM     20  C   UNL     1       1.107  10.474  19.478  0.00  0.00    +0.000 C 
BRANCH  20  25
ATOM     21  C   UNL     1      -1.128  14.713  20.124  0.00  0.00    +0.000 C 
ATOM     22  N   UNL     1      -1.338  13.270  20.019  0.00  0.00    +0.000 NA
ATOM     23  C   UNL     1      -0.673  12.559  21.128  0.00  0.00    +0.000 C 
ATOM     24  C   UNL     1      -0.759  11.016  20.999  0.00  0.00    +0.000 C 
ATOM     25  N   UNL     1      -0.355  10.444  19.693  0.00  0.00    +0.000 NA
ATOM     26  C   UNL     1      -1.049  11.220  18.632  0.00  0.00    +0.000 C 
ATOM     27  C   UNL     1      -0.868  12.756  18.724  0.00  0.00    +0.000 C 
ENDBRANCH  20  25
ENDBRANCH   1  20
TORSDOF 8
ENDMDL
MODEL 4
REMARK VINA RESULT:      -6.3      1.514      1.851
REMARK  Name = 
REMARK  10 active torsions:
REMARK  status: ('A' for Active; 'I' for Inactive)
REMARK    1  A    between atoms: C_1  and  N_2
REMARK    2  A    between atoms: N_5  and  C_6
REMARK    3  A    between atoms: C_6  and  C_7
REMARK    4  A    between atoms: C_10  and  C_11
REMARK    5  A    between atoms: N_14  and  C_15
REMARK    6  A    between atoms: C_15  and  C_16
REMARK    7  A    between atoms: C_15  and  C_18
REMARK    8  A    between atoms: C_16  and  O_17
REMARK    9  A    between atoms: C_18  and  O_19
REMARK   10  A    between atoms: N_22  and  C_23
REMARK                            x       y       z     vdW  Elec       q    Type
REMARK                         _______ _______ _______ _____ _____    ______ ____
ROOT
ATOM      1  C   UNL     1       1.786   9.119  18.711  0.00  0.00    +0.000 A 
ATOM      2  N   UNL     1       2.272   8.712  17.554  0.00  0.00    +0.000 NA
ATOM      3  N   UNL     1       2.509   7.355  17.624  0.00  0.00    +0.000 NA
ATOM      4  C   UNL     1       2.175   6.943  18.832  0.00  0.00    +0.000 A 
ATOM      5  N   UNL     1       1.749   8.037  19.558  0.00  0.00    +0.000 N 
ATOM      6  C   UNL     1       1.332   8.059  20.937  0.00  0.00    +0.000 C 
ENDROOT
BRANCH   4   7
ATOM      7  C   UNL     1       2.263   5.528  19.351  0.00  0.00    +0.000 C 
ATOM      8  C   UNL     1       3.560   5.206  20.092  0.00  0.00    +0.000 C 
ATOM      9  C   UNL     1       4.773   5.029  19.176  0.00  0.00    +0.000 C 
ATOM     10  N   UNL     1       4.577   4.191  17.985  0.00  0.00    +0.000 NA
ATOM     11  C   UNL     1       3.271   4.342  17.327  0.00  0.00    +0.000 C 
ATOM     12  C   UNL     1       2.069   4.472  18.261  0.00  0.00    +0.000 C 
BRANCH  10  13
ATOM     13  C   UNL     1       5.686   4.346  16.987  0.00  0.00    +0.000 C 
BRANCH  13  14
ATOM     14  C   UNL     1       5.348   5.225  15.740  0.00  0.00    +0.000 C 
BRANCH  14  15
ATOM     15  O   UNL     1       6.480   5.967  15.288  0.00  0.00    +0.000 OA
ATOM     16  H   UNL     1       7.248   5.596  15.772  0.00  0.00    +0.000 HD
ENDBRANCH  14  15
ENDBRANCH  13  14
BRANCH  13  17
ATOM     17  C   UNL     1       7.001   4.831  17.660  0.00  0.00    +0.000 C 
BRANCH  17  18
ATOM     18  O   UNL     1       8.150   4.114  17.194  0.00  0.00    +0.000 OA
ATOM     19  H   UNL     1       8.910   4.419  17.724  0.00  0.00    +0.000 HD
ENDBRANCH  17  18
ENDBRANCH  13  17
ENDBRANCH  10  13
ENDBRANCH   4   7
BRANCH   1  20
ATOM     20  C   UNL     1       1.228  10.497  18.967  0.00  0.00    +0.000 C 
BRANCH  20  25
ATOM     21  C   UNL     1      -0.606  14.912  19.691  0.00  0.00    +0.000 C 
ATOM     22  N   UNL     1      -0.932  13.487  19.658  0.00  0.00    +0.000 NA
ATOM     23  C   UNL     1      -0.210  12.756  20.717  0.00  0.00    +0.000 C 
ATOM     24  C   UNL     1      -0.423  11.222  20.651  0.00  0.00    +0.000 C 
ATOM     25  N   UNL     1      -0.201  10.585  19.331  0.00  0.00    +0.000 NA
ATOM     26  C   UNL     1      -0.943  11.384  18.320  0.00  0.00    +0.000 C 
ATOM     27  C   UNL     1      -0.640  12.903  18.340  0.00  0.00    +0.000 C 
ENDBRANCH  20  25
ENDBRANCH   1  20
TORSDOF 8
ENDMDL
MODEL 5
REMARK VINA RESULT:      -6.2      1.230      1.658
REMARK  Name = 
REMARK  10 active torsions:
REMARK  status: ('A' for Active; 'I' for Inactive)
REMARK    1  A    between atoms: C_1  and  N_2
REMARK    2  A    between atoms: N_5  and  C_6
REMARK    3  A    between atoms: C_6  and  C_7
REMARK    4  A    between atoms: C_10  and  C_11
REMARK    5  A    between atoms: N_14  and  C_15
REMARK    6  A    between atoms: C_15  and  C_16
REMARK    7  A    between atoms: C_15  and  C_18
REMARK    8  A    between atoms: C_16  and  O_17
REMARK    9  A    between atoms: C_18  and  O_19
REMARK   10  A    between atoms: N_22  and  C_23
REMARK                            x       y       z     vdW  Elec       q    Type
REMARK                         _______ _______ _______ _____ _____    ______ ____
ROOT
ATOM      1  C   UNL     1       1.770   9.056  18.535  0.00  0.00    +0.000 A 
ATOM      2  N   UNL     1       2.439   8.739  17.444  0.00  0.00    +0.000 NA
ATOM      3  N   UNL     1       2.946   7.464  17.588  0.00  0.00    +0.000 NA
ATOM      4  C   UNL     1       2.589   7.013  18.775  0.00  0.00    +0.000 A 
ATOM      5  N   UNL     1       1.877   8.006  19.417  0.00  0.00    +0.000 N 
ATOM      6  C   UNL     1       1.333   7.966  20.750  0.00  0.00    +0.000 C 
ENDROOT
BRANCH   4   7
ATOM      7  C   UNL     1       2.919   5.659  19.354  0.00  0.00    +0.000 C 
ATOM      8  C   UNL     1       4.391   5.468  19.720  0.00  0.00    +0.000 C 
ATOM      9  C   UNL     1       5.312   5.265  18.514  0.00  0.00    +0.000 C 
ATOM     10  N   UNL     1       4.852   4.311  17.494  0.00  0.00    +0.000 NA
ATOM     11  C   UNL     1       3.408   4.339  17.223  0.00  0.00    +0.000 C 
ATOM     12  C   UNL     1       2.506   4.498  18.447  0.00  0.00    +0.000 C 
BRANCH  10  13
ATOM     13  C   UNL     1       5.627   4.425  16.214  0.00  0.00    +0.000 C 
BRANCH  13  14
ATOM     14  C   UNL     1       5.046   5.429  15.168  0.00  0.00    +0.000 C 
BRANCH  14  15
ATOM     15  O   UNL     1       5.198   6.785  15.589  0.00  0.00    +0.000 OA
ATOM     16  H   UNL     1       4.763   7.326  14.897  0.00  0.00    +0.000 HD
ENDBRANCH  14  15
ENDBRANCH  13  14
BRANCH  13  17
ATOM     17  C   UNL     1       7.132   4.715  16.478  0.00  0.00    +0.000 C 
BRANCH  17  18
ATOM     18  O   UNL     1       7.681   5.644  15.537  0.00  0.00    +0.000 OA
ATOM     19  H   UNL     1       7.983   5.126  14.767  0.00  0.00    +0.000 HD
ENDBRANCH  17  18
ENDBRANCH  13  17
ENDBRANCH  10  13
ENDBRANCH   4   7
BRANCH   1  20
ATOM     20  C   UNL     1       0.916  10.290  18.687  0.00  0.00    +0.000 C 
BRANCH  20  25
ATOM     21  C   UNL     1      -2.026  13.705  20.438  0.00  0.00    +0.000 C 
ATOM     22  N   UNL     1      -0.625  13.317  20.284  0.00  0.00    +0.000 NA
ATOM     23  C   UNL     1      -0.244  13.267  18.859  0.00  0.00    +0.000 C 
ATOM     24  C   UNL     1       1.197  12.740  18.633  0.00  0.00    +0.000 C 
ATOM     25  N   UNL     1       1.546  11.470  19.313  0.00  0.00    +0.000 NA
ATOM     26  C   UNL     1       1.118  11.592  20.731  0.00  0.00    +0.000 C 
ATOM     27  C   UNL     1      -0.355  12.024  20.933  0.00  0.00    +0.000 C 
ENDBRANCH  20  25
ENDBRANCH   1  20
TORSDOF 8
ENDMDL
MODEL 6
REMARK VINA RESULT:      -6.1      1.428      1.625
REMARK  Name = 
REMARK  10 active torsions:
REMARK  status: ('A' for Active; 'I' for Inactive)
REMARK    1  A    between atoms: C_1  and  N_2
REMARK    2  A    between atoms: N_5  and  C_6
REMARK    3  A    between atoms: C_6  and  C_7
REMARK    4  A    between atoms: C_10  and  C_11
REMARK    5  A    between atoms: N_14  and  C_15
REMARK    6  A    between atoms: C_15  and  C_16
REMARK    7  A    between atoms: C_15  and  C_18
REMARK    8  A    between atoms: C_16  and  O_17
REMARK    9  A    between atoms: C_18  and  O_19
REMARK   10  A    between atoms: N_22  and  C_23
REMARK                            x       y       z     vdW  Elec       q    Type
REMARK                         _______ _______ _______ _____ _____    ______ ____
ROOT
ATOM      1  C   UNL     1       2.100   7.552  19.842  0.00  0.00    +0.000 A 
ATOM      2  N   UNL     1       2.499   7.841  18.619  0.00  0.00    +0.000 NA
ATOM      3  N   UNL     1       2.841   6.670  17.974  0.00  0.00    +0.000 NA
ATOM      4  C   UNL     1       2.657   5.671  18.815  0.00  0.00    +0.000 A 
ATOM      5  N   UNL     1       2.225   6.194  20.018  0.00  0.00    +0.000 N 
ATOM      6  C   UNL     1       1.944   5.471  21.232  0.00  0.00    +0.000 C 
ENDROOT
BRANCH   4   7
ATOM      7  C   UNL     1       2.899   4.207  18.534  0.00  0.00    +0.000 C 
ATOM      8  C   UNL     1       4.128   3.624  19.230  0.00  0.00    +0.000 C 
ATOM      9  C   UNL     1       5.459   4.046  18.603  0.00  0.00    +0.000 C 
ATOM     10  N   UNL     1       5.545   3.966  17.137  0.00  0.00    +0.000 NA
ATOM     11  C   UNL     1       4.324   4.361  16.421  0.00  0.00    +0.000 C 
ATOM     12  C   UNL     1       3.009   3.891  17.041  0.00  0.00    +0.000 C 
BRANCH  10  13
ATOM     13  C   UNL     1       6.733   4.705  16.594  0.00  0.00    +0.000 C 
BRANCH  13  14
ATOM     14  C   UNL     1       6.656   5.071  15.077  0.00  0.00    +0.000 C 
BRANCH  14  15
ATOM     15  O   UNL     1       7.925   5.474  14.562  0.00  0.00    +0.000 OA
ATOM     16  H   UNL     1       8.293   4.681  14.119  0.00  0.00    +0.000 HD
ENDBRANCH  14  15
ENDBRANCH  13  14
BRANCH  13  17
ATOM     17  C   UNL     1       7.069   5.960  17.447  0.00  0.00    +0.000 C 
BRANCH  17  18
ATOM     18  O   UNL     1       6.908   7.178  16.711  0.00  0.00    +0.000 OA
ATOM     19  H   UNL     1       7.783   7.608  16.677  0.00  0.00    +0.000 HD
ENDBRANCH  17  18
ENDBRANCH  13  17
ENDBRANCH  10  13
ENDBRANCH   4   7
BRANCH   1  20
ATOM     20  C   UNL     1       1.471   8.539  20.792  0.00  0.00    +0.000 C 
BRANCH  20  25
ATOM     21  C   UNL     1      -0.535  12.672  22.302  0.00  0.00    +0.000 C 
ATOM     22  N   UNL     1      -0.826  11.340  21.776  0.00  0.00    +0.000 NA
ATOM     23  C   UNL     1      -0.387  10.293  22.719  0.00  0.00    +0.000 C 
ATOM     24  C   UNL     1      -0.560   8.857  22.158  0.00  0.00    +0.000 C 
ATOM     25  N   UNL     1      -0.005   8.611  20.806  0.00  0.00    +0.000 NA
ATOM     26  C   UNL     1      -0.476   9.710  19.923  0.00  0.00    +0.000 C 
ATOM     27  C   UNL     1      -0.205  11.138  20.459  0.00  0.00    +0.000 C 
ENDBRANCH  20  25
ENDBRANCH   1  20
TORSDOF 8
ENDMDL
MODEL 7
REMARK VINA RESULT:      -6.1      2.879      4.094
REMARK  Name = 
REMARK  10 active torsions:
REMARK  status: ('A' for Active; 'I' for Inactive)
REMARK    1  A    between atoms: C_1  and  N_2
REMARK    2  A    between atoms: N_5  and  C_6
REMARK    3  A    between atoms: C_6  and  C_7
REMARK    4  A    between atoms: C_10  and  C_11
REMARK    5  A    between atoms: N_14  and  C_15
REMARK    6  A    between atoms: C_15  and  C_16
REMARK    7  A    between atoms: C_15  and  C_18
REMARK    8  A    between atoms: C_16  and  O_17
REMARK    9  A    between atoms: C_18  and  O_19
REMARK   10  A    between atoms: N_22  and  C_23
REMARK                            x       y       z     vdW  Elec       q    Type
REMARK                         _______ _______ _______ _____ _____    ______ ____
ROOT
ATOM      1  C   UNL     1       1.305   8.778  20.386  0.00  0.00    +0.000 A 
ATOM      2  N   UNL     1       1.368   7.692  21.132  0.00  0.00    +0.000 NA
ATOM      3  N   UNL     1       1.922   6.672  20.386  0.00  0.00    +0.000 NA
ATOM      4  C   UNL     1       2.185   7.141  19.182  0.00  0.00    +0.000 A 
ATOM      5  N   UNL     1       1.775   8.458  19.133  0.00  0.00    +0.000 N 
ATOM      6  C   UNL     1       1.828   9.346  18.001  0.00  0.00    +0.000 C 
ENDROOT
BRANCH   4   7
ATOM      7  C   UNL     1       2.804   6.374  18.038  0.00  0.00    +0.000 C 
ATOM      8  C   UNL     1       1.934   5.241  17.493  0.00  0.00    +0.000 C 
ATOM      9  C   UNL     1       1.881   4.007  18.396  0.00  0.00    +0.000 C 
ATOM     10  N   UNL     1       3.166   3.531  18.929  0.00  0.00    +0.000 NA
ATOM     11  C   UNL     1       4.109   4.589  19.315  0.00  0.00    +0.000 C 
ATOM     12  C   UNL     1       4.178   5.792  18.375  0.00  0.00    +0.000 C 
BRANCH  10  13
ATOM     13  C   UNL     1       2.991   2.550  20.051  0.00  0.00    +0.000 C 
BRANCH  13  14
ATOM     14  C   UNL     1       4.292   2.199  20.842  0.00  0.00    +0.000 C 
BRANCH  14  15
ATOM     15  O   UNL     1       5.196   1.418  20.059  0.00  0.00    +0.000 OA
ATOM     16  H   UNL     1       5.769   2.065  19.597  0.00  0.00    +0.000 HD
ENDBRANCH  14  15
ENDBRANCH  13  14
BRANCH  13  17
ATOM     17  C   UNL     1       1.858   2.985  21.023  0.00  0.00    +0.000 C 
BRANCH  17  18
ATOM     18  O   UNL     1       2.304   3.060  22.382  0.00  0.00    +0.000 OA
ATOM     19  H   UNL     1       1.577   2.722  22.939  0.00  0.00    +0.000 HD
ENDBRANCH  17  18
ENDBRANCH  13  17
ENDBRANCH  10  13
ENDBRANCH   4   7
BRANCH   1  20
ATOM     20  C   UNL     1       0.935  10.147  20.898  0.00  0.00    +0.000 C 
BRANCH  20  25
ATOM     21  C   UNL     1      -0.481  14.632  19.774  0.00  0.00    +0.000 C 
ATOM     22  N   UNL     1      -0.952  13.317  20.202  0.00  0.00    +0.000 NA
ATOM     23  C   UNL     1      -0.421  12.974  21.536  0.00  0.00    +0.000 C 
ATOM     24  C   UNL     1      -0.789  11.536  21.986  0.00  0.00    +0.000 C 
ATOM     25  N   UNL     1      -0.506  10.453  21.016  0.00  0.00    +0.000 NA
ATOM     26  C   UNL     1      -1.054  10.877  19.701  0.00  0.00    +0.000 C 
ATOM     27  C   UNL     1      -0.594  12.277  19.224  0.00  0.00    +0.000 C 
ENDBRANCH  20  25
ENDBRANCH   1  20
TORSDOF 8
ENDMDL
MODEL 8
REMARK VINA RESULT:      -6.0      2.854      4.158
REMARK  Name = 
REMARK  10 active torsions:
REMARK  status: ('A' for Active; 'I' for Inactive)
REMARK    1  A    between atoms: C_1  and  N_2
REMARK    2  A    between atoms: N_5  and  C_6
REMARK    3  A    between atoms: C_6  and  C_7
REMARK    4  A    between atoms: C_10  and  C_11
REMARK    5  A    between atoms: N_14  and  C_15
REMARK    6  A    between atoms: C_15  and  C_16
REMARK    7  A    between atoms: C_15  and  C_18
REMARK    8  A    between atoms: C_16  and  O_17
REMARK    9  A    between atoms: C_18  and  O_19
REMARK   10  A    between atoms: N_22  and  C_23
REMARK                            x       y       z     vdW  Elec       q    Type
REMARK                         _______ _______ _______ _____ _____    ______ ____
ROOT
ATOM      1  C   UNL     1       1.232   8.896  20.413  0.00  0.00    +0.000 A 
ATOM      2  N   UNL     1       1.329   7.822  21.174  0.00  0.00    +0.000 NA
ATOM      3  N   UNL     1       1.876   6.798  20.429  0.00  0.00    +0.000 NA
ATOM      4  C   UNL     1       2.102   7.252  19.212  0.00  0.00    +0.000 A 
ATOM      5  N   UNL     1       1.673   8.563  19.154  0.00  0.00    +0.000 N 
ATOM      6  C   UNL     1       1.685   9.434  18.007  0.00  0.00    +0.000 C 
ENDROOT
BRANCH   4   7
ATOM      7  C   UNL     1       2.700   6.475  18.063  0.00  0.00    +0.000 C 
ATOM      8  C   UNL     1       1.972   5.172  17.734  0.00  0.00    +0.000 C 
ATOM      9  C   UNL     1       2.230   4.044  18.735  0.00  0.00    +0.000 C 
ATOM     10  N   UNL     1       3.629   3.828  19.131  0.00  0.00    +0.000 NA
ATOM     11  C   UNL     1       4.423   5.053  19.299  0.00  0.00    +0.000 C 
ATOM     12  C   UNL     1       4.181   6.149  18.262  0.00  0.00    +0.000 C 
BRANCH  10  13
ATOM     13  C   UNL     1       3.752   2.953  20.344  0.00  0.00    +0.000 C 
BRANCH  13  14
ATOM     14  C   UNL     1       2.406   2.597  21.051  0.00  0.00    +0.000 C 
BRANCH  14  15
ATOM     15  O   UNL     1       2.209   3.364  22.239  0.00  0.00    +0.000 OA
ATOM     16  H   UNL     1       1.466   2.932  22.711  0.00  0.00    +0.000 HD
ENDBRANCH  14  15
ENDBRANCH  13  14
BRANCH  13  17
ATOM     17  C   UNL     1       4.573   1.668  20.044  0.00  0.00    +0.000 C 
BRANCH  17  18
ATOM     18  O   UNL     1       4.288   1.127  18.749  0.00  0.00    +0.000 OA
ATOM     19  H   UNL     1       4.699   1.724  18.095  0.00  0.00    +0.000 HD
ENDBRANCH  17  18
ENDBRANCH  13  17
ENDBRANCH  10  13
ENDBRANCH   4   7
BRANCH   1  20
ATOM     20  C   UNL     1       0.858  10.268  20.914  0.00  0.00    +0.000 C 
BRANCH  20  25
ATOM     21  C   UNL     1      -0.505  14.895  20.576  0.00  0.00    +0.000 C 
ATOM     22  N   UNL     1      -0.994  13.529  20.753  0.00  0.00    +0.000 NA
ATOM     23  C   UNL     1      -0.496  12.949  22.016  0.00  0.00    +0.000 C 
ATOM     24  C   UNL     1      -0.883  11.458  22.195  0.00  0.00    +0.000 C 
ATOM     25  N   UNL     1      -0.583  10.561  21.054  0.00  0.00    +0.000 NA
ATOM     26  C   UNL     1      -1.098  11.218  19.823  0.00  0.00    +0.000 C 
ATOM     27  C   UNL     1      -0.619  12.676  19.614  0.00  0.00    +0.000 C 
ENDBRANCH  20  25
ENDBRANCH   1  20
TORSDOF 8
ENDMDL
MODEL 9
REMARK VINA RESULT:      -6.0      3.603      8.444
REMARK  Name = 
REMARK  10 active torsions:
REMARK  status: ('A' for Active; 'I' for Inactive)
REMARK    1  A    between atoms: C_1  and  N_2
REMARK    2  A    between atoms: N_5  and  C_6
REMARK    3  A    between atoms: C_6  and  C_7
REMARK    4  A    between atoms: C_10  and  C_11
REMARK    5  A    between atoms: N_14  and  C_15
REMARK    6  A    between atoms: C_15  and  C_16
REMARK    7  A    between atoms: C_15  and  C_18
REMARK    8  A    between atoms: C_16  and  O_17
REMARK    9  A    between atoms: C_18  and  O_19
REMARK   10  A    between atoms: N_22  and  C_23
REMARK                            x       y       z     vdW  Elec       q    Type
REMARK                         _______ _______ _______ _____ _____    ______ ____
ROOT
ATOM      1  C   UNL     1       2.355   7.838  18.472  0.00  0.00    +0.000 A 
ATOM      2  N   UNL     1       2.294   8.605  17.401  0.00  0.00    +0.000 NA
ATOM      3  N   UNL     1       1.697   9.801  17.743  0.00  0.00    +0.000 NA
ATOM      4  C   UNL     1       1.387   9.752  19.024  0.00  0.00    +0.000 A 
ATOM      5  N   UNL     1       1.754   8.512  19.509  0.00  0.00    +0.000 N 
ATOM      6  C   UNL     1       1.561   8.007  20.844  0.00  0.00    +0.000 C 
ENDROOT
BRANCH   4   7
ATOM      7  C   UNL     1       0.722  10.844  19.827  0.00  0.00    +0.000 C 
ATOM      8  C   UNL     1      -0.654  10.475  20.380  0.00  0.00    +0.000 C 
ATOM      9  C   UNL     1      -1.765  10.462  19.327  0.00  0.00    +0.000 C 
ATOM     10  N   UNL     1      -1.811  11.611  18.411  0.00  0.00    +0.000 NA
ATOM     11  C   UNL     1      -0.500  12.113  17.978  0.00  0.00    +0.000 C 
ATOM     12  C   UNL     1       0.582  12.159  19.056  0.00  0.00    +0.000 C 
BRANCH  10  13
ATOM     13  C   UNL     1      -2.694  11.360  17.224  0.00  0.00    +0.000 C 
BRANCH  13  14
ATOM     14  C   UNL     1      -2.305  10.124  16.351  0.00  0.00    +0.000 C 
BRANCH  14  15
ATOM     15  O   UNL     1      -2.723  10.278  14.994  0.00  0.00    +0.000 OA
ATOM     16  H   UNL     1      -2.374   9.495  14.521  0.00  0.00    +0.000 HD
ENDBRANCH  14  15
ENDBRANCH  13  14
BRANCH  13  17
ATOM     17  C   UNL     1      -4.194  11.300  17.625  0.00  0.00    +0.000 C 
BRANCH  17  18
ATOM     18  O   UNL     1      -5.066  11.360  16.491  0.00  0.00    +0.000 OA
ATOM     19  H   UNL     1      -4.545  11.727  15.751  0.00  0.00    +0.000 HD
ENDBRANCH  17  18
ENDBRANCH  13  17
ENDBRANCH  10  13
ENDBRANCH   4   7
BRANCH   1  20
ATOM     20  C   UNL     1       3.104   6.532  18.547  0.00  0.00    +0.000 C 
BRANCH  20  25
ATOM     21  C   UNL     1       4.466   2.193  20.190  0.00  0.00    +0.000 C 
ATOM     22  N   UNL     1       3.559   2.877  19.271  0.00  0.00    +0.000 NA
ATOM     23  C   UNL     1       4.311   3.587  18.218  0.00  0.00    +0.000 C 
ATOM     24  C   UNL     1       3.403   4.432  17.287  0.00  0.00    +0.000 C 
ATOM     25  N   UNL     1       2.448   5.347  17.956  0.00  0.00    +0.000 NA
ATOM     26  C   UNL     1       1.745   4.567  19.008  0.00  0.00    +0.000 C 
ATOM     27  C   UNL     1       2.675   3.809  19.988  0.00  0.00    +0.000 C 
ENDBRANCH  20  25
ENDBRANCH   1  20
TORSDOF 8
ENDMDL
