MODEL 1
REMARK VINA RESULT:      -7.6      0.000      0.000
REMARK  Name = 
REMARK  4 active torsions:
REMARK  status: ('A' for Active; 'I' for Inactive)
REMARK    1  A    between atoms: C_1  and  C_2
REMARK    2  A    between atoms: C_5  and  C_6
REMARK    3  A    between atoms: N_8  and  C_9
REMARK    4  A    between atoms: C_13  and  N_14
REMARK                            x       y       z     vdW  Elec       q    Type
REMARK                         _______ _______ _______ _____ _____    ______ ____
ROOT
ATOM      1  C   UNL     1       3.115   7.003  18.532  0.00  0.00    +0.000 C 
ATOM      2  O   UNL     1       2.922   5.962  19.157  0.00  0.00    +0.000 OA
ATOM      3  N   UNL     1       4.194   7.256  17.697  0.00  0.00    +0.000 N 
ATOM      4  H   UNL     1       4.353   8.214  17.409  0.00  0.00    +0.000 HD
ENDROOT
BRANCH   1   9
ATOM      5  C   UNL     1      -0.937  11.027  19.588  0.00  0.00    +0.000 C 
ATOM      6  C   UNL     1       0.142  10.009  19.334  0.00  0.00    +0.000 A 
ATOM      7  C   UNL     1       0.604   9.813  18.018  0.00  0.00    +0.000 A 
ATOM      8  C   UNL     1       1.594   8.865  17.726  0.00  0.00    +0.000 A 
ATOM      9  C   UNL     1       2.137   8.099  18.757  0.00  0.00    +0.000 A 
ATOM     10  C   UNL     1       1.683   8.284  20.071  0.00  0.00    +0.000 A 
ATOM     11  C   UNL     1       0.697   9.230  20.361  0.00  0.00    +0.000 A 
ATOM     12  I   UNL     1       0.104   9.389  22.369  0.00  0.00    +0.000 I 
ENDBRANCH   1   9
BRANCH   3  13
ATOM     13  C   UNL     1       5.211   6.312  17.394  0.00  0.00    +0.000 A 
ATOM     14  C   UNL     1       5.953   5.663  18.387  0.00  0.00    +0.000 A 
ATOM     15  C   UNL     1       6.983   4.774  18.074  0.00  0.00    +0.000 A 
ATOM     16  C   UNL     1       7.286   4.507  16.746  0.00  0.00    +0.000 A 
ATOM     17  C   UNL     1       6.538   5.130  15.739  0.00  0.00    +0.000 A 
ATOM     18  C   UNL     1       5.492   6.020  16.054  0.00  0.00    +0.000 A 
BRANCH  17  19
ATOM     19  N   UNL     1       6.874   4.860  14.335  0.00  0.00    +0.000 N 
ATOM     20  O   UNL     1       6.177   4.041  13.719  0.00  0.00    +0.000 OA
ATOM     21  O   UNL     1       7.837   5.469  13.849  0.00  0.00    +0.000 OA
ENDBRANCH  17  19
ENDBRANCH   3  13
TORSDOF 3
ENDMDL
MODEL 2
REMARK VINA RESULT:      -7.5      2.230      2.806
REMARK  Name = 
REMARK  4 active torsions:
REMARK  status: ('A' for Active; 'I' for Inactive)
REMARK    1  A    between atoms: C_1  and  C_2
REMARK    2  A    between atoms: C_5  and  C_6
REMARK    3  A    between atoms: N_8  and  C_9
REMARK    4  A    between atoms: C_13  and  N_14
REMARK                            x       y       z     vdW  Elec       q    Type
REMARK                         _______ _______ _______ _____ _____    ______ ____
ROOT
ATOM      1  C   UNL     1       2.226   7.834  18.774  0.00  0.00    +0.000 C 
ATOM      2  O   UNL     1       2.356   8.366  17.673  0.00  0.00    +0.000 OA
ATOM      3  N   UNL     1       2.701   6.578  19.126  0.00  0.00    +0.000 N 
ATOM      4  H   UNL     1       2.353   6.165  19.983  0.00  0.00    +0.000 HD
ENDROOT
BRANCH   1   9
ATOM      5  C   UNL     1      -0.681  11.087  22.606  0.00  0.00    +0.000 C 
ATOM      6  C   UNL     1       0.035  10.232  21.596  0.00  0.00    +0.000 A 
ATOM      7  C   UNL     1       0.689   9.062  22.028  0.00  0.00    +0.000 A 
ATOM      8  C   UNL     1       1.385   8.240  21.132  0.00  0.00    +0.000 A 
ATOM      9  C   UNL     1       1.432   8.584  19.781  0.00  0.00    +0.000 A 
ATOM     10  C   UNL     1       0.786   9.749  19.339  0.00  0.00    +0.000 A 
ATOM     11  C   UNL     1       0.092  10.565  20.234  0.00  0.00    +0.000 A 
ATOM     12  I   UNL     1      -0.814  12.283  19.436  0.00  0.00    +0.000 I 
ENDBRANCH   1   9
BRANCH   3  13
ATOM     13  C   UNL     1       3.466   5.742  18.269  0.00  0.00    +0.000 A 
ATOM     14  C   UNL     1       2.953   4.562  17.718  0.00  0.00    +0.000 A 
ATOM     15  C   UNL     1       3.733   3.724  16.918  0.00  0.00    +0.000 A 
ATOM     16  C   UNL     1       5.051   4.062  16.642  0.00  0.00    +0.000 A 
ATOM     17  C   UNL     1       5.572   5.251  17.166  0.00  0.00    +0.000 A 
ATOM     18  C   UNL     1       4.784   6.102  17.966  0.00  0.00    +0.000 A 
BRANCH  17  19
ATOM     19  N   UNL     1       6.973   5.595  16.888  0.00  0.00    +0.000 N 
ATOM     20  O   UNL     1       7.262   6.793  16.763  0.00  0.00    +0.000 OA
ATOM     21  O   UNL     1       7.784   4.663  16.796  0.00  0.00    +0.000 OA
ENDBRANCH  17  19
ENDBRANCH   3  13
TORSDOF 3
ENDMDL
MODEL 3
REMARK VINA RESULT:      -7.5      2.534      3.298
REMARK  Name = 
REMARK  4 active torsions:
REMARK  status: ('A' for Active; 'I' for Inactive)
REMARK    1  A    between atoms: C_1  and  C_2
REMARK    2  A    between atoms: C_5  and  C_6
REMARK    3  A    between atoms: N_8  and  C_9
REMARK    4  A    between atoms: C_13  and  N_14
REMARK                            x       y       z     vdW  Elec       q    Type
REMARK                         _______ _______ _______ _____ _____    ______ ____
ROOT
ATOM      1  C   UNL     1       2.115   7.849  19.373  0.00  0.00    +0.000 C 
ATOM      2  O   UNL     1       2.320   8.374  18.280  0.00  0.00    +0.000 OA
ATOM      3  N   UNL     1       2.547   6.587  19.757  0.00  0.00    +0.000 N 
ATOM      4  H   UNL     1       2.141   6.184  20.593  0.00  0.00    +0.000 HD
ENDROOT
BRANCH   1   9
ATOM      5  C   UNL     1      -1.019  11.177  22.954  0.00  0.00    +0.000 C 
ATOM      6  C   UNL     1      -0.243  10.296  22.012  0.00  0.00    +0.000 A 
ATOM      7  C   UNL     1       0.563   9.270  22.541  0.00  0.00    +0.000 A 
ATOM      8  C   UNL     1       1.319   8.433  21.709  0.00  0.00    +0.000 A 
ATOM      9  C   UNL     1       1.274   8.617  20.327  0.00  0.00    +0.000 A 
ATOM     10  C   UNL     1       0.477   9.638  19.789  0.00  0.00    +0.000 A 
ATOM     11  C   UNL     1      -0.278  10.469  20.620  0.00  0.00    +0.000 A 
ATOM     12  I   UNL     1      -1.413  11.964  19.679  0.00  0.00    +0.000 I 
ENDBRANCH   1   9
BRANCH   3  13
ATOM     13  C   UNL     1       3.348   5.735  18.952  0.00  0.00    +0.000 A 
ATOM     14  C   UNL     1       2.797   4.811  18.056  0.00  0.00    +0.000 A 
ATOM     15  C   UNL     1       3.595   3.945  17.307  0.00  0.00    +0.000 A 
ATOM     16  C   UNL     1       4.977   3.996  17.433  0.00  0.00    +0.000 A 
ATOM     17  C   UNL     1       5.547   4.930  18.306  0.00  0.00    +0.000 A 
ATOM     18  C   UNL     1       4.742   5.811  19.056  0.00  0.00    +0.000 A 
BRANCH  17  19
ATOM     19  N   UNL     1       7.008   4.968  18.452  0.00  0.00    +0.000 N 
ATOM     20  O   UNL     1       7.696   4.704  17.456  0.00  0.00    +0.000 OA
ATOM     21  O   UNL     1       7.466   5.261  19.565  0.00  0.00    +0.000 OA
ENDBRANCH  17  19
ENDBRANCH   3  13
TORSDOF 3
ENDMDL
MODEL 4
REMARK VINA RESULT:      -7.4      1.823      2.246
REMARK  Name = 
REMARK  4 active torsions:
REMARK  status: ('A' for Active; 'I' for Inactive)
REMARK    1  A    between atoms: C_1  and  C_2
REMARK    2  A    between atoms: C_5  and  C_6
REMARK    3  A    between atoms: N_8  and  C_9
REMARK    4  A    between atoms: C_13  and  N_14
REMARK                            x       y       z     vdW  Elec       q    Type
REMARK                         _______ _______ _______ _____ _____    ______ ____
ROOT
ATOM      1  C   UNL     1       2.850   7.280  18.223  0.00  0.00    +0.000 C 
ATOM      2  O   UNL     1       2.625   6.155  18.666  0.00  0.00    +0.000 OA
ATOM      3  N   UNL     1       3.932   7.633  17.429  0.00  0.00    +0.000 N 
ATOM      4  H   UNL     1       4.123   8.620  17.304  0.00  0.00    +0.000 HD
ENDROOT
BRANCH   1   9
ATOM      5  C   UNL     1      -1.030  11.206  20.027  0.00  0.00    +0.000 C 
ATOM      6  C   UNL     1       0.007  10.211  19.579  0.00  0.00    +0.000 A 
ATOM      7  C   UNL     1       0.348  10.143  18.214  0.00  0.00    +0.000 A 
ATOM      8  C   UNL     1       1.293   9.223  17.742  0.00  0.00    +0.000 A 
ATOM      9  C   UNL     1       1.913   8.355  18.640  0.00  0.00    +0.000 A 
ATOM     10  C   UNL     1       1.580   8.412  20.002  0.00  0.00    +0.000 A 
ATOM     11  C   UNL     1       0.639   9.331  20.470  0.00  0.00    +0.000 A 
ATOM     12  I   UNL     1       0.227   9.294  22.529  0.00  0.00    +0.000 I 
ENDBRANCH   1   9
BRANCH   3  13
ATOM     13  C   UNL     1       4.913   6.720  16.959  0.00  0.00    +0.000 A 
ATOM     14  C   UNL     1       4.923   6.239  15.645  0.00  0.00    +0.000 A 
ATOM     15  C   UNL     1       5.864   5.303  15.210  0.00  0.00    +0.000 A 
ATOM     16  C   UNL     1       6.831   4.836  16.090  0.00  0.00    +0.000 A 
ATOM     17  C   UNL     1       6.850   5.324  17.402  0.00  0.00    +0.000 A 
ATOM     18  C   UNL     1       5.907   6.275  17.839  0.00  0.00    +0.000 A 
BRANCH  17  19
ATOM     19  N   UNL     1       7.862   4.812  18.336  0.00  0.00    +0.000 N 
ATOM     20  O   UNL     1       8.690   3.997  17.904  0.00  0.00    +0.000 OA
ATOM     21  O   UNL     1       7.828   5.227  19.502  0.00  0.00    +0.000 OA
ENDBRANCH  17  19
ENDBRANCH   3  13
TORSDOF 3
ENDMDL
MODEL 5
REMARK VINA RESULT:      -7.3      1.697      1.939
REMARK  Name = 
REMARK  4 active torsions:
REMARK  status: ('A' for Active; 'I' for Inactive)
REMARK    1  A    between atoms: C_1  and  C_2
REMARK    2  A    between atoms: C_5  and  C_6
REMARK    3  A    between atoms: N_8  and  C_9
REMARK    4  A    between atoms: C_13  and  N_14
REMARK                            x       y       z     vdW  Elec       q    Type
REMARK                         _______ _______ _______ _____ _____    ______ ____
ROOT
ATOM      1  C   UNL     1       2.201   7.384  19.190  0.00  0.00    +0.000 C 
ATOM      2  O   UNL     1       2.324   6.617  20.144  0.00  0.00    +0.000 OA
ATOM      3  N   UNL     1       2.785   7.219  17.941  0.00  0.00    +0.000 N 
ATOM      4  H   UNL     1       2.785   8.013  17.312  0.00  0.00    +0.000 HD
ENDROOT
BRANCH   1   9
ATOM      5  C   UNL     1      -1.148  11.997  20.292  0.00  0.00    +0.000 C 
ATOM      6  C   UNL     1      -0.249  10.820  20.029  0.00  0.00    +0.000 A 
ATOM      7  C   UNL     1       0.250  10.615  18.728  0.00  0.00    +0.000 A 
ATOM      8  C   UNL     1       1.077   9.524  18.426  0.00  0.00    +0.000 A 
ATOM      9  C   UNL     1       1.417   8.621  19.433  0.00  0.00    +0.000 A 
ATOM     10  C   UNL     1       0.924   8.815  20.732  0.00  0.00    +0.000 A 
ATOM     11  C   UNL     1       0.102   9.903  21.031  0.00  0.00    +0.000 A 
ATOM     12  I   UNL     1      -0.574  10.058  23.014  0.00  0.00    +0.000 I 
ENDBRANCH   1   9
BRANCH   3  13
ATOM     13  C   UNL     1       3.567   6.095  17.564  0.00  0.00    +0.000 A 
ATOM     14  C   UNL     1       3.038   4.801  17.492  0.00  0.00    +0.000 A 
ATOM     15  C   UNL     1       3.830   3.699  17.168  0.00  0.00    +0.000 A 
ATOM     16  C   UNL     1       5.181   3.874  16.897  0.00  0.00    +0.000 A 
ATOM     17  C   UNL     1       5.722   5.164  16.941  0.00  0.00    +0.000 A 
ATOM     18  C   UNL     1       4.921   6.279  17.259  0.00  0.00    +0.000 A 
BRANCH  17  19
ATOM     19  N   UNL     1       7.155   5.343  16.673  0.00  0.00    +0.000 N 
ATOM     20  O   UNL     1       7.931   4.455  17.054  0.00  0.00    +0.000 OA
ATOM     21  O   UNL     1       7.503   6.373  16.080  0.00  0.00    +0.000 OA
ENDBRANCH  17  19
ENDBRANCH   3  13
TORSDOF 3
ENDMDL
MODEL 6
REMARK VINA RESULT:      -7.3      3.203      4.274
REMARK  Name = 
REMARK  4 active torsions:
REMARK  status: ('A' for Active; 'I' for Inactive)
REMARK    1  A    between atoms: C_1  and  C_2
REMARK    2  A    between atoms: C_5  and  C_6
REMARK    3  A    between atoms: N_8  and  C_9
REMARK    4  A    between atoms: C_13  and  N_14
REMARK                            x       y       z     vdW  Elec       q    Type
REMARK                         _______ _______ _______ _____ _____    ______ ____
ROOT
ATOM      1  C   UNL     1       4.703   4.480  16.654  0.00  0.00    +0.000 C 
ATOM      2  O   UNL     1       4.989   3.293  16.801  0.00  0.00    +0.000 OA
ATOM      3  N   UNL     1       5.081   5.275  15.580  0.00  0.00    +0.000 N 
ATOM      4  H   UNL     1       4.968   6.277  15.673  0.00  0.00    +0.000 HD
ENDROOT
BRANCH   1   9
ATOM      5  C   UNL     1       1.464   6.729  20.916  0.00  0.00    +0.000 C 
ATOM      6  C   UNL     1       2.335   6.140  19.840  0.00  0.00    +0.000 A 
ATOM      7  C   UNL     1       2.845   6.982  18.832  0.00  0.00    +0.000 A 
ATOM      8  C   UNL     1       3.646   6.481  17.798  0.00  0.00    +0.000 A 
ATOM      9  C   UNL     1       3.948   5.120  17.762  0.00  0.00    +0.000 A 
ATOM     10  C   UNL     1       3.444   4.271  18.759  0.00  0.00    +0.000 A 
ATOM     11  C   UNL     1       2.648   4.773  19.790  0.00  0.00    +0.000 A 
ATOM     12  I   UNL     1       1.951   3.386  21.204  0.00  0.00    +0.000 I 
ENDBRANCH   1   9
BRANCH   3  13
ATOM     13  C   UNL     1       5.810   4.807  14.455  0.00  0.00    +0.000 A 
ATOM     14  C   UNL     1       7.104   5.253  14.160  0.00  0.00    +0.000 A 
ATOM     15  C   UNL     1       7.790   4.823  13.023  0.00  0.00    +0.000 A 
ATOM     16  C   UNL     1       7.191   3.918  12.156  0.00  0.00    +0.000 A 
ATOM     17  C   UNL     1       5.907   3.443  12.448  0.00  0.00    +0.000 A 
ATOM     18  C   UNL     1       5.217   3.871  13.600  0.00  0.00    +0.000 A 
BRANCH  17  19
ATOM     19  N   UNL     1       5.270   2.502  11.518  0.00  0.00    +0.000 N 
ATOM     20  O   UNL     1       4.151   2.795  11.073  0.00  0.00    +0.000 OA
ATOM     21  O   UNL     1       5.891   1.469  11.232  0.00  0.00    +0.000 OA
ENDBRANCH  17  19
ENDBRANCH   3  13
TORSDOF 3
ENDMDL
MODEL 7
REMARK VINA RESULT:      -7.2      2.237      2.779
REMARK  Name = 
REMARK  4 active torsions:
REMARK  status: ('A' for Active; 'I' for Inactive)
REMARK    1  A    between atoms: C_1  and  C_2
REMARK    2  A    between atoms: C_5  and  C_6
REMARK    3  A    between atoms: N_8  and  C_9
REMARK    4  A    between atoms: C_13  and  N_14
REMARK                            x       y       z     vdW  Elec       q    Type
REMARK                         _______ _______ _______ _____ _____    ______ ____
ROOT
ATOM      1  C   UNL     1       2.178   8.218  18.255  0.00  0.00    +0.000 C 
ATOM      2  O   UNL     1       2.582   8.458  17.119  0.00  0.00    +0.000 OA
ATOM      3  N   UNL     1       2.303   7.006  18.918  0.00  0.00    +0.000 N 
ATOM      4  H   UNL     1       1.750   6.867  19.756  0.00  0.00    +0.000 HD
ENDROOT
BRANCH   1   9
ATOM      5  C   UNL     1      -1.006  12.219  21.007  0.00  0.00    +0.000 C 
ATOM      6  C   UNL     1      -0.148  11.193  20.319  0.00  0.00    +0.000 A 
ATOM      7  C   UNL     1       0.243  11.410  18.983  0.00  0.00    +0.000 A 
ATOM      8  C   UNL     1       1.028  10.478  18.291  0.00  0.00    +0.000 A 
ATOM      9  C   UNL     1       1.433   9.309  18.935  0.00  0.00    +0.000 A 
ATOM     10  C   UNL     1       1.047   9.081  20.264  0.00  0.00    +0.000 A 
ATOM     11  C   UNL     1       0.267  10.013  20.953  0.00  0.00    +0.000 A 
ATOM     12  I   UNL     1      -0.247   9.533  22.932  0.00  0.00    +0.000 I 
ENDBRANCH   1   9
BRANCH   3  13
ATOM     13  C   UNL     1       2.978   5.872  18.394  0.00  0.00    +0.000 A 
ATOM     14  C   UNL     1       2.297   4.778  17.847  0.00  0.00    +0.000 A 
ATOM     15  C   UNL     1       2.972   3.649  17.380  0.00  0.00    +0.000 A 
ATOM     16  C   UNL     1       4.358   3.597  17.443  0.00  0.00    +0.000 A 
ATOM     17  C   UNL     1       5.057   4.692  17.965  0.00  0.00    +0.000 A 
ATOM     18  C   UNL     1       4.377   5.836  18.428  0.00  0.00    +0.000 A 
BRANCH  17  19
ATOM     19  N   UNL     1       6.522   4.625  18.048  0.00  0.00    +0.000 N 
ATOM     20  O   UNL     1       7.047   4.774  19.160  0.00  0.00    +0.000 OA
ATOM     21  O   UNL     1       7.146   4.422  16.997  0.00  0.00    +0.000 OA
ENDBRANCH  17  19
ENDBRANCH   3  13
TORSDOF 3
ENDMDL
MODEL 8
REMARK VINA RESULT:      -7.2      2.145      2.697
REMARK  Name = 
REMARK  4 active torsions:
REMARK  status: ('A' for Active; 'I' for Inactive)
REMARK    1  A    between atoms: C_1  and  C_2
REMARK    2  A    between atoms: C_5  and  C_6
REMARK    3  A    between atoms: N_8  and  C_9
REMARK    4  A    between atoms: C_13  and  N_14
REMARK                            x       y       z     vdW  Elec       q    Type
REMARK                         _______ _______ _______ _____ _____    ______ ____
ROOT
ATOM      1  C   UNL     1       2.191   6.857  19.814  0.00  0.00    +0.000 C 
ATOM      2  O   UNL     1       2.227   5.843  20.509  0.00  0.00    +0.000 OA
ATOM      3  N   UNL     1       2.838   7.025  18.597  0.00  0.00    +0.000 N 
ATOM      4  H   UNL     1       2.907   7.965  18.227  0.00  0.00    +0.000 HD
ENDROOT
BRANCH   1   9
ATOM      5  C   UNL     1      -0.401  11.595  21.948  0.00  0.00    +0.000 C 
ATOM      6  C   UNL     1       0.240  10.364  21.366  0.00  0.00    +0.000 A 
ATOM      7  C   UNL     1       0.235   9.170  22.112  0.00  0.00    +0.000 A 
ATOM      8  C   UNL     1       0.832   8.000  21.624  0.00  0.00    +0.000 A 
ATOM      9  C   UNL     1       1.445   8.014  20.372  0.00  0.00    +0.000 A 
ATOM     10  C   UNL     1       1.459   9.199  19.620  0.00  0.00    +0.000 A 
ATOM     11  C   UNL     1       0.861  10.362  20.108  0.00  0.00    +0.000 A 
ATOM     12  I   UNL     1       0.970  12.064  18.882  0.00  0.00    +0.000 I 
ENDBRANCH   1   9
BRANCH   3  13
ATOM     13  C   UNL     1       3.594   6.015  17.945  0.00  0.00    +0.000 A 
ATOM     14  C   UNL     1       3.044   4.778  17.589  0.00  0.00    +0.000 A 
ATOM     15  C   UNL     1       3.812   3.775  16.993  0.00  0.00    +0.000 A 
ATOM     16  C   UNL     1       5.157   3.999  16.729  0.00  0.00    +0.000 A 
ATOM     17  C   UNL     1       5.717   5.240  17.058  0.00  0.00    +0.000 A 
ATOM     18  C   UNL     1       4.941   6.255  17.651  0.00  0.00    +0.000 A 
BRANCH  17  19
ATOM     19  N   UNL     1       7.144   5.466  16.795  0.00  0.00    +0.000 N 
ATOM     20  O   UNL     1       7.507   6.615  16.510  0.00  0.00    +0.000 OA
ATOM     21  O   UNL     1       7.903   4.490  16.876  0.00  0.00    +0.000 OA
ENDBRANCH  17  19
ENDBRANCH   3  13
TORSDOF 3
ENDMDL
MODEL 9
REMARK VINA RESULT:      -7.2      3.209      3.953
REMARK  Name = 
REMARK  4 active torsions:
REMARK  status: ('A' for Active; 'I' for Inactive)
REMARK    1  A    between atoms: C_1  and  C_2
REMARK    2  A    between atoms: C_5  and  C_6
REMARK    3  A    between atoms: N_8  and  C_9
REMARK    4  A    between atoms: C_13  and  N_14
REMARK                            x       y       z     vdW  Elec       q    Type
REMARK                         _______ _______ _______ _____ _____    ______ ____
ROOT
ATOM      1  C   UNL     1       1.879   7.960  19.564  0.00  0.00    +0.000 C 
ATOM      2  O   UNL     1       1.949   8.343  18.398  0.00  0.00    +0.000 OA
ATOM      3  N   UNL     1       2.454   6.803  20.071  0.00  0.00    +0.000 N 
ATOM      4  H   UNL     1       2.152   6.488  20.985  0.00  0.00    +0.000 HD
ENDROOT
BRANCH   1   9
ATOM      5  C   UNL     1      -1.213  11.489  22.986  0.00  0.00    +0.000 C 
ATOM      6  C   UNL     1      -0.449  10.557  22.085  0.00  0.00    +0.000 A 
ATOM      7  C   UNL     1       0.322   9.527  22.660  0.00  0.00    +0.000 A 
ATOM      8  C   UNL     1       1.067   8.643  21.867  0.00  0.00    +0.000 A 
ATOM      9  C   UNL     1       1.046   8.782  20.480  0.00  0.00    +0.000 A 
ATOM     10  C   UNL     1       0.283   9.805  19.897  0.00  0.00    +0.000 A 
ATOM     11  C   UNL     1      -0.460  10.683  20.688  0.00  0.00    +0.000 A 
ATOM     12  I   UNL     1      -1.542  12.175  19.682  0.00  0.00    +0.000 I 
ENDBRANCH   1   9
BRANCH   3  13
ATOM     13  C   UNL     1       3.267   5.916  19.316  0.00  0.00    +0.000 A 
ATOM     14  C   UNL     1       3.954   6.321  18.166  0.00  0.00    +0.000 A 
ATOM     15  C   UNL     1       4.709   5.426  17.406  0.00  0.00    +0.000 A 
ATOM     16  C   UNL     1       4.802   4.096  17.795  0.00  0.00    +0.000 A 
ATOM     17  C   UNL     1       4.140   3.679  18.956  0.00  0.00    +0.000 A 
ATOM     18  C   UNL     1       3.384   4.583  19.728  0.00  0.00    +0.000 A 
BRANCH  17  19
ATOM     19  N   UNL     1       4.224   2.267  19.352  0.00  0.00    +0.000 N 
ATOM     20  O   UNL     1       3.606   1.436  18.672  0.00  0.00    +0.000 OA
ATOM     21  O   UNL     1       4.910   1.990  20.345  0.00  0.00    +0.000 OA
ENDBRANCH  17  19
ENDBRANCH   3  13
TORSDOF 3
ENDMDL
