MODEL 1
REMARK VINA RESULT:      -9.1      0.000      0.000
REMARK  Name = 
REMARK  9 active torsions:
REMARK  status: ('A' for Active; 'I' for Inactive)
REMARK    1  A    between atoms: C_1  and  C_2
REMARK    2  A    between atoms: C_5  and  C_6
REMARK    3  A    between atoms: C_6  and  C_8
REMARK    4  A    between atoms: C_8  and  C_9
REMARK    5  A    between atoms: C_8  and  O_10
REMARK    6  A    between atoms: O_10  and  C_11
REMARK    7  A    between atoms: C_11  and  C_13
REMARK    8  A    between atoms: C_15  and  C_16
REMARK    9  A    between atoms: C_19  and  C_20
REMARK                            x       y       z     vdW  Elec       q    Type
REMARK                         _______ _______ _______ _____ _____    ______ ____
ROOT
ATOM      1  C   UNL     1       3.062   6.711  18.746  0.00  0.00    +0.000 A 
ATOM      2  C   UNL     1       2.443   7.831  19.309  0.00  0.00    +0.000 A 
ATOM      3  C   UNL     1       1.549   7.655  20.350  0.00  0.00    +0.000 A 
ATOM      4  N   UNL     1       1.281   6.425  20.846  0.00  0.00    +0.000 NA
ATOM      5  C   UNL     1       1.855   5.342  20.298  0.00  0.00    +0.000 A 
ATOM      6  C   UNL     1       1.553   4.102  20.845  0.00  0.00    +0.000 A 
ATOM      7  C   UNL     1       2.058   2.911  20.316  0.00  0.00    +0.000 A 
ATOM      8  C   UNL     1       2.884   2.964  19.207  0.00  0.00    +0.000 A 
ATOM      9 BR   UNL     1       3.526   1.366  18.428  0.00  0.00    +0.000 Br
ATOM     10  C   UNL     1       3.237   4.195  18.659  0.00  0.00    +0.000 A 
ATOM     11  C   UNL     1       2.741   5.410  19.204  0.00  0.00    +0.000 A 
ENDROOT
BRANCH   3  12
ATOM     12  C   UNL     1       0.803   8.785  20.951  0.00  0.00    +0.000 A 
ATOM     13  C   UNL     1       0.492   9.930  20.196  0.00  0.00    +0.000 A 
ATOM     14  C   UNL     1      -0.142  11.038  20.772  0.00  0.00    +0.000 A 
ATOM     15  C   UNL     1      -0.492  11.028  22.124  0.00  0.00    +0.000 A 
ATOM     16  C   UNL     1      -1.125  12.221  22.774  0.00  0.00    +0.000 C 
ATOM     17  C   UNL     1      -0.225   9.886  22.881  0.00  0.00    +0.000 A 
ATOM     18  C   UNL     1       0.405   8.780  22.301  0.00  0.00    +0.000 A 
ENDBRANCH   3  12
BRANCH   1  19
ATOM     19  C   UNL     1       4.055   6.946  17.669  0.00  0.00    +0.000 C 
ATOM     20  O   UNL     1       3.780   7.095  16.491  0.00  0.00    +0.000 OA
BRANCH  19  21
ATOM     21  O   UNL     1       5.306   6.899  18.194  0.00  0.00    +0.000 OA
BRANCH  21  22
ATOM     22  C   UNL     1       6.104   5.752  17.845  0.00  0.00    +0.000 C 
ATOM     23  C   UNL     1       7.051   5.505  19.014  0.00  0.00    +0.000 C 
BRANCH  22  24
ATOM     24  C   UNL     1       6.894   6.031  16.559  0.00  0.00    +0.000 C 
ATOM     25  O   UNL     1       7.754   6.913  16.507  0.00  0.00    +0.000 OA
BRANCH  24  30
ATOM     26  C   UNL     1       5.661   2.853  11.826  0.00  0.00    +0.000 C 
ATOM     27  C   UNL     1       5.996   3.643  13.057  0.00  0.00    +0.000 A 
ATOM     28  C   UNL     1       5.191   3.588  14.199  0.00  0.00    +0.000 A 
ATOM     29  C   UNL     1       5.502   4.363  15.323  0.00  0.00    +0.000 A 
ATOM     30  C   UNL     1       6.623   5.207  15.329  0.00  0.00    +0.000 A 
ATOM     31  C   UNL     1       7.436   5.245  14.191  0.00  0.00    +0.000 A 
ATOM     32  C   UNL     1       7.122   4.472  13.066  0.00  0.00    +0.000 A 
ENDBRANCH  24  30
ENDBRANCH  22  24
ENDBRANCH  21  22
ENDBRANCH  19  21
ENDBRANCH   1  19
TORSDOF 6
ENDMDL
MODEL 2
REMARK VINA RESULT:      -9.1      0.115      1.207
REMARK  Name = 
REMARK  9 active torsions:
REMARK  status: ('A' for Active; 'I' for Inactive)
REMARK    1  A    between atoms: C_1  and  C_2
REMARK    2  A    between atoms: C_5  and  C_6
REMARK    3  A    between atoms: C_6  and  C_8
REMARK    4  A    between atoms: C_8  and  C_9
REMARK    5  A    between atoms: C_8  and  O_10
REMARK    6  A    between atoms: O_10  and  C_11
REMARK    7  A    between atoms: C_11  and  C_13
REMARK    8  A    between atoms: C_15  and  C_16
REMARK    9  A    between atoms: C_19  and  C_20
REMARK                            x       y       z     vdW  Elec       q    Type
REMARK                         _______ _______ _______ _____ _____    ______ ____
ROOT
ATOM      1  C   UNL     1       3.094   6.717  18.761  0.00  0.00    +0.000 A 
ATOM      2  C   UNL     1       2.494   7.839  19.339  0.00  0.00    +0.000 A 
ATOM      3  C   UNL     1       1.615   7.665  20.395  0.00  0.00    +0.000 A 
ATOM      4  N   UNL     1       1.345   6.436  20.889  0.00  0.00    +0.000 NA
ATOM      5  C   UNL     1       1.902   5.350  20.326  0.00  0.00    +0.000 A 
ATOM      6  C   UNL     1       1.597   4.110  20.873  0.00  0.00    +0.000 A 
ATOM      7  C   UNL     1       2.084   2.918  20.330  0.00  0.00    +0.000 A 
ATOM      8  C   UNL     1       2.892   2.969  19.207  0.00  0.00    +0.000 A 
ATOM      9 BR   UNL     1       3.507   1.369  18.411  0.00  0.00    +0.000 Br
ATOM     10  C   UNL     1       3.246   4.199  18.659  0.00  0.00    +0.000 A 
ATOM     11  C   UNL     1       2.769   5.416  19.218  0.00  0.00    +0.000 A 
ENDROOT
BRANCH   3  12
ATOM     12  C   UNL     1       0.889   8.799  21.013  0.00  0.00    +0.000 A 
ATOM     13  C   UNL     1       0.416   8.721  22.335  0.00  0.00    +0.000 A 
ATOM     14  C   UNL     1      -0.340   9.752  22.905  0.00  0.00    +0.000 A 
ATOM     15  C   UNL     1      -0.641  10.899  22.167  0.00  0.00    +0.000 A 
ATOM     16  C   UNL     1      -1.491  11.993  22.738  0.00  0.00    +0.000 C 
ATOM     17  C   UNL     1      -0.149  11.011  20.865  0.00  0.00    +0.000 A 
ATOM     18  C   UNL     1       0.609   9.980  20.301  0.00  0.00    +0.000 A 
ENDBRANCH   3  12
BRANCH   1  19
ATOM     19  C   UNL     1       4.071   6.948  17.669  0.00  0.00    +0.000 C 
ATOM     20  O   UNL     1       3.782   7.068  16.491  0.00  0.00    +0.000 OA
BRANCH  19  21
ATOM     21  O   UNL     1       5.328   6.935  18.182  0.00  0.00    +0.000 OA
BRANCH  21  22
ATOM     22  C   UNL     1       6.137   5.786  17.865  0.00  0.00    +0.000 C 
ATOM     23  C   UNL     1       7.101   5.594  19.030  0.00  0.00    +0.000 C 
BRANCH  22  24
ATOM     24  C   UNL     1       6.907   6.028  16.560  0.00  0.00    +0.000 C 
ATOM     25  O   UNL     1       7.795   6.880  16.481  0.00  0.00    +0.000 OA
BRANCH  24  30
ATOM     26  C   UNL     1       5.828   2.822  11.807  0.00  0.00    +0.000 C 
ATOM     27  C   UNL     1       6.086   3.673  13.016  0.00  0.00    +0.000 A 
ATOM     28  C   UNL     1       7.177   4.546  13.071  0.00  0.00    +0.000 A 
ATOM     29  C   UNL     1       7.422   5.304  14.223  0.00  0.00    +0.000 A 
ATOM     30  C   UNL     1       6.582   5.204  15.343  0.00  0.00    +0.000 A 
ATOM     31  C   UNL     1       5.480   4.343  15.277  0.00  0.00    +0.000 A 
ATOM     32  C   UNL     1       5.239   3.584  14.125  0.00  0.00    +0.000 A 
ENDBRANCH  24  30
ENDBRANCH  22  24
ENDBRANCH  21  22
ENDBRANCH  19  21
ENDBRANCH   1  19
TORSDOF 6
ENDMDL
MODEL 3
REMARK VINA RESULT:      -8.7      4.866     10.602
REMARK  Name = 
REMARK  9 active torsions:
REMARK  status: ('A' for Active; 'I' for Inactive)
REMARK    1  A    between atoms: C_1  and  C_2
REMARK    2  A    between atoms: C_5  and  C_6
REMARK    3  A    between atoms: C_6  and  C_8
REMARK    4  A    between atoms: C_8  and  C_9
REMARK    5  A    between atoms: C_8  and  O_10
REMARK    6  A    between atoms: O_10  and  C_11
REMARK    7  A    between atoms: C_11  and  C_13
REMARK    8  A    between atoms: C_15  and  C_16
REMARK    9  A    between atoms: C_19  and  C_20
REMARK                            x       y       z     vdW  Elec       q    Type
REMARK                         _______ _______ _______ _____ _____    ______ ____
ROOT
ATOM      1  C   UNL     1      -0.376  11.007  19.129  0.00  0.00    +0.000 A 
ATOM      2  C   UNL     1       0.495  10.064  18.577  0.00  0.00    +0.000 A 
ATOM      3  C   UNL     1       1.047   9.095  19.396  0.00  0.00    +0.000 A 
ATOM      4  N   UNL     1       0.742   9.031  20.713  0.00  0.00    +0.000 NA
ATOM      5  C   UNL     1      -0.078   9.946  21.256  0.00  0.00    +0.000 A 
ATOM      6  C   UNL     1      -0.364   9.835  22.610  0.00  0.00    +0.000 A 
ATOM      7  C   UNL     1      -1.164  10.765  23.280  0.00  0.00    +0.000 A 
ATOM      8  C   UNL     1      -1.687  11.836  22.576  0.00  0.00    +0.000 A 
ATOM      9 BR   UNL     1      -2.715  13.145  23.470  0.00  0.00    +0.000 Br
ATOM     10  C   UNL     1      -1.450  11.953  21.208  0.00  0.00    +0.000 A 
ATOM     11  C   UNL     1      -0.652  11.001  20.518  0.00  0.00    +0.000 A 
ENDROOT
BRANCH   3  12
ATOM     12  C   UNL     1       2.030   8.105  18.899  0.00  0.00    +0.000 A 
ATOM     13  C   UNL     1       2.301   6.927  19.619  0.00  0.00    +0.000 A 
ATOM     14  C   UNL     1       3.284   6.023  19.201  0.00  0.00    +0.000 A 
ATOM     15  C   UNL     1       4.024   6.268  18.042  0.00  0.00    +0.000 A 
ATOM     16  C   UNL     1       5.116   5.339  17.604  0.00  0.00    +0.000 C 
ATOM     17  C   UNL     1       3.745   7.413  17.294  0.00  0.00    +0.000 A 
ATOM     18  C   UNL     1       2.759   8.312  17.712  0.00  0.00    +0.000 A 
ENDBRANCH   3  12
BRANCH   1  19
ATOM     19  C   UNL     1      -0.990  11.995  18.208  0.00  0.00    +0.000 C 
ATOM     20  O   UNL     1      -0.777  13.195  18.233  0.00  0.00    +0.000 OA
BRANCH  19  21
ATOM     21  O   UNL     1      -1.868  11.361  17.390  0.00  0.00    +0.000 OA
BRANCH  21  22
ATOM     22  C   UNL     1      -2.989  10.719  18.028  0.00  0.00    +0.000 C 
ATOM     23  C   UNL     1      -3.103   9.327  17.416  0.00  0.00    +0.000 C 
BRANCH  22  24
ATOM     24  C   UNL     1      -4.270  11.526  17.779  0.00  0.00    +0.000 C 
ATOM     25  O   UNL     1      -4.539  11.986  16.667  0.00  0.00    +0.000 OA
BRANCH  24  30
ATOM     26  C   UNL     1      -7.916  12.595  22.205  0.00  0.00    +0.000 C 
ATOM     27  C   UNL     1      -6.966  12.291  21.083  0.00  0.00    +0.000 A 
ATOM     28  C   UNL     1      -5.654  12.775  21.090  0.00  0.00    +0.000 A 
ATOM     29  C   UNL     1      -4.796  12.511  20.015  0.00  0.00    +0.000 A 
ATOM     30  C   UNL     1      -5.232  11.759  18.913  0.00  0.00    +0.000 A 
ATOM     31  C   UNL     1      -6.540  11.261  18.919  0.00  0.00    +0.000 A 
ATOM     32  C   UNL     1      -7.398  11.529  19.993  0.00  0.00    +0.000 A 
ENDBRANCH  24  30
ENDBRANCH  22  24
ENDBRANCH  21  22
ENDBRANCH  19  21
ENDBRANCH   1  19
TORSDOF 6
ENDMDL
MODEL 4
REMARK VINA RESULT:      -8.0      1.616      3.511
REMARK  Name = 
REMARK  9 active torsions:
REMARK  status: ('A' for Active; 'I' for Inactive)
REMARK    1  A    between atoms: C_1  and  C_2
REMARK    2  A    between atoms: C_5  and  C_6
REMARK    3  A    between atoms: C_6  and  C_8
REMARK    4  A    between atoms: C_8  and  C_9
REMARK    5  A    between atoms: C_8  and  O_10
REMARK    6  A    between atoms: O_10  and  C_11
REMARK    7  A    between atoms: C_11  and  C_13
REMARK    8  A    between atoms: C_15  and  C_16
REMARK    9  A    between atoms: C_19  and  C_20
REMARK                            x       y       z     vdW  Elec       q    Type
REMARK                         _______ _______ _______ _____ _____    ______ ____
ROOT
ATOM      1  C   UNL     1       3.003   6.557  18.556  0.00  0.00    +0.000 A 
ATOM      2  C   UNL     1       2.413   7.706  19.090  0.00  0.00    +0.000 A 
ATOM      3  C   UNL     1       1.684   7.608  20.262  0.00  0.00    +0.000 A 
ATOM      4  N   UNL     1       1.551   6.429  20.910  0.00  0.00    +0.000 NA
ATOM      5  C   UNL     1       2.097   5.315  20.394  0.00  0.00    +0.000 A 
ATOM      6  C   UNL     1       1.937   4.129  21.099  0.00  0.00    +0.000 A 
ATOM      7  C   UNL     1       2.423   2.909  20.622  0.00  0.00    +0.000 A 
ATOM      8  C   UNL     1       3.081   2.875  19.405  0.00  0.00    +0.000 A 
ATOM      9 BR   UNL     1       3.687   1.228  18.704  0.00  0.00    +0.000 Br
ATOM     10  C   UNL     1       3.291   4.053  18.693  0.00  0.00    +0.000 A 
ATOM     11  C   UNL     1       2.816   5.300  19.182  0.00  0.00    +0.000 A 
ENDROOT
BRANCH   3  12
ATOM     12  C   UNL     1       0.973   8.768  20.850  0.00  0.00    +0.000 A 
ATOM     13  C   UNL     1       0.734   8.845  22.234  0.00  0.00    +0.000 A 
ATOM     14  C   UNL     1      -0.005   9.895  22.792  0.00  0.00    +0.000 A 
ATOM     15  C   UNL     1      -0.522  10.906  21.980  0.00  0.00    +0.000 A 
ATOM     16  C   UNL     1      -1.359  12.011  22.548  0.00  0.00    +0.000 C 
ATOM     17  C   UNL     1      -0.264  10.866  20.608  0.00  0.00    +0.000 A 
ATOM     18  C   UNL     1       0.478   9.818  20.055  0.00  0.00    +0.000 A 
ENDBRANCH   3  12
BRANCH   1  19
ATOM     19  C   UNL     1       3.822   6.713  17.330  0.00  0.00    +0.000 C 
ATOM     20  O   UNL     1       3.858   7.718  16.640  0.00  0.00    +0.000 OA
BRANCH  19  21
ATOM     21  O   UNL     1       4.463   5.545  17.066  0.00  0.00    +0.000 OA
BRANCH  21  22
ATOM     22  C   UNL     1       5.530   5.604  16.101  0.00  0.00    +0.000 C 
ATOM     23  C   UNL     1       5.347   4.409  15.172  0.00  0.00    +0.000 C 
BRANCH  22  24
ATOM     24  C   UNL     1       6.888   5.531  16.813  0.00  0.00    +0.000 C 
ATOM     25  O   UNL     1       7.539   4.485  16.860  0.00  0.00    +0.000 OA
BRANCH  24  30
ATOM     26  C   UNL     1       9.206  10.213  19.408  0.00  0.00    +0.000 C 
ATOM     27  C   UNL     1       8.580   9.013  18.760  0.00  0.00    +0.000 A 
ATOM     28  C   UNL     1       8.707   7.736  19.316  0.00  0.00    +0.000 A 
ATOM     29  C   UNL     1       8.148   6.624  18.675  0.00  0.00    +0.000 A 
ATOM     30  C   UNL     1       7.450   6.766  17.465  0.00  0.00    +0.000 A 
ATOM     31  C   UNL     1       7.309   8.048  16.922  0.00  0.00    +0.000 A 
ATOM     32  C   UNL     1       7.872   9.158  17.563  0.00  0.00    +0.000 A 
ENDBRANCH  24  30
ENDBRANCH  22  24
ENDBRANCH  21  22
ENDBRANCH  19  21
ENDBRANCH   1  19
TORSDOF 6
ENDMDL
MODEL 5
REMARK VINA RESULT:      -7.9      1.131      1.816
REMARK  Name = 
REMARK  9 active torsions:
REMARK  status: ('A' for Active; 'I' for Inactive)
REMARK    1  A    between atoms: C_1  and  C_2
REMARK    2  A    between atoms: C_5  and  C_6
REMARK    3  A    between atoms: C_6  and  C_8
REMARK    4  A    between atoms: C_8  and  C_9
REMARK    5  A    between atoms: C_8  and  O_10
REMARK    6  A    between atoms: O_10  and  C_11
REMARK    7  A    between atoms: C_11  and  C_13
REMARK    8  A    between atoms: C_15  and  C_16
REMARK    9  A    between atoms: C_19  and  C_20
REMARK                            x       y       z     vdW  Elec       q    Type
REMARK                         _______ _______ _______ _____ _____    ______ ____
ROOT
ATOM      1  C   UNL     1       3.636   6.823  17.877  0.00  0.00    +0.000 A 
ATOM      2  C   UNL     1       3.063   8.067  18.156  0.00  0.00    +0.000 A 
ATOM      3  C   UNL     1       2.036   8.146  19.081  0.00  0.00    +0.000 A 
ATOM      4  N   UNL     1       1.593   7.047  19.733  0.00  0.00    +0.000 NA
ATOM      5  C   UNL     1       2.123   5.844  19.456  0.00  0.00    +0.000 A 
ATOM      6  C   UNL     1       1.638   4.747  20.156  0.00  0.00    +0.000 A 
ATOM      7  C   UNL     1       2.087   3.447  19.907  0.00  0.00    +0.000 A 
ATOM      8  C   UNL     1       3.043   3.241  18.927  0.00  0.00    +0.000 A 
ATOM      9 BR   UNL     1       3.617   1.487  18.520  0.00  0.00    +0.000 Br
ATOM     10  C   UNL     1       3.577   4.325  18.235  0.00  0.00    +0.000 A 
ATOM     11  C   UNL     1       3.137   5.651  18.497  0.00  0.00    +0.000 A 
ENDROOT
BRANCH   3  12
ATOM     12  C   UNL     1       1.335   9.416  19.377  0.00  0.00    +0.000 A 
ATOM     13  C   UNL     1       0.423   9.508  20.444  0.00  0.00    +0.000 A 
ATOM     14  C   UNL     1      -0.306  10.679  20.686  0.00  0.00    +0.000 A 
ATOM     15  C   UNL     1      -0.137  11.799  19.869  0.00  0.00    +0.000 A 
ATOM     16  C   UNL     1      -0.942  13.045  20.079  0.00  0.00    +0.000 C 
ATOM     17  C   UNL     1       0.792  11.739  18.828  0.00  0.00    +0.000 A 
ATOM     18  C   UNL     1       1.520  10.569  18.592  0.00  0.00    +0.000 A 
ENDBRANCH   3  12
BRANCH   1  19
ATOM     19  C   UNL     1       4.770   6.789  16.923  0.00  0.00    +0.000 C 
ATOM     20  O   UNL     1       4.657   6.759  15.709  0.00  0.00    +0.000 OA
BRANCH  19  21
ATOM     21  O   UNL     1       5.936   6.726  17.614  0.00  0.00    +0.000 OA
BRANCH  21  22
ATOM     22  C   UNL     1       6.303   5.434  18.135  0.00  0.00    +0.000 C 
ATOM     23  C   UNL     1       7.016   5.683  19.460  0.00  0.00    +0.000 C 
BRANCH  22  24
ATOM     24  C   UNL     1       7.232   4.712  17.149  0.00  0.00    +0.000 C 
ATOM     25  O   UNL     1       8.385   4.403  17.455  0.00  0.00    +0.000 OA
BRANCH  24  30
ATOM     26  C   UNL     1       5.446   3.370  11.761  0.00  0.00    +0.000 C 
ATOM     27  C   UNL     1       5.884   3.744  13.147  0.00  0.00    +0.000 A 
ATOM     28  C   UNL     1       6.958   4.612  13.361  0.00  0.00    +0.000 A 
ATOM     29  C   UNL     1       7.375   4.918  14.662  0.00  0.00    +0.000 A 
ATOM     30  C   UNL     1       6.726   4.362  15.775  0.00  0.00    +0.000 A 
ATOM     31  C   UNL     1       5.639   3.508  15.557  0.00  0.00    +0.000 A 
ATOM     32  C   UNL     1       5.226   3.201  14.254  0.00  0.00    +0.000 A 
ENDBRANCH  24  30
ENDBRANCH  22  24
ENDBRANCH  21  22
ENDBRANCH  19  21
ENDBRANCH   1  19
TORSDOF 6
ENDMDL
MODEL 6
REMARK VINA RESULT:      -7.9      0.690      1.090
REMARK  Name = 
REMARK  9 active torsions:
REMARK  status: ('A' for Active; 'I' for Inactive)
REMARK    1  A    between atoms: C_1  and  C_2
REMARK    2  A    between atoms: C_5  and  C_6
REMARK    3  A    between atoms: C_6  and  C_8
REMARK    4  A    between atoms: C_8  and  C_9
REMARK    5  A    between atoms: C_8  and  O_10
REMARK    6  A    between atoms: O_10  and  C_11
REMARK    7  A    between atoms: C_11  and  C_13
REMARK    8  A    between atoms: C_15  and  C_16
REMARK    9  A    between atoms: C_19  and  C_20
REMARK                            x       y       z     vdW  Elec       q    Type
REMARK                         _______ _______ _______ _____ _____    ______ ____
ROOT
ATOM      1  C   UNL     1       3.304   6.571  18.525  0.00  0.00    +0.000 A 
ATOM      2  C   UNL     1       2.717   7.733  19.034  0.00  0.00    +0.000 A 
ATOM      3  C   UNL     1       1.807   7.631  20.072  0.00  0.00    +0.000 A 
ATOM      4  N   UNL     1       1.493   6.432  20.615  0.00  0.00    +0.000 NA
ATOM      5  C   UNL     1       2.036   5.308  20.118  0.00  0.00    +0.000 A 
ATOM      6  C   UNL     1       1.686   4.103  20.713  0.00  0.00    +0.000 A 
ATOM      7  C   UNL     1       2.156   2.875  20.240  0.00  0.00    +0.000 A 
ATOM      8  C   UNL     1       2.994   2.854  19.138  0.00  0.00    +0.000 A 
ATOM      9 BR   UNL     1       3.589   1.204  18.434  0.00  0.00    +0.000 Br
ATOM     10  C   UNL     1       3.394   4.049  18.544  0.00  0.00    +0.000 A 
ATOM     11  C   UNL     1       2.934   5.301  19.033  0.00  0.00    +0.000 A 
ENDROOT
BRANCH   3  12
ATOM     12  C   UNL     1       1.094   8.809  20.617  0.00  0.00    +0.000 A 
ATOM     13  C   UNL     1       0.951   9.984  19.857  0.00  0.00    +0.000 A 
ATOM     14  C   UNL     1       0.350  11.131  20.388  0.00  0.00    +0.000 A 
ATOM     15  C   UNL     1      -0.135  11.134  21.698  0.00  0.00    +0.000 A 
ATOM     16  C   UNL     1      -0.737  12.365  22.304  0.00  0.00    +0.000 C 
ATOM     17  C   UNL     1      -0.036   9.965  22.455  0.00  0.00    +0.000 A 
ATOM     18  C   UNL     1       0.562   8.820  21.919  0.00  0.00    +0.000 A 
ENDBRANCH   3  12
BRANCH   1  19
ATOM     19  C   UNL     1       4.315   6.727  17.451  0.00  0.00    +0.000 C 
ATOM     20  O   UNL     1       4.057   6.843  16.265  0.00  0.00    +0.000 OA
BRANCH  19  21
ATOM     21  O   UNL     1       5.558   6.650  17.990  0.00  0.00    +0.000 OA
BRANCH  21  22
ATOM     22  C   UNL     1       6.025   5.332  18.337  0.00  0.00    +0.000 C 
ATOM     23  C   UNL     1       6.663   5.443  19.718  0.00  0.00    +0.000 C 
BRANCH  22  24
ATOM     24  C   UNL     1       7.052   4.848  17.304  0.00  0.00    +0.000 C 
ATOM     25  O   UNL     1       8.251   4.758  17.577  0.00  0.00    +0.000 OA
BRANCH  24  30
ATOM     26  C   UNL     1       5.442   3.366  11.897  0.00  0.00    +0.000 C 
ATOM     27  C   UNL     1       5.837   3.777  13.285  0.00  0.00    +0.000 A 
ATOM     28  C   UNL     1       6.961   4.576  13.515  0.00  0.00    +0.000 A 
ATOM     29  C   UNL     1       7.334   4.917  14.821  0.00  0.00    +0.000 A 
ATOM     30  C   UNL     1       6.591   4.466  15.923  0.00  0.00    +0.000 A 
ATOM     31  C   UNL     1       5.456   3.683  15.688  0.00  0.00    +0.000 A 
ATOM     32  C   UNL     1       5.086   3.340  14.381  0.00  0.00    +0.000 A 
ENDBRANCH  24  30
ENDBRANCH  22  24
ENDBRANCH  21  22
ENDBRANCH  19  21
ENDBRANCH   1  19
TORSDOF 6
ENDMDL
MODEL 7
REMARK VINA RESULT:      -7.9      1.646      3.426
REMARK  Name = 
REMARK  9 active torsions:
REMARK  status: ('A' for Active; 'I' for Inactive)
REMARK    1  A    between atoms: C_1  and  C_2
REMARK    2  A    between atoms: C_5  and  C_6
REMARK    3  A    between atoms: C_6  and  C_8
REMARK    4  A    between atoms: C_8  and  C_9
REMARK    5  A    between atoms: C_8  and  O_10
REMARK    6  A    between atoms: O_10  and  C_11
REMARK    7  A    between atoms: C_11  and  C_13
REMARK    8  A    between atoms: C_15  and  C_16
REMARK    9  A    between atoms: C_19  and  C_20
REMARK                            x       y       z     vdW  Elec       q    Type
REMARK                         _______ _______ _______ _____ _____    ______ ____
ROOT
ATOM      1  C   UNL     1       2.791   6.619  18.604  0.00  0.00    +0.000 A 
ATOM      2  C   UNL     1       2.177   7.740  19.170  0.00  0.00    +0.000 A 
ATOM      3  C   UNL     1       1.494   7.604  20.366  0.00  0.00    +0.000 A 
ATOM      4  N   UNL     1       1.427   6.414  21.005  0.00  0.00    +0.000 NA
ATOM      5  C   UNL     1       1.995   5.326  20.458  0.00  0.00    +0.000 A 
ATOM      6  C   UNL     1       1.904   4.129  21.155  0.00  0.00    +0.000 A 
ATOM      7  C   UNL     1       2.418   2.932  20.648  0.00  0.00    +0.000 A 
ATOM      8  C   UNL     1       3.035   2.934  19.409  0.00  0.00    +0.000 A 
ATOM      9 BR   UNL     1       3.677   1.318  18.668  0.00  0.00    +0.000 Br
ATOM     10  C   UNL     1       3.176   4.127  18.703  0.00  0.00    +0.000 A 
ATOM     11  C   UNL     1       2.672   5.350  19.222  0.00  0.00    +0.000 A 
ENDROOT
BRANCH   3  12
ATOM     12  C   UNL     1       0.761   8.730  20.990  0.00  0.00    +0.000 A 
ATOM     13  C   UNL     1       0.606   9.955  20.317  0.00  0.00    +0.000 A 
ATOM     14  C   UNL     1      -0.014  11.052  20.927  0.00  0.00    +0.000 A 
ATOM     15  C   UNL     1      -0.505  10.953  22.230  0.00  0.00    +0.000 A 
ATOM     16  C   UNL     1      -1.127  12.129  22.920  0.00  0.00    +0.000 C 
ATOM     17  C   UNL     1      -0.393   9.733  22.901  0.00  0.00    +0.000 A 
ATOM     18  C   UNL     1       0.223   8.639  22.288  0.00  0.00    +0.000 A 
ENDBRANCH   3  12
BRANCH   1  19
ATOM     19  C   UNL     1       3.560   6.818  17.352  0.00  0.00    +0.000 C 
ATOM     20  O   UNL     1       3.683   7.883  16.772  0.00  0.00    +0.000 OA
BRANCH  19  21
ATOM     21  O   UNL     1       4.041   5.622  16.926  0.00  0.00    +0.000 OA
BRANCH  21  22
ATOM     22  C   UNL     1       5.338   5.638  16.301  0.00  0.00    +0.000 C 
ATOM     23  C   UNL     1       5.368   4.469  15.322  0.00  0.00    +0.000 C 
BRANCH  22  24
ATOM     24  C   UNL     1       6.436   5.483  17.362  0.00  0.00    +0.000 C 
ATOM     25  O   UNL     1       6.704   4.388  17.861  0.00  0.00    +0.000 OA
BRANCH  24  30
ATOM     26  C   UNL     1       9.310  10.278  19.028  0.00  0.00    +0.000 C 
ATOM     27  C   UNL     1       8.597   9.038  18.577  0.00  0.00    +0.000 A 
ATOM     28  C   UNL     1       7.712   9.060  17.494  0.00  0.00    +0.000 A 
ATOM     29  C   UNL     1       7.028   7.899  17.113  0.00  0.00    +0.000 A 
ATOM     30  C   UNL     1       7.215   6.693  17.806  0.00  0.00    +0.000 A 
ATOM     31  C   UNL     1       8.115   6.670  18.877  0.00  0.00    +0.000 A 
ATOM     32  C   UNL     1       8.796   7.833  19.258  0.00  0.00    +0.000 A 
ENDBRANCH  24  30
ENDBRANCH  22  24
ENDBRANCH  21  22
ENDBRANCH  19  21
ENDBRANCH   1  19
TORSDOF 6
ENDMDL
MODEL 8
REMARK VINA RESULT:      -7.8      4.315      9.567
REMARK  Name = 
REMARK  9 active torsions:
REMARK  status: ('A' for Active; 'I' for Inactive)
REMARK    1  A    between atoms: C_1  and  C_2
REMARK    2  A    between atoms: C_5  and  C_6
REMARK    3  A    between atoms: C_6  and  C_8
REMARK    4  A    between atoms: C_8  and  C_9
REMARK    5  A    between atoms: C_8  and  O_10
REMARK    6  A    between atoms: O_10  and  C_11
REMARK    7  A    between atoms: C_11  and  C_13
REMARK    8  A    between atoms: C_15  and  C_16
REMARK    9  A    between atoms: C_19  and  C_20
REMARK                            x       y       z     vdW  Elec       q    Type
REMARK                         _______ _______ _______ _____ _____    ______ ____
ROOT
ATOM      1  C   UNL     1       1.104   9.815  19.622  0.00  0.00    +0.000 A 
ATOM      2  C   UNL     1       1.681   8.574  19.340  0.00  0.00    +0.000 A 
ATOM      3  C   UNL     1       1.593   7.559  20.278  0.00  0.00    +0.000 A 
ATOM      4  N   UNL     1       0.942   7.741  21.449  0.00  0.00    +0.000 NA
ATOM      5  C   UNL     1       0.403   8.937  21.738  0.00  0.00    +0.000 A 
ATOM      6  C   UNL     1      -0.260   9.072  22.951  0.00  0.00    +0.000 A 
ATOM      7  C   UNL     1      -0.811  10.287  23.367  0.00  0.00    +0.000 A 
ATOM      8  C   UNL     1      -0.691  11.397  22.549  0.00  0.00    +0.000 A 
ATOM      9 BR   UNL     1      -1.365  13.069  23.117  0.00  0.00    +0.000 Br
ATOM     10  C   UNL     1      -0.066  11.284  21.309  0.00  0.00    +0.000 A 
ATOM     11  C   UNL     1       0.480  10.046  20.873  0.00  0.00    +0.000 A 
ENDROOT
BRANCH   3  12
ATOM     12  C   UNL     1       2.238   6.241  20.079  0.00  0.00    +0.000 A 
ATOM     13  C   UNL     1       3.208   6.053  19.078  0.00  0.00    +0.000 A 
ATOM     14  C   UNL     1       3.767   4.794  18.827  0.00  0.00    +0.000 A 
ATOM     15  C   UNL     1       3.376   3.684  19.578  0.00  0.00    +0.000 A 
ATOM     16  C   UNL     1       3.923   2.318  19.294  0.00  0.00    +0.000 C 
ATOM     17  C   UNL     1       2.441   3.858  20.601  0.00  0.00    +0.000 A 
ATOM     18  C   UNL     1       1.888   5.117  20.851  0.00  0.00    +0.000 A 
ENDBRANCH   3  12
BRANCH   1  19
ATOM     19  C   UNL     1       1.172  10.858  18.570  0.00  0.00    +0.000 C 
ATOM     20  O   UNL     1       1.884  11.847  18.616  0.00  0.00    +0.000 OA
BRANCH  19  21
ATOM     21  O   UNL     1       0.273  10.570  17.595  0.00  0.00    +0.000 OA
BRANCH  21  22
ATOM     22  C   UNL     1      -1.104  10.463  18.004  0.00  0.00    +0.000 C 
ATOM     23  C   UNL     1      -1.827   9.685  16.910  0.00  0.00    +0.000 C 
BRANCH  22  24
ATOM     24  C   UNL     1      -1.716  11.861  18.168  0.00  0.00    +0.000 C 
ATOM     25  O   UNL     1      -1.129  12.873  17.778  0.00  0.00    +0.000 OA
BRANCH  24  30
ATOM     26  C   UNL     1      -7.012  12.276  20.577  0.00  0.00    +0.000 C 
ATOM     27  C   UNL     1      -5.654  12.201  19.942  0.00  0.00    +0.000 A 
ATOM     28  C   UNL     1      -5.478  11.661  18.664  0.00  0.00    +0.000 A 
ATOM     29  C   UNL     1      -4.197  11.566  18.105  0.00  0.00    +0.000 A 
ATOM     30  C   UNL     1      -3.068  12.008  18.812  0.00  0.00    +0.000 A 
ATOM     31  C   UNL     1      -3.251  12.566  20.082  0.00  0.00    +0.000 A 
ATOM     32  C   UNL     1      -4.532  12.657  20.641  0.00  0.00    +0.000 A 
ENDBRANCH  24  30
ENDBRANCH  22  24
ENDBRANCH  21  22
ENDBRANCH  19  21
ENDBRANCH   1  19
TORSDOF 6
ENDMDL
MODEL 9
REMARK VINA RESULT:      -7.8      4.899     10.300
REMARK  Name = 
REMARK  9 active torsions:
REMARK  status: ('A' for Active; 'I' for Inactive)
REMARK    1  A    between atoms: C_1  and  C_2
REMARK    2  A    between atoms: C_5  and  C_6
REMARK    3  A    between atoms: C_6  and  C_8
REMARK    4  A    between atoms: C_8  and  C_9
REMARK    5  A    between atoms: C_8  and  O_10
REMARK    6  A    between atoms: O_10  and  C_11
REMARK    7  A    between atoms: C_11  and  C_13
REMARK    8  A    between atoms: C_15  and  C_16
REMARK    9  A    between atoms: C_19  and  C_20
REMARK                            x       y       z     vdW  Elec       q    Type
REMARK                         _______ _______ _______ _____ _____    ______ ____
ROOT
ATOM      1  C   UNL     1      -0.137  11.082  19.201  0.00  0.00    +0.000 A 
ATOM      2  C   UNL     1       0.712  10.111  18.663  0.00  0.00    +0.000 A 
ATOM      3  C   UNL     1       1.142   9.070  19.468  0.00  0.00    +0.000 A 
ATOM      4  N   UNL     1       0.741   8.965  20.755  0.00  0.00    +0.000 NA
ATOM      5  C   UNL     1      -0.059   9.905  21.286  0.00  0.00    +0.000 A 
ATOM      6  C   UNL     1      -0.448   9.749  22.611  0.00  0.00    +0.000 A 
ATOM      7  C   UNL     1      -1.236  10.696  23.271  0.00  0.00    +0.000 A 
ATOM      8  C   UNL     1      -1.640  11.830  22.588  0.00  0.00    +0.000 A 
ATOM      9 BR   UNL     1      -2.647  13.161  23.476  0.00  0.00    +0.000 Br
ATOM     10  C   UNL     1      -1.298  11.996  21.248  0.00  0.00    +0.000 A 
ATOM     11  C   UNL     1      -0.512  11.028  20.566  0.00  0.00    +0.000 A 
ENDROOT
BRANCH   3  12
ATOM     12  C   UNL     1       2.096   8.043  18.989  0.00  0.00    +0.000 A 
ATOM     13  C   UNL     1       2.296   6.849  19.705  0.00  0.00    +0.000 A 
ATOM     14  C   UNL     1       3.251   5.907  19.307  0.00  0.00    +0.000 A 
ATOM     15  C   UNL     1       4.033   6.129  18.172  0.00  0.00    +0.000 A 
ATOM     16  C   UNL     1       5.096   5.158  17.755  0.00  0.00    +0.000 C 
ATOM     17  C   UNL     1       3.825   7.291  17.426  0.00  0.00    +0.000 A 
ATOM     18  C   UNL     1       2.867   8.228  17.825  0.00  0.00    +0.000 A 
ENDBRANCH   3  12
BRANCH   1  19
ATOM     19  C   UNL     1      -0.621  12.149  18.293  0.00  0.00    +0.000 C 
ATOM     20  O   UNL     1       0.068  13.054  17.854  0.00  0.00    +0.000 OA
BRANCH  19  21
ATOM     21  O   UNL     1      -1.954  11.996  18.089  0.00  0.00    +0.000 OA
BRANCH  21  22
ATOM     22  C   UNL     1      -2.363  10.799  17.400  0.00  0.00    +0.000 C 
ATOM     23  C   UNL     1      -2.493  11.165  15.925  0.00  0.00    +0.000 C 
BRANCH  22  24
ATOM     24  C   UNL     1      -3.706  10.304  17.954  0.00  0.00    +0.000 C 
ATOM     25  O   UNL     1      -3.947   9.103  18.088  0.00  0.00    +0.000 OA
BRANCH  24  30
ATOM     26  C   UNL     1      -7.910  14.074  19.420  0.00  0.00    +0.000 C 
ATOM     27  C   UNL     1      -6.813  13.129  19.024  0.00  0.00    +0.000 A 
ATOM     28  C   UNL     1      -6.901  12.359  17.860  0.00  0.00    +0.000 A 
ATOM     29  C   UNL     1      -5.883  11.456  17.528  0.00  0.00    +0.000 A 
ATOM     30  C   UNL     1      -4.758  11.305  18.352  0.00  0.00    +0.000 A 
ATOM     31  C   UNL     1      -4.664  12.092  19.506  0.00  0.00    +0.000 A 
ATOM     32  C   UNL     1      -5.684  12.992  19.838  0.00  0.00    +0.000 A 
ENDBRANCH  24  30
ENDBRANCH  22  24
ENDBRANCH  21  22
ENDBRANCH  19  21
ENDBRANCH   1  19
TORSDOF 6
ENDMDL
