MODEL 1
REMARK VINA RESULT:      -8.4      0.000      0.000
REMARK  Name = 
REMARK  10 active torsions:
REMARK  status: ('A' for Active; 'I' for Inactive)
REMARK    1  A    between atoms: C_2  and  C_22
REMARK    2  A    between atoms: N_3  and  C_4
REMARK    3  A    between atoms: C_7  and  C_8
REMARK    4  A    between atoms: C_8  and  C_9
REMARK    5  A    between atoms: C_9  and  N_10
REMARK    6  A    between atoms: N_10  and  C_11
REMARK    7  A    between atoms: C_11  and  C_12
REMARK    8  A    between atoms: C_12  and  O_13
REMARK    9  A    between atoms: C_12  and  C_14
REMARK   10  A    between atoms: C_26  and  C_27
REMARK                            x       y       z     vdW  Elec       q    Type
REMARK                         _______ _______ _______ _____ _____    ______ ____
ROOT
ATOM      1  C   UNL     1       2.340   7.895  18.786  0.00  0.00    +0.000 A 
ATOM      2  C   UNL     1       2.501   6.808  19.642  0.00  0.00    +0.000 A 
ATOM      3  C   UNL     1       3.526   5.891  19.438  0.00  0.00    +0.000 A 
ATOM      4  C   UNL     1       4.398   6.028  18.354  0.00  0.00    +0.000 A 
ATOM      5  C   UNL     1       4.228   7.107  17.480  0.00  0.00    +0.000 A 
ATOM      6  C   UNL     1       3.200   8.032  17.691  0.00  0.00    +0.000 A 
ENDROOT
BRANCH   1   9
ATOM      7  O   UNL     1       1.409   9.103  21.293  0.00  0.00    +0.000 OA
ATOM      8  C   UNL     1       0.919   9.352  20.197  0.00  0.00    +0.000 C 
ATOM      9  N   UNL     1       1.335   8.863  18.972  0.00  0.00    +0.000 N 
ATOM     10  H   UNL     1       0.993   9.325  18.139  0.00  0.00    +0.000 HD
BRANCH   8  11
ATOM     11  C   UNL     1      -0.195  10.328  20.155  0.00  0.00    +0.000 A 
ATOM     12  C   UNL     1      -0.440  11.228  21.195  0.00  0.00    +0.000 A 
ATOM     13  C   UNL     1      -1.489  12.141  21.076  0.00  0.00    +0.000 A 
ATOM     14  C   UNL     1      -2.276  12.153  19.919  0.00  0.00    +0.000 A 
ATOM     15  C   UNL     1      -2.022  11.269  18.861  0.00  0.00    +0.000 A 
ATOM     16  C   UNL     1      -0.978  10.354  18.993  0.00  0.00    +0.000 A 
BRANCH  15  17
ATOM     17  C   UNL     1      -2.851  11.307  17.657  0.00  0.00    +0.000 A 
ATOM     18  N   UNL     1      -4.163  11.460  17.616  0.00  0.00    +0.000 NA
ATOM     19  C   UNL     1      -4.509  11.411  16.290  0.00  0.00    +0.000 A 
ATOM     20  C   UNL     1      -3.397  11.260  15.501  0.00  0.00    +0.000 A 
ATOM     21  N   UNL     1      -2.351  11.201  16.377  0.00  0.00    +0.000 N 
ATOM     22  H   UNL     1      -1.374  11.109  16.136  0.00  0.00    +0.000 HD
ENDBRANCH  15  17
ENDBRANCH   8  11
ENDBRANCH   1   9
BRANCH   4  23
ATOM     23  C   UNL     1       5.476   4.997  18.128  0.00  0.00    +0.000 C 
BRANCH  23  24
ATOM     24  C   UNL     1       5.468   4.531  16.667  0.00  0.00    +0.000 C 
BRANCH  24  25
ATOM     25  N   UNL     1       5.136   3.111  16.557  0.00  0.00    +0.000 NA
ATOM     26  H   UNL     1       5.900   2.556  16.945  0.00  0.00    +0.000 HD
BRANCH  25  27
ATOM     27  C   UNL     1       3.893   2.791  17.276  0.00  0.00    +0.000 C 
BRANCH  27  28
ATOM     28  C   UNL     1       4.056   1.978  18.592  0.00  0.00    +0.000 C 
BRANCH  28  29
ATOM     29  C   UNL     1       3.022   2.341  19.631  0.00  0.00    +0.000 A 
ATOM     30  C   UNL     1       1.716   2.718  19.299  0.00  0.00    +0.000 A 
ATOM     31  C   UNL     1       0.837   3.125  20.298  0.00  0.00    +0.000 A 
ATOM     32  C   UNL     1       1.290   3.143  21.606  0.00  0.00    +0.000 A 
ATOM     33  N   UNL     1       2.535   2.778  21.973  0.00  0.00    +0.000 NA
ATOM     34  C   UNL     1       3.369   2.391  20.979  0.00  0.00    +0.000 A 
ENDBRANCH  28  29
BRANCH  28  35
ATOM     35  O   UNL     1       4.004   0.579  18.299  0.00  0.00    +0.000 OA
ATOM     36  H   UNL     1       4.408   0.442  17.427  0.00  0.00    +0.000 HD
ENDBRANCH  28  35
ENDBRANCH  27  28
ENDBRANCH  25  27
ENDBRANCH  24  25
ENDBRANCH  23  24
ENDBRANCH   4  23
TORSDOF 10
ENDMDL
MODEL 2
REMARK VINA RESULT:      -8.0      5.675      8.640
REMARK  Name = 
REMARK  10 active torsions:
REMARK  status: ('A' for Active; 'I' for Inactive)
REMARK    1  A    between atoms: C_2  and  C_22
REMARK    2  A    between atoms: N_3  and  C_4
REMARK    3  A    between atoms: C_7  and  C_8
REMARK    4  A    between atoms: C_8  and  C_9
REMARK    5  A    between atoms: C_9  and  N_10
REMARK    6  A    between atoms: N_10  and  C_11
REMARK    7  A    between atoms: C_11  and  C_12
REMARK    8  A    between atoms: C_12  and  O_13
REMARK    9  A    between atoms: C_12  and  C_14
REMARK   10  A    between atoms: C_26  and  C_27
REMARK                            x       y       z     vdW  Elec       q    Type
REMARK                         _______ _______ _______ _____ _____    ______ ____
ROOT
ATOM      1  C   UNL     1       7.929   7.281  18.350  0.00  0.00    +0.000 A 
ATOM      2  C   UNL     1       8.065   5.971  18.804  0.00  0.00    +0.000 A 
ATOM      3  C   UNL     1       7.365   4.935  18.196  0.00  0.00    +0.000 A 
ATOM      4  C   UNL     1       6.490   5.193  17.136  0.00  0.00    +0.000 A 
ATOM      5  C   UNL     1       6.337   6.510  16.690  0.00  0.00    +0.000 A 
ATOM      6  C   UNL     1       7.047   7.550  17.299  0.00  0.00    +0.000 A 
ENDROOT
BRANCH   1   9
ATOM      7  O   UNL     1       7.914  10.107  17.557  0.00  0.00    +0.000 OA
ATOM      8  C   UNL     1       8.618   9.658  18.455  0.00  0.00    +0.000 C 
ATOM      9  N   UNL     1       8.642   8.356  18.917  0.00  0.00    +0.000 N 
ATOM     10  H   UNL     1       9.095   8.178  19.804  0.00  0.00    +0.000 HD
BRANCH   8  11
ATOM     11  C   UNL     1       9.491  10.614  19.176  0.00  0.00    +0.000 A 
ATOM     12  C   UNL     1      10.735  11.011  18.681  0.00  0.00    +0.000 A 
ATOM     13  C   UNL     1      11.493  11.937  19.398  0.00  0.00    +0.000 A 
ATOM     14  C   UNL     1      10.998  12.464  20.597  0.00  0.00    +0.000 A 
ATOM     15  C   UNL     1       9.740  12.089  21.089  0.00  0.00    +0.000 A 
ATOM     16  C   UNL     1       8.995  11.155  20.370  0.00  0.00    +0.000 A 
BRANCH  15  17
ATOM     17  C   UNL     1       9.240  12.661  22.338  0.00  0.00    +0.000 A 
ATOM     18  N   UNL     1       9.121  13.947  22.617  0.00  0.00    +0.000 NA
ATOM     19  C   UNL     1       8.636  14.015  23.897  0.00  0.00    +0.000 A 
ATOM     20  C   UNL     1       8.423  12.758  24.405  0.00  0.00    +0.000 A 
ATOM     21  N   UNL     1       8.802  11.908  23.406  0.00  0.00    +0.000 N 
ATOM     22  H   UNL     1       8.761  10.899  23.433  0.00  0.00    +0.000 HD
ENDBRANCH  15  17
ENDBRANCH   8  11
ENDBRANCH   1   9
BRANCH   4  23
ATOM     23  C   UNL     1       5.708   4.059  16.520  0.00  0.00    +0.000 C 
BRANCH  23  24
ATOM     24  C   UNL     1       4.616   3.581  17.484  0.00  0.00    +0.000 C 
BRANCH  24  25
ATOM     25  N   UNL     1       3.287   4.007  17.044  0.00  0.00    +0.000 NA
ATOM     26  H   UNL     1       2.766   3.195  16.713  0.00  0.00    +0.000 HD
BRANCH  25  27
ATOM     27  C   UNL     1       2.539   4.649  18.136  0.00  0.00    +0.000 C 
BRANCH  27  28
ATOM     28  C   UNL     1       3.294   5.761  18.919  0.00  0.00    +0.000 C 
BRANCH  28  29
ATOM     29  C   UNL     1       2.584   7.093  18.863  0.00  0.00    +0.000 A 
ATOM     30  C   UNL     1       2.647   7.939  17.751  0.00  0.00    +0.000 A 
ATOM     31  C   UNL     1       2.042   9.191  17.797  0.00  0.00    +0.000 A 
ATOM     32  C   UNL     1       1.389   9.564  18.959  0.00  0.00    +0.000 A 
ATOM     33  N   UNL     1       1.294   8.778  20.050  0.00  0.00    +0.000 NA
ATOM     34  C   UNL     1       1.894   7.568  19.977  0.00  0.00    +0.000 A 
ENDBRANCH  28  29
BRANCH  28  35
ATOM     35  O   UNL     1       3.482   5.348  20.274  0.00  0.00    +0.000 OA
ATOM     36  H   UNL     1       3.535   4.379  20.286  0.00  0.00    +0.000 HD
ENDBRANCH  28  35
ENDBRANCH  27  28
ENDBRANCH  25  27
ENDBRANCH  24  25
ENDBRANCH  23  24
ENDBRANCH   4  23
TORSDOF 10
ENDMDL
MODEL 3
REMARK VINA RESULT:      -7.7      2.720      3.824
REMARK  Name = 
REMARK  10 active torsions:
REMARK  status: ('A' for Active; 'I' for Inactive)
REMARK    1  A    between atoms: C_2  and  C_22
REMARK    2  A    between atoms: N_3  and  C_4
REMARK    3  A    between atoms: C_7  and  C_8
REMARK    4  A    between atoms: C_8  and  C_9
REMARK    5  A    between atoms: C_9  and  N_10
REMARK    6  A    between atoms: N_10  and  C_11
REMARK    7  A    between atoms: C_11  and  C_12
REMARK    8  A    between atoms: C_12  and  O_13
REMARK    9  A    between atoms: C_12  and  C_14
REMARK   10  A    between atoms: C_26  and  C_27
REMARK                            x       y       z     vdW  Elec       q    Type
REMARK                         _______ _______ _______ _____ _____    ______ ____
ROOT
ATOM      1  C   UNL     1       1.025   9.690  19.924  0.00  0.00    +0.000 A 
ATOM      2  C   UNL     1       1.389   8.529  20.603  0.00  0.00    +0.000 A 
ATOM      3  C   UNL     1       2.015   7.483  19.932  0.00  0.00    +0.000 A 
ATOM      4  C   UNL     1       2.262   7.566  18.559  0.00  0.00    +0.000 A 
ATOM      5  C   UNL     1       1.880   8.723  17.870  0.00  0.00    +0.000 A 
ATOM      6  C   UNL     1       1.258   9.776  18.547  0.00  0.00    +0.000 A 
ENDROOT
BRANCH   1   9
ATOM      7  O   UNL     1      -0.646   9.692  22.338  0.00  0.00    +0.000 OA
ATOM      8  C   UNL     1      -0.398  10.699  21.683  0.00  0.00    +0.000 C 
ATOM      9  N   UNL     1       0.417  10.785  20.570  0.00  0.00    +0.000 N 
ATOM     10  H   UNL     1       0.713  11.705  20.271  0.00  0.00    +0.000 HD
BRANCH   8  11
ATOM     11  C   UNL     1      -0.972  11.979  22.160  0.00  0.00    +0.000 A 
ATOM     12  C   UNL     1      -0.244  13.170  22.163  0.00  0.00    +0.000 A 
ATOM     13  C   UNL     1      -0.856  14.346  22.599  0.00  0.00    +0.000 A 
ATOM     14  C   UNL     1      -2.191  14.323  23.019  0.00  0.00    +0.000 A 
ATOM     15  C   UNL     1      -2.937  13.136  22.997  0.00  0.00    +0.000 A 
ATOM     16  C   UNL     1      -2.313  11.965  22.569  0.00  0.00    +0.000 A 
BRANCH  15  17
ATOM     17  C   UNL     1      -4.333  13.138  23.431  0.00  0.00    +0.000 A 
ATOM     18  N   UNL     1      -4.940  12.185  24.116  0.00  0.00    +0.000 NA
ATOM     19  C   UNL     1      -6.237  12.600  24.276  0.00  0.00    +0.000 A 
ATOM     20  C   UNL     1      -6.426  13.836  23.712  0.00  0.00    +0.000 A 
ATOM     21  N   UNL     1      -5.212  14.170  23.184  0.00  0.00    +0.000 N 
ATOM     22  H   UNL     1      -4.985  15.031  22.706  0.00  0.00    +0.000 HD
ENDBRANCH  15  17
ENDBRANCH   8  11
ENDBRANCH   1   9
BRANCH   4  23
ATOM     23  C   UNL     1       2.903   6.402  17.844  0.00  0.00    +0.000 C 
BRANCH  23  24
ATOM     24  C   UNL     1       4.396   6.671  17.621  0.00  0.00    +0.000 C 
BRANCH  24  25
ATOM     25  N   UNL     1       5.174   5.433  17.643  0.00  0.00    +0.000 NA
ATOM     26  H   UNL     1       6.144   5.642  17.404  0.00  0.00    +0.000 HD
BRANCH  25  27
ATOM     27  C   UNL     1       5.130   4.793  18.966  0.00  0.00    +0.000 C 
BRANCH  27  28
ATOM     28  C   UNL     1       4.634   3.318  18.993  0.00  0.00    +0.000 C 
BRANCH  28  29
ATOM     29  C   UNL     1       3.397   3.138  19.841  0.00  0.00    +0.000 A 
ATOM     30  C   UNL     1       2.134   3.589  19.443  0.00  0.00    +0.000 A 
ATOM     31  C   UNL     1       1.050   3.469  20.308  0.00  0.00    +0.000 A 
ATOM     32  C   UNL     1       1.261   2.900  21.552  0.00  0.00    +0.000 A 
ATOM     33  N   UNL     1       2.457   2.442  21.973  0.00  0.00    +0.000 NA
ATOM     34  C   UNL     1       3.493   2.574  21.112  0.00  0.00    +0.000 A 
ENDBRANCH  28  29
BRANCH  28  35
ATOM     35  O   UNL     1       4.397   2.869  17.657  0.00  0.00    +0.000 OA
ATOM     36  H   UNL     1       3.917   3.569  17.187  0.00  0.00    +0.000 HD
ENDBRANCH  28  35
ENDBRANCH  27  28
ENDBRANCH  25  27
ENDBRANCH  24  25
ENDBRANCH  23  24
ENDBRANCH   4  23
TORSDOF 10
ENDMDL
MODEL 4
REMARK VINA RESULT:      -7.7      2.273      9.487
REMARK  Name = 
REMARK  10 active torsions:
REMARK  status: ('A' for Active; 'I' for Inactive)
REMARK    1  A    between atoms: C_2  and  C_22
REMARK    2  A    between atoms: N_3  and  C_4
REMARK    3  A    between atoms: C_7  and  C_8
REMARK    4  A    between atoms: C_8  and  C_9
REMARK    5  A    between atoms: C_9  and  N_10
REMARK    6  A    between atoms: N_10  and  C_11
REMARK    7  A    between atoms: C_11  and  C_12
REMARK    8  A    between atoms: C_12  and  O_13
REMARK    9  A    between atoms: C_12  and  C_14
REMARK   10  A    between atoms: C_26  and  C_27
REMARK                            x       y       z     vdW  Elec       q    Type
REMARK                         _______ _______ _______ _____ _____    ______ ____
ROOT
ATOM      1  C   UNL     1       0.865   8.827  21.596  0.00  0.00    +0.000 A 
ATOM      2  C   UNL     1       0.138   8.822  22.785  0.00  0.00    +0.000 A 
ATOM      3  C   UNL     1      -0.549   9.958  23.199  0.00  0.00    +0.000 A 
ATOM      4  C   UNL     1      -0.501  11.134  22.445  0.00  0.00    +0.000 A 
ATOM      5  C   UNL     1       0.244  11.149  21.260  0.00  0.00    +0.000 A 
ATOM      6  C   UNL     1       0.929  10.003  20.842  0.00  0.00    +0.000 A 
ENDROOT
BRANCH   1   9
ATOM      7  O   UNL     1       2.014   8.360  18.936  0.00  0.00    +0.000 OA
ATOM      8  C   UNL     1       2.024   7.527  19.835  0.00  0.00    +0.000 C 
ATOM      9  N   UNL     1       1.551   7.691  21.124  0.00  0.00    +0.000 N 
ATOM     10  H   UNL     1       1.829   7.011  21.819  0.00  0.00    +0.000 HD
BRANCH   8  11
ATOM     11  C   UNL     1       2.669   6.224  19.548  0.00  0.00    +0.000 A 
ATOM     12  C   UNL     1       2.478   5.100  20.355  0.00  0.00    +0.000 A 
ATOM     13  C   UNL     1       3.093   3.896  20.009  0.00  0.00    +0.000 A 
ATOM     14  C   UNL     1       3.885   3.823  18.857  0.00  0.00    +0.000 A 
ATOM     15  C   UNL     1       4.064   4.940  18.029  0.00  0.00    +0.000 A 
ATOM     16  C   UNL     1       3.453   6.141  18.389  0.00  0.00    +0.000 A 
BRANCH  15  17
ATOM     17  C   UNL     1       4.888   4.838  16.826  0.00  0.00    +0.000 A 
ATOM     18  N   UNL     1       5.091   5.791  15.934  0.00  0.00    +0.000 NA
ATOM     19  C   UNL     1       5.902   5.246  14.973  0.00  0.00    +0.000 A 
ATOM     20  C   UNL     1       6.231   3.952  15.290  0.00  0.00    +0.000 A 
ATOM     21  N   UNL     1       5.588   3.706  16.469  0.00  0.00    +0.000 N 
ATOM     22  H   UNL     1       5.625   2.848  17.001  0.00  0.00    +0.000 HD
ENDBRANCH  15  17
ENDBRANCH   8  11
ENDBRANCH   1   9
BRANCH   4  23
ATOM     23  C   UNL     1      -1.219  12.366  22.935  0.00  0.00    +0.000 C 
BRANCH  23  24
ATOM     24  C   UNL     1      -1.834  13.129  21.755  0.00  0.00    +0.000 C 
BRANCH  24  25
ATOM     25  N   UNL     1      -3.150  12.599  21.399  0.00  0.00    +0.000 NA
ATOM     26  H   UNL     1      -3.871  13.145  21.872  0.00  0.00    +0.000 HD
BRANCH  25  27
ATOM     27  C   UNL     1      -3.377  12.652  19.948  0.00  0.00    +0.000 C 
BRANCH  27  28
ATOM     28  C   UNL     1      -2.224  12.108  19.057  0.00  0.00    +0.000 C 
BRANCH  28  29
ATOM     29  C   UNL     1      -2.729  11.356  17.848  0.00  0.00    +0.000 A 
ATOM     30  C   UNL     1      -1.943  10.437  17.145  0.00  0.00    +0.000 A 
ATOM     31  C   UNL     1      -2.439   9.843  15.988  0.00  0.00    +0.000 A 
ATOM     32  C   UNL     1      -3.712  10.186  15.566  0.00  0.00    +0.000 A 
ATOM     33  N   UNL     1      -4.508  11.058  16.217  0.00  0.00    +0.000 NA
ATOM     34  C   UNL     1      -3.998  11.622  17.337  0.00  0.00    +0.000 A 
ENDBRANCH  28  29
BRANCH  28  35
ATOM     35  O   UNL     1      -1.376  13.188  18.659  0.00  0.00    +0.000 OA
ATOM     36  H   UNL     1      -0.456  12.906  18.778  0.00  0.00    +0.000 HD
ENDBRANCH  28  35
ENDBRANCH  27  28
ENDBRANCH  25  27
ENDBRANCH  24  25
ENDBRANCH  23  24
ENDBRANCH   4  23
TORSDOF 10
ENDMDL
MODEL 5
REMARK VINA RESULT:      -7.6      5.973      8.090
REMARK  Name = 
REMARK  10 active torsions:
REMARK  status: ('A' for Active; 'I' for Inactive)
REMARK    1  A    between atoms: C_2  and  C_22
REMARK    2  A    between atoms: N_3  and  C_4
REMARK    3  A    between atoms: C_7  and  C_8
REMARK    4  A    between atoms: C_8  and  C_9
REMARK    5  A    between atoms: C_9  and  N_10
REMARK    6  A    between atoms: N_10  and  C_11
REMARK    7  A    between atoms: C_11  and  C_12
REMARK    8  A    between atoms: C_12  and  O_13
REMARK    9  A    between atoms: C_12  and  C_14
REMARK   10  A    between atoms: C_26  and  C_27
REMARK                            x       y       z     vdW  Elec       q    Type
REMARK                         _______ _______ _______ _____ _____    ______ ____
ROOT
ATOM      1  C   UNL     1       7.849   8.280  17.819  0.00  0.00    +0.000 A 
ATOM      2  C   UNL     1       6.650   8.001  17.167  0.00  0.00    +0.000 A 
ATOM      3  C   UNL     1       5.992   6.795  17.380  0.00  0.00    +0.000 A 
ATOM      4  C   UNL     1       6.535   5.829  18.232  0.00  0.00    +0.000 A 
ATOM      5  C   UNL     1       7.749   6.097  18.875  0.00  0.00    +0.000 A 
ATOM      6  C   UNL     1       8.406   7.313  18.663  0.00  0.00    +0.000 A 
ENDROOT
BRANCH   1   9
ATOM      7  O   UNL     1       8.993  10.026  19.883  0.00  0.00    +0.000 OA
ATOM      8  C   UNL     1       9.005  10.292  18.686  0.00  0.00    +0.000 C 
ATOM      9  N   UNL     1       8.534   9.500  17.655  0.00  0.00    +0.000 N 
ATOM     10  H   UNL     1       8.813   9.737  16.712  0.00  0.00    +0.000 HD
BRANCH   8  11
ATOM     11  C   UNL     1       9.649  11.563  18.278  0.00  0.00    +0.000 A 
ATOM     12  C   UNL     1      10.891  11.602  17.642  0.00  0.00    +0.000 A 
ATOM     13  C   UNL     1      11.426  12.833  17.259  0.00  0.00    +0.000 A 
ATOM     14  C   UNL     1      10.711  14.011  17.506  0.00  0.00    +0.000 A 
ATOM     15  C   UNL     1       9.452  13.979  18.123  0.00  0.00    +0.000 A 
ATOM     16  C   UNL     1       8.932  12.745  18.510  0.00  0.00    +0.000 A 
BRANCH  15  17
ATOM     17  C   UNL     1       8.720  15.221  18.361  0.00  0.00    +0.000 A 
ATOM     18  N   UNL     1       7.419  15.402  18.216  0.00  0.00    +0.000 NA
ATOM     19  C   UNL     1       7.181  16.716  18.524  0.00  0.00    +0.000 A 
ATOM     20  C   UNL     1       8.342  17.347  18.895  0.00  0.00    +0.000 A 
ATOM     21  N   UNL     1       9.310  16.389  18.794  0.00  0.00    +0.000 N 
ATOM     22  H   UNL     1      10.289  16.505  19.010  0.00  0.00    +0.000 HD
ENDBRANCH  15  17
ENDBRANCH   8  11
ENDBRANCH   1   9
BRANCH   4  23
ATOM     23  C   UNL     1       5.825   4.510  18.415  0.00  0.00    +0.000 C 
BRANCH  23  24
ATOM     24  C   UNL     1       5.408   3.938  17.055  0.00  0.00    +0.000 C 
BRANCH  24  25
ATOM     25  N   UNL     1       4.037   3.429  17.083  0.00  0.00    +0.000 NA
ATOM     26  H   UNL     1       3.980   2.585  16.514  0.00  0.00    +0.000 HD
BRANCH  25  27
ATOM     27  C   UNL     1       3.606   3.118  18.454  0.00  0.00    +0.000 C 
BRANCH  27  28
ATOM     28  C   UNL     1       2.167   3.571  18.836  0.00  0.00    +0.000 C 
BRANCH  28  29
ATOM     29  C   UNL     1       2.085   5.048  19.139  0.00  0.00    +0.000 A 
ATOM     30  C   UNL     1       2.418   6.033  18.203  0.00  0.00    +0.000 A 
ATOM     31  C   UNL     1       2.405   7.374  18.573  0.00  0.00    +0.000 A 
ATOM     32  C   UNL     1       2.056   7.695  19.875  0.00  0.00    +0.000 A 
ATOM     33  N   UNL     1       1.717   6.780  20.806  0.00  0.00    +0.000 NA
ATOM     34  C   UNL     1       1.742   5.484  20.418  0.00  0.00    +0.000 A 
ENDBRANCH  28  29
BRANCH  28  35
ATOM     35  O   UNL     1       1.262   3.222  17.785  0.00  0.00    +0.000 OA
ATOM     36  H   UNL     1       0.714   4.000  17.593  0.00  0.00    +0.000 HD
ENDBRANCH  28  35
ENDBRANCH  27  28
ENDBRANCH  25  27
ENDBRANCH  24  25
ENDBRANCH  23  24
ENDBRANCH   4  23
TORSDOF 10
ENDMDL
MODEL 6
REMARK VINA RESULT:      -7.6      5.767      8.360
REMARK  Name = 
REMARK  10 active torsions:
REMARK  status: ('A' for Active; 'I' for Inactive)
REMARK    1  A    between atoms: C_2  and  C_22
REMARK    2  A    between atoms: N_3  and  C_4
REMARK    3  A    between atoms: C_7  and  C_8
REMARK    4  A    between atoms: C_8  and  C_9
REMARK    5  A    between atoms: C_9  and  N_10
REMARK    6  A    between atoms: N_10  and  C_11
REMARK    7  A    between atoms: C_11  and  C_12
REMARK    8  A    between atoms: C_12  and  O_13
REMARK    9  A    between atoms: C_12  and  C_14
REMARK   10  A    between atoms: C_26  and  C_27
REMARK                            x       y       z     vdW  Elec       q    Type
REMARK                         _______ _______ _______ _____ _____    ______ ____
ROOT
ATOM      1  C   UNL     1       7.757   8.087  17.781  0.00  0.00    +0.000 A 
ATOM      2  C   UNL     1       8.251   7.084  18.612  0.00  0.00    +0.000 A 
ATOM      3  C   UNL     1       7.596   5.861  18.713  0.00  0.00    +0.000 A 
ATOM      4  C   UNL     1       6.415   5.626  18.003  0.00  0.00    +0.000 A 
ATOM      5  C   UNL     1       5.906   6.637  17.181  0.00  0.00    +0.000 A 
ATOM      6  C   UNL     1       6.569   7.864  17.076  0.00  0.00    +0.000 A 
ENDROOT
BRANCH   1   9
ATOM      7  O   UNL     1       9.031   9.754  19.834  0.00  0.00    +0.000 OA
ATOM      8  C   UNL     1       8.942  10.079  18.655  0.00  0.00    +0.000 C 
ATOM      9  N   UNL     1       8.405   9.328  17.626  0.00  0.00    +0.000 N 
ATOM     10  H   UNL     1       8.603   9.617  16.677  0.00  0.00    +0.000 HD
BRANCH   8  11
ATOM     11  C   UNL     1       9.528  11.382  18.263  0.00  0.00    +0.000 A 
ATOM     12  C   UNL     1      10.783  11.486  17.659  0.00  0.00    +0.000 A 
ATOM     13  C   UNL     1      11.261  12.744  17.288  0.00  0.00    +0.000 A 
ATOM     14  C   UNL     1      10.480  13.883  17.516  0.00  0.00    +0.000 A 
ATOM     15  C   UNL     1       9.209  13.784  18.100  0.00  0.00    +0.000 A 
ATOM     16  C   UNL     1       8.744  12.524  18.475  0.00  0.00    +0.000 A 
BRANCH  15  17
ATOM     17  C   UNL     1       8.406  14.986  18.319  0.00  0.00    +0.000 A 
ATOM     18  N   UNL     1       7.150  15.024  18.727  0.00  0.00    +0.000 NA
ATOM     19  C   UNL     1       6.804  16.350  18.767  0.00  0.00    +0.000 A 
ATOM     20  C   UNL     1       7.866  17.142  18.412  0.00  0.00    +0.000 A 
ATOM     21  N   UNL     1       8.878  16.268  18.136  0.00  0.00    +0.000 N 
ATOM     22  H   UNL     1       9.818  16.512  17.857  0.00  0.00    +0.000 HD
ENDBRANCH  15  17
ENDBRANCH   8  11
ENDBRANCH   1   9
BRANCH   4  23
ATOM     23  C   UNL     1       5.699   4.308  18.161  0.00  0.00    +0.000 C 
BRANCH  23  24
ATOM     24  C   UNL     1       4.758   4.356  19.371  0.00  0.00    +0.000 C 
BRANCH  24  25
ATOM     25  N   UNL     1       3.367   4.124  18.980  0.00  0.00    +0.000 NA
ATOM     26  H   UNL     1       2.878   3.654  19.743  0.00  0.00    +0.000 HD
BRANCH  25  27
ATOM     27  C   UNL     1       2.679   5.385  18.668  0.00  0.00    +0.000 C 
BRANCH  27  28
ATOM     28  C   UNL     1       2.641   6.442  19.809  0.00  0.00    +0.000 C 
BRANCH  28  29
ATOM     29  C   UNL     1       2.141   7.787  19.338  0.00  0.00    +0.000 A 
ATOM     30  C   UNL     1       1.332   8.613  20.126  0.00  0.00    +0.000 A 
ATOM     31  C   UNL     1       0.833   9.801  19.600  0.00  0.00    +0.000 A 
ATOM     32  C   UNL     1       1.160  10.132  18.296  0.00  0.00    +0.000 A 
ATOM     33  N   UNL     1       1.943   9.372  17.504  0.00  0.00    +0.000 NA
ATOM     34  C   UNL     1       2.411   8.222  18.041  0.00  0.00    +0.000 A 
ENDBRANCH  28  29
BRANCH  28  35
ATOM     35  O   UNL     1       1.835   5.955  20.885  0.00  0.00    +0.000 OA
ATOM     36  H   UNL     1       1.234   5.283  20.527  0.00  0.00    +0.000 HD
ENDBRANCH  28  35
ENDBRANCH  27  28
ENDBRANCH  25  27
ENDBRANCH  24  25
ENDBRANCH  23  24
ENDBRANCH   4  23
TORSDOF 10
ENDMDL
MODEL 7
REMARK VINA RESULT:      -7.5      3.329      4.884
REMARK  Name = 
REMARK  10 active torsions:
REMARK  status: ('A' for Active; 'I' for Inactive)
REMARK    1  A    between atoms: C_2  and  C_22
REMARK    2  A    between atoms: N_3  and  C_4
REMARK    3  A    between atoms: C_7  and  C_8
REMARK    4  A    between atoms: C_8  and  C_9
REMARK    5  A    between atoms: C_9  and  N_10
REMARK    6  A    between atoms: N_10  and  C_11
REMARK    7  A    between atoms: C_11  and  C_12
REMARK    8  A    between atoms: C_12  and  O_13
REMARK    9  A    between atoms: C_12  and  C_14
REMARK   10  A    between atoms: C_26  and  C_27
REMARK                            x       y       z     vdW  Elec       q    Type
REMARK                         _______ _______ _______ _____ _____    ______ ____
ROOT
ATOM      1  C   UNL     1       1.592   8.730  19.857  0.00  0.00    +0.000 A 
ATOM      2  C   UNL     1       1.137   8.117  21.023  0.00  0.00    +0.000 A 
ATOM      3  C   UNL     1       1.310   6.751  21.219  0.00  0.00    +0.000 A 
ATOM      4  C   UNL     1       1.918   5.963  20.237  0.00  0.00    +0.000 A 
ATOM      5  C   UNL     1       2.359   6.571  19.057  0.00  0.00    +0.000 A 
ATOM      6  C   UNL     1       2.189   7.946  18.864  0.00  0.00    +0.000 A 
ENDROOT
BRANCH   1   9
ATOM      7  O   UNL     1      -0.816  10.254  19.153  0.00  0.00    +0.000 OA
ATOM      8  C   UNL     1       0.298  10.755  19.255  0.00  0.00    +0.000 C 
ATOM      9  N   UNL     1       1.464  10.114  19.630  0.00  0.00    +0.000 N 
ATOM     10  H   UNL     1       2.255  10.688  19.893  0.00  0.00    +0.000 HD
BRANCH   8  11
ATOM     11  C   UNL     1       0.412  12.213  19.019  0.00  0.00    +0.000 A 
ATOM     12  C   UNL     1      -0.700  13.056  18.995  0.00  0.00    +0.000 A 
ATOM     13  C   UNL     1      -0.517  14.426  18.796  0.00  0.00    +0.000 A 
ATOM     14  C   UNL     1       0.774  14.940  18.633  0.00  0.00    +0.000 A 
ATOM     15  C   UNL     1       1.899  14.104  18.679  0.00  0.00    +0.000 A 
ATOM     16  C   UNL     1       1.704  12.736  18.869  0.00  0.00    +0.000 A 
BRANCH  15  17
ATOM     17  C   UNL     1       3.239  14.665  18.517  0.00  0.00    +0.000 A 
ATOM     18  N   UNL     1       3.676  15.805  19.022  0.00  0.00    +0.000 NA
ATOM     19  C   UNL     1       4.972  15.938  18.596  0.00  0.00    +0.000 A 
ATOM     20  C   UNL     1       5.352  14.852  17.848  0.00  0.00    +0.000 A 
ATOM     21  N   UNL     1       4.248  14.049  17.809  0.00  0.00    +0.000 N 
ATOM     22  H   UNL     1       4.180  13.151  17.353  0.00  0.00    +0.000 HD
ENDBRANCH  15  17
ENDBRANCH   8  11
ENDBRANCH   1   9
BRANCH   4  23
ATOM     23  C   UNL     1       2.056   4.477  20.454  0.00  0.00    +0.000 C 
BRANCH  23  24
ATOM     24  C   UNL     1       1.062   3.716  19.568  0.00  0.00    +0.000 C 
BRANCH  24  25
ATOM     25  N   UNL     1       1.603   2.427  19.136  0.00  0.00    +0.000 NA
ATOM     26  H   UNL     1       0.848   1.742  19.098  0.00  0.00    +0.000 HD
BRANCH  25  27
ATOM     27  C   UNL     1       2.235   2.525  17.813  0.00  0.00    +0.000 C 
BRANCH  27  28
ATOM     28  C   UNL     1       3.779   2.332  17.779  0.00  0.00    +0.000 C 
BRANCH  28  29
ATOM     29  C   UNL     1       4.528   3.643  17.773  0.00  0.00    +0.000 A 
ATOM     30  C   UNL     1       5.257   4.104  18.875  0.00  0.00    +0.000 A 
ATOM     31  C   UNL     1       5.852   5.361  18.837  0.00  0.00    +0.000 A 
ATOM     32  C   UNL     1       5.702   6.125  17.692  0.00  0.00    +0.000 A 
ATOM     33  N   UNL     1       5.019   5.718  16.603  0.00  0.00    +0.000 NA
ATOM     34  C   UNL     1       4.448   4.493  16.671  0.00  0.00    +0.000 A 
ENDBRANCH  28  29
BRANCH  28  35
ATOM     35  O   UNL     1       4.184   1.526  18.888  0.00  0.00    +0.000 OA
ATOM     36  H   UNL     1       4.475   0.667  18.543  0.00  0.00    +0.000 HD
ENDBRANCH  28  35
ENDBRANCH  27  28
ENDBRANCH  25  27
ENDBRANCH  24  25
ENDBRANCH  23  24
ENDBRANCH   4  23
TORSDOF 10
ENDMDL
MODEL 8
REMARK VINA RESULT:      -7.5      6.357      8.535
REMARK  Name = 
REMARK  10 active torsions:
REMARK  status: ('A' for Active; 'I' for Inactive)
REMARK    1  A    between atoms: C_2  and  C_22
REMARK    2  A    between atoms: N_3  and  C_4
REMARK    3  A    between atoms: C_7  and  C_8
REMARK    4  A    between atoms: C_8  and  C_9
REMARK    5  A    between atoms: C_9  and  N_10
REMARK    6  A    between atoms: N_10  and  C_11
REMARK    7  A    between atoms: C_11  and  C_12
REMARK    8  A    between atoms: C_12  and  O_13
REMARK    9  A    between atoms: C_12  and  C_14
REMARK   10  A    between atoms: C_26  and  C_27
REMARK                            x       y       z     vdW  Elec       q    Type
REMARK                         _______ _______ _______ _____ _____    ______ ____
ROOT
ATOM      1  C   UNL     1       8.259   7.718  18.486  0.00  0.00    +0.000 A 
ATOM      2  C   UNL     1       7.654   7.668  17.232  0.00  0.00    +0.000 A 
ATOM      3  C   UNL     1       7.091   6.485  16.765  0.00  0.00    +0.000 A 
ATOM      4  C   UNL     1       7.145   5.319  17.534  0.00  0.00    +0.000 A 
ATOM      5  C   UNL     1       7.768   5.361  18.786  0.00  0.00    +0.000 A 
ATOM      6  C   UNL     1       8.329   6.553  19.257  0.00  0.00    +0.000 A 
ENDROOT
BRANCH   1   9
ATOM      7  O   UNL     1       8.047  10.456  17.448  0.00  0.00    +0.000 OA
ATOM      8  C   UNL     1       8.708  10.154  18.435  0.00  0.00    +0.000 C 
ATOM      9  N   UNL     1       8.815   8.902  19.011  0.00  0.00    +0.000 N 
ATOM     10  H   UNL     1       9.203   8.842  19.944  0.00  0.00    +0.000 HD
BRANCH   8  11
ATOM     11  C   UNL     1       9.421  11.247  19.136  0.00  0.00    +0.000 A 
ATOM     12  C   UNL     1       9.821  11.145  20.470  0.00  0.00    +0.000 A 
ATOM     13  C   UNL     1      10.514  12.203  21.060  0.00  0.00    +0.000 A 
ATOM     14  C   UNL     1      10.811  13.347  20.310  0.00  0.00    +0.000 A 
ATOM     15  C   UNL     1      10.434  13.448  18.963  0.00  0.00    +0.000 A 
ATOM     16  C   UNL     1       9.732  12.390  18.386  0.00  0.00    +0.000 A 
BRANCH  15  17
ATOM     17  C   UNL     1      10.763  14.649  18.197  0.00  0.00    +0.000 A 
ATOM     18  N   UNL     1      11.890  14.876  17.545  0.00  0.00    +0.000 NA
ATOM     19  C   UNL     1      11.766  16.127  16.997  0.00  0.00    +0.000 A 
ATOM     20  C   UNL     1      10.538  16.666  17.286  0.00  0.00    +0.000 A 
ATOM     21  N   UNL     1       9.908  15.719  18.041  0.00  0.00    +0.000 N 
ATOM     22  H   UNL     1       8.971  15.778  18.414  0.00  0.00    +0.000 HD
ENDBRANCH  15  17
ENDBRANCH   8  11
ENDBRANCH   1   9
BRANCH   4  23
ATOM     23  C   UNL     1       6.566   4.037  16.988  0.00  0.00    +0.000 C 
BRANCH  23  24
ATOM     24  C   UNL     1       5.938   4.282  15.610  0.00  0.00    +0.000 C 
BRANCH  24  25
ATOM     25  N   UNL     1       4.483   4.400  15.696  0.00  0.00    +0.000 NA
ATOM     26  H   UNL     1       4.062   3.974  14.869  0.00  0.00    +0.000 HD
BRANCH  25  27
ATOM     27  C   UNL     1       3.958   3.740  16.900  0.00  0.00    +0.000 C 
BRANCH  27  28
ATOM     28  C   UNL     1       3.004   4.593  17.785  0.00  0.00    +0.000 C 
BRANCH  28  29
ATOM     29  C   UNL     1       2.607   3.886  19.059  0.00  0.00    +0.000 A 
ATOM     30  C   UNL     1       1.306   3.925  19.573  0.00  0.00    +0.000 A 
ATOM     31  C   UNL     1       1.026   3.325  20.796  0.00  0.00    +0.000 A 
ATOM     32  C   UNL     1       2.058   2.699  21.474  0.00  0.00    +0.000 A 
ATOM     33  N   UNL     1       3.323   2.627  21.013  0.00  0.00    +0.000 NA
ATOM     34  C   UNL     1       3.566   3.222  19.822  0.00  0.00    +0.000 A 
ENDBRANCH  28  29
BRANCH  28  35
ATOM     35  O   UNL     1       3.621   5.849  18.079  0.00  0.00    +0.000 OA
ATOM     36  H   UNL     1       3.038   6.333  18.685  0.00  0.00    +0.000 HD
ENDBRANCH  28  35
ENDBRANCH  27  28
ENDBRANCH  25  27
ENDBRANCH  24  25
ENDBRANCH  23  24
ENDBRANCH   4  23
TORSDOF 10
ENDMDL
MODEL 9
REMARK VINA RESULT:      -7.5      3.520      5.251
REMARK  Name = 
REMARK  10 active torsions:
REMARK  status: ('A' for Active; 'I' for Inactive)
REMARK    1  A    between atoms: C_2  and  C_22
REMARK    2  A    between atoms: N_3  and  C_4
REMARK    3  A    between atoms: C_7  and  C_8
REMARK    4  A    between atoms: C_8  and  C_9
REMARK    5  A    between atoms: C_9  and  N_10
REMARK    6  A    between atoms: N_10  and  C_11
REMARK    7  A    between atoms: C_11  and  C_12
REMARK    8  A    between atoms: C_12  and  O_13
REMARK    9  A    between atoms: C_12  and  C_14
REMARK   10  A    between atoms: C_26  and  C_27
REMARK                            x       y       z     vdW  Elec       q    Type
REMARK                         _______ _______ _______ _____ _____    ______ ____
ROOT
ATOM      1  C   UNL     1       1.940   8.428  19.240  0.00  0.00    +0.000 A 
ATOM      2  C   UNL     1       1.635   7.724  20.403  0.00  0.00    +0.000 A 
ATOM      3  C   UNL     1       1.786   6.343  20.455  0.00  0.00    +0.000 A 
ATOM      4  C   UNL     1       2.220   5.632  19.332  0.00  0.00    +0.000 A 
ATOM      5  C   UNL     1       2.509   6.333  18.156  0.00  0.00    +0.000 A 
ATOM      6  C   UNL     1       2.362   7.723  18.108  0.00  0.00    +0.000 A 
ENDROOT
BRANCH   1   9
ATOM      7  O   UNL     1      -0.490  10.065  19.066  0.00  0.00    +0.000 OA
ATOM      8  C   UNL     1       0.644  10.528  19.026  0.00  0.00    +0.000 C 
ATOM      9  N   UNL     1       1.830   9.830  19.153  0.00  0.00    +0.000 N 
ATOM     10  H   UNL     1       2.674  10.360  19.331  0.00  0.00    +0.000 HD
BRANCH   8  11
ATOM     11  C   UNL     1       0.774  11.999  18.897  0.00  0.00    +0.000 A 
ATOM     12  C   UNL     1      -0.334  12.847  18.851  0.00  0.00    +0.000 A 
ATOM     13  C   UNL     1      -0.138  14.225  18.758  0.00  0.00    +0.000 A 
ATOM     14  C   UNL     1       1.161  14.744  18.722  0.00  0.00    +0.000 A 
ATOM     15  C   UNL     1       2.280  13.902  18.792  0.00  0.00    +0.000 A 
ATOM     16  C   UNL     1       2.073  12.525  18.874  0.00  0.00    +0.000 A 
BRANCH  15  17
ATOM     17  C   UNL     1       3.628  14.467  18.762  0.00  0.00    +0.000 A 
ATOM     18  N   UNL     1       4.299  14.942  19.797  0.00  0.00    +0.000 NA
ATOM     19  C   UNL     1       5.498  15.384  19.301  0.00  0.00    +0.000 A 
ATOM     20  C   UNL     1       5.583  15.150  17.952  0.00  0.00    +0.000 A 
ATOM     21  N   UNL     1       4.395  14.563  17.622  0.00  0.00    +0.000 N 
ATOM     22  H   UNL     1       4.123  14.240  16.704  0.00  0.00    +0.000 HD
ENDBRANCH  15  17
ENDBRANCH   8  11
ENDBRANCH   1   9
BRANCH   4  23
ATOM     23  C   UNL     1       2.335   4.129  19.399  0.00  0.00    +0.000 C 
BRANCH  23  24
ATOM     24  C   UNL     1       2.189   3.522  17.998  0.00  0.00    +0.000 C 
BRANCH  24  25
ATOM     25  N   UNL     1       3.196   2.490  17.752  0.00  0.00    +0.000 NA
ATOM     26  H   UNL     1       3.103   2.152  16.793  0.00  0.00    +0.000 HD
BRANCH  25  27
ATOM     27  C   UNL     1       4.558   3.008  17.951  0.00  0.00    +0.000 C 
BRANCH  27  28
ATOM     28  C   UNL     1       5.124   3.896  16.806  0.00  0.00    +0.000 C 
BRANCH  28  29
ATOM     29  C   UNL     1       6.131   4.908  17.300  0.00  0.00    +0.000 A 
ATOM     30  C   UNL     1       6.541   4.977  18.636  0.00  0.00    +0.000 A 
ATOM     31  C   UNL     1       7.407   5.988  19.043  0.00  0.00    +0.000 A 
ATOM     32  C   UNL     1       7.840   6.904  18.100  0.00  0.00    +0.000 A 
ATOM     33  N   UNL     1       7.480   6.869  16.801  0.00  0.00    +0.000 NA
ATOM     34  C   UNL     1       6.635   5.877  16.435  0.00  0.00    +0.000 A 
ENDBRANCH  28  29
BRANCH  28  35
ATOM     35  O   UNL     1       5.700   3.065  15.796  0.00  0.00    +0.000 OA
ATOM     36  H   UNL     1       6.660   3.048  15.935  0.00  0.00    +0.000 HD
ENDBRANCH  28  35
ENDBRANCH  27  28
ENDBRANCH  25  27
ENDBRANCH  24  25
ENDBRANCH  23  24
ENDBRANCH   4  23
TORSDOF 10
ENDMDL
