MODEL 1
REMARK VINA RESULT:      -8.7      0.000      0.000
REMARK  Name = 
REMARK  12 active torsions:
REMARK  status: ('A' for Active; 'I' for Inactive)
REMARK    1  A    between atoms: C_1  and  N_2
REMARK    2  A    between atoms: N_7  and  C_8
REMARK    3  A    between atoms: C_8  and  C_9
REMARK    4  A    between atoms: C_9  and  C_10
REMARK    5  A    between atoms: C_10  and  C_11
REMARK    6  A    between atoms: C_11  and  C_12
REMARK    7  A    between atoms: C_12  and  C_13
REMARK    8  A    between atoms: C_13  and  C_14
REMARK    9  A    between atoms: C_14  and  C_15
REMARK   10  A    between atoms: C_15  and  C_16
REMARK   11  A    between atoms: C_16  and  N_17
REMARK   12  A    between atoms: N_28  and  C_29
REMARK                            x       y       z     vdW  Elec       q    Type
REMARK                         _______ _______ _______ _____ _____    ______ ____
ROOT
ATOM      1  C   UNL     1       0.053  10.129  19.418  0.00  0.00    +0.000 C 
ENDROOT
BRANCH   1   2
ATOM      2  C   UNL     1      -0.107  10.004  20.935  0.00  0.00    +0.000 C 
BRANCH   2   3
ATOM      3  C   UNL     1      -0.107  11.359  21.648  0.00  0.00    +0.000 C 
BRANCH   3   4
ATOM      4  C   UNL     1      -1.540  11.748  22.030  0.00  0.00    +0.000 C 
BRANCH   4   5
ATOM      5  C   UNL     1      -2.098  12.878  21.167  0.00  0.00    +0.000 C 
BRANCH   5  12
ATOM      6  C   UNL     1      -3.485   9.726  17.527  0.00  0.00    +0.000 C 
ATOM      7  N   UNL     1      -3.408  11.150  17.191  0.00  0.00    +0.000 NA
ATOM      8  C   UNL     1      -4.749  11.701  16.867  0.00  0.00    +0.000 C 
ATOM      9  C   UNL     1      -5.773  11.666  18.027  0.00  0.00    +0.000 C 
ATOM     10  C   UNL     1      -5.115  12.072  19.300  0.00  0.00    +0.000 A 
ATOM     11  C   UNL     1      -3.743  12.183  19.403  0.00  0.00    +0.000 A 
ATOM     12  N   UNL     1      -3.443  12.583  20.682  0.00  0.00    +0.000 N 
ATOM     13  C   UNL     1      -4.612  12.665  21.426  0.00  0.00    +0.000 A 
ATOM     14  C   UNL     1      -4.846  12.988  22.777  0.00  0.00    +0.000 A 
ATOM     15  C   UNL     1      -6.168  12.969  23.242  0.00  0.00    +0.000 A 
ATOM     16  C   UNL     1      -7.227  12.639  22.405  0.00  0.00    +0.000 A 
ATOM     17  C   UNL     1      -6.991  12.325  21.065  0.00  0.00    +0.000 A 
ATOM     18  C   UNL     1      -5.672  12.340  20.571  0.00  0.00    +0.000 A 
ATOM     19  C   UNL     1      -2.778  11.926  18.288  0.00  0.00    +0.000 C 
ENDBRANCH   5  12
ENDBRANCH   4   5
ENDBRANCH   3   4
ENDBRANCH   2   3
ENDBRANCH   1   2
BRANCH   1  20
ATOM     20  C   UNL     1       1.527  10.333  19.054  0.00  0.00    +0.000 C 
BRANCH  20  21
ATOM     21  C   UNL     1       1.948   9.521  17.826  0.00  0.00    +0.000 C 
BRANCH  21  22
ATOM     22  C   UNL     1       1.590   8.043  18.017  0.00  0.00    +0.000 C 
BRANCH  22  23
ATOM     23  C   UNL     1       2.590   7.310  18.907  0.00  0.00    +0.000 C 
BRANCH  23  24
ATOM     24  N   UNL     1       3.046   6.054  18.320  0.00  0.00    +0.000 N 
ATOM     25  C   UNL     1       4.089   5.905  17.437  0.00  0.00    +0.000 A 
ATOM     26  C   UNL     1       4.106   4.588  17.019  0.00  0.00    +0.000 A 
ATOM     27  C   UNL     1       3.106   3.888  17.731  0.00  0.00    +0.000 A 
ATOM     28  C   UNL     1       2.705   2.538  17.761  0.00  0.00    +0.000 A 
ATOM     29  C   UNL     1       1.658   2.150  18.597  0.00  0.00    +0.000 A 
ATOM     30  C   UNL     1       1.008   3.091  19.394  0.00  0.00    +0.000 A 
ATOM     31  C   UNL     1       1.391   4.436  19.382  0.00  0.00    +0.000 A 
ATOM     32  C   UNL     1       2.450   4.819  18.542  0.00  0.00    +0.000 A 
ATOM     33  C   UNL     1       5.099   4.093  16.024  0.00  0.00    +0.000 C 
ATOM     34  C   UNL     1       5.837   5.286  15.372  0.00  0.00    +0.000 C 
ATOM     35  N   UNL     1       6.233   6.370  16.307  0.00  0.00    +0.000 NA
ATOM     36  C   UNL     1       7.197   5.886  17.297  0.00  0.00    +0.000 C 
ATOM     37  C   UNL     1       5.036   6.962  16.962  0.00  0.00    +0.000 C 
ENDBRANCH  23  24
ENDBRANCH  22  23
ENDBRANCH  21  22
ENDBRANCH  20  21
ENDBRANCH   1  20
TORSDOF 10
ENDMDL
MODEL 2
REMARK VINA RESULT:      -8.7      1.355     10.858
REMARK  Name = 
REMARK  12 active torsions:
REMARK  status: ('A' for Active; 'I' for Inactive)
REMARK    1  A    between atoms: C_1  and  N_2
REMARK    2  A    between atoms: N_7  and  C_8
REMARK    3  A    between atoms: C_8  and  C_9
REMARK    4  A    between atoms: C_9  and  C_10
REMARK    5  A    between atoms: C_10  and  C_11
REMARK    6  A    between atoms: C_11  and  C_12
REMARK    7  A    between atoms: C_12  and  C_13
REMARK    8  A    between atoms: C_13  and  C_14
REMARK    9  A    between atoms: C_14  and  C_15
REMARK   10  A    between atoms: C_15  and  C_16
REMARK   11  A    between atoms: C_16  and  N_17
REMARK   12  A    between atoms: N_28  and  C_29
REMARK                            x       y       z     vdW  Elec       q    Type
REMARK                         _______ _______ _______ _____ _____    ______ ____
ROOT
ATOM      1  C   UNL     1      -0.242   9.085  22.004  0.00  0.00    +0.000 C 
ENDROOT
BRANCH   1   2
ATOM      2  C   UNL     1       1.101   8.436  21.663  0.00  0.00    +0.000 C 
BRANCH   2   3
ATOM      3  C   UNL     1       1.427   8.492  20.168  0.00  0.00    +0.000 C 
BRANCH   3   4
ATOM      4  C   UNL     1       2.263   7.271  19.768  0.00  0.00    +0.000 C 
BRANCH   4   5
ATOM      5  C   UNL     1       2.394   7.112  18.254  0.00  0.00    +0.000 C 
BRANCH   5  12
ATOM      6  C   UNL     1       7.264   6.214  17.490  0.00  0.00    +0.000 C 
ATOM      7  N   UNL     1       6.422   6.410  16.307  0.00  0.00    +0.000 NA
ATOM      8  C   UNL     1       6.333   5.169  15.497  0.00  0.00    +0.000 C 
ATOM      9  C   UNL     1       5.670   3.965  16.206  0.00  0.00    +0.000 C 
ATOM     10  C   UNL     1       4.471   4.418  16.965  0.00  0.00    +0.000 A 
ATOM     11  C   UNL     1       4.212   5.756  17.178  0.00  0.00    +0.000 A 
ATOM     12  N   UNL     1       3.041   5.856  17.890  0.00  0.00    +0.000 N 
ATOM     13  C   UNL     1       2.579   4.583  18.197  0.00  0.00    +0.000 A 
ATOM     14  C   UNL     1       1.460   4.141  18.929  0.00  0.00    +0.000 A 
ATOM     15  C   UNL     1       1.270   2.760  19.077  0.00  0.00    +0.000 A 
ATOM     16  C   UNL     1       2.155   1.843  18.524  0.00  0.00    +0.000 A 
ATOM     17  C   UNL     1       3.259   2.285  17.793  0.00  0.00    +0.000 A 
ATOM     18  C   UNL     1       3.472   3.668  17.626  0.00  0.00    +0.000 A 
ATOM     19  C   UNL     1       5.067   6.881  16.686  0.00  0.00    +0.000 C 
ENDBRANCH   5  12
ENDBRANCH   4   5
ENDBRANCH   3   4
ENDBRANCH   2   3
ENDBRANCH   1   2
BRANCH   1  20
ATOM     20  C   UNL     1      -0.068  10.592  22.211  0.00  0.00    +0.000 C 
BRANCH  20  21
ATOM     21  C   UNL     1      -1.392  11.305  22.500  0.00  0.00    +0.000 C 
BRANCH  21  22
ATOM     22  C   UNL     1      -1.186  12.823  22.522  0.00  0.00    +0.000 C 
BRANCH  22  23
ATOM     23  C   UNL     1      -1.270  13.444  21.129  0.00  0.00    +0.000 C 
BRANCH  23  24
ATOM     24  N   UNL     1      -2.418  12.960  20.370  0.00  0.00    +0.000 N 
ATOM     25  C   UNL     1      -3.726  13.345  20.548  0.00  0.00    +0.000 A 
ATOM     26  C   UNL     1      -4.515  12.559  19.730  0.00  0.00    +0.000 A 
ATOM     27  C   UNL     1      -3.664  11.731  18.963  0.00  0.00    +0.000 A 
ATOM     28  C   UNL     1      -3.896  10.783  17.947  0.00  0.00    +0.000 A 
ATOM     29  C   UNL     1      -2.814  10.118  17.368  0.00  0.00    +0.000 A 
ATOM     30  C   UNL     1      -1.514  10.385  17.794  0.00  0.00    +0.000 A 
ATOM     31  C   UNL     1      -1.261  11.322  18.800  0.00  0.00    +0.000 A 
ATOM     32  C   UNL     1      -2.353  11.993  19.375  0.00  0.00    +0.000 A 
ATOM     33  C   UNL     1      -5.999  12.694  19.704  0.00  0.00    +0.000 C 
ATOM     34  C   UNL     1      -6.471  13.578  20.883  0.00  0.00    +0.000 C 
ATOM     35  N   UNL     1      -5.642  14.783  21.139  0.00  0.00    +0.000 NA
ATOM     36  C   UNL     1      -5.682  15.702  19.999  0.00  0.00    +0.000 C 
ATOM     37  C   UNL     1      -4.246  14.399  21.476  0.00  0.00    +0.000 C 
ENDBRANCH  23  24
ENDBRANCH  22  23
ENDBRANCH  21  22
ENDBRANCH  20  21
ENDBRANCH   1  20
TORSDOF 10
ENDMDL
MODEL 3
REMARK VINA RESULT:      -8.5      0.902      1.188
REMARK  Name = 
REMARK  12 active torsions:
REMARK  status: ('A' for Active; 'I' for Inactive)
REMARK    1  A    between atoms: C_1  and  N_2
REMARK    2  A    between atoms: N_7  and  C_8
REMARK    3  A    between atoms: C_8  and  C_9
REMARK    4  A    between atoms: C_9  and  C_10
REMARK    5  A    between atoms: C_10  and  C_11
REMARK    6  A    between atoms: C_11  and  C_12
REMARK    7  A    between atoms: C_12  and  C_13
REMARK    8  A    between atoms: C_13  and  C_14
REMARK    9  A    between atoms: C_14  and  C_15
REMARK   10  A    between atoms: C_15  and  C_16
REMARK   11  A    between atoms: C_16  and  N_17
REMARK   12  A    between atoms: N_28  and  C_29
REMARK                            x       y       z     vdW  Elec       q    Type
REMARK                         _______ _______ _______ _____ _____    ______ ____
ROOT
ATOM      1  C   UNL     1       0.104   9.399  22.853  0.00  0.00    +0.000 C 
ENDROOT
BRANCH   1   2
ATOM      2  C   UNL     1      -0.334  10.813  22.467  0.00  0.00    +0.000 C 
BRANCH   2   3
ATOM      3  C   UNL     1      -1.680  11.208  23.081  0.00  0.00    +0.000 C 
BRANCH   3   4
ATOM      4  C   UNL     1      -1.986  12.678  22.771  0.00  0.00    +0.000 C 
BRANCH   4   5
ATOM      5  C   UNL     1      -2.046  12.968  21.273  0.00  0.00    +0.000 C 
BRANCH   5  12
ATOM      6  C   UNL     1      -3.088   9.646  17.669  0.00  0.00    +0.000 C 
ATOM      7  N   UNL     1      -3.014  11.058  17.282  0.00  0.00    +0.000 NA
ATOM      8  C   UNL     1      -4.337  11.564  16.836  0.00  0.00    +0.000 C 
ATOM      9  C   UNL     1      -5.446  11.552  17.916  0.00  0.00    +0.000 C 
ATOM     10  C   UNL     1      -4.895  12.021  19.218  0.00  0.00    +0.000 A 
ATOM     11  C   UNL     1      -3.538  12.167  19.419  0.00  0.00    +0.000 A 
ATOM     12  N   UNL     1      -3.344  12.623  20.700  0.00  0.00    +0.000 N 
ATOM     13  C   UNL     1      -4.568  12.707  21.350  0.00  0.00    +0.000 A 
ATOM     14  C   UNL     1      -4.911  13.077  22.665  0.00  0.00    +0.000 A 
ATOM     15  C   UNL     1      -6.264  13.046  23.030  0.00  0.00    +0.000 A 
ATOM     16  C   UNL     1      -7.249  12.659  22.129  0.00  0.00    +0.000 A 
ATOM     17  C   UNL     1      -6.905  12.299  20.824  0.00  0.00    +0.000 A 
ATOM     18  C   UNL     1      -5.553  12.325  20.431  0.00  0.00    +0.000 A 
ATOM     19  C   UNL     1      -2.486  11.890  18.391  0.00  0.00    +0.000 C 
ENDBRANCH   5  12
ENDBRANCH   4   5
ENDBRANCH   3   4
ENDBRANCH   2   3
ENDBRANCH   1   2
BRANCH   1  20
ATOM     20  C   UNL     1       1.318   8.972  22.023  0.00  0.00    +0.000 C 
BRANCH  20  21
ATOM     21  C   UNL     1       0.929   8.159  20.786  0.00  0.00    +0.000 C 
BRANCH  21  22
ATOM     22  C   UNL     1       2.104   7.286  20.331  0.00  0.00    +0.000 C 
BRANCH  22  23
ATOM     23  C   UNL     1       2.250   7.249  18.811  0.00  0.00    +0.000 C 
BRANCH  23  24
ATOM     24  N   UNL     1       2.827   5.997  18.336  0.00  0.00    +0.000 N 
ATOM     25  C   UNL     1       3.904   5.871  17.490  0.00  0.00    +0.000 A 
ATOM     26  C   UNL     1       4.045   4.532  17.178  0.00  0.00    +0.000 A 
ATOM     27  C   UNL     1       3.087   3.805  17.921  0.00  0.00    +0.000 A 
ATOM     28  C   UNL     1       2.802   2.431  18.049  0.00  0.00    +0.000 A 
ATOM     29  C   UNL     1       1.768   2.020  18.890  0.00  0.00    +0.000 A 
ATOM     30  C   UNL     1       1.018   2.959  19.595  0.00  0.00    +0.000 A 
ATOM     31  C   UNL     1       1.285   4.327  19.485  0.00  0.00    +0.000 A 
ATOM     32  C   UNL     1       2.332   4.735  18.641  0.00  0.00    +0.000 A 
ATOM     33  C   UNL     1       5.105   4.050  16.248  0.00  0.00    +0.000 C 
ATOM     34  C   UNL     1       5.757   5.249  15.520  0.00  0.00    +0.000 C 
ATOM     35  N   UNL     1       6.032   6.431  16.374  0.00  0.00    +0.000 NA
ATOM     36  C   UNL     1       7.006   6.110  17.421  0.00  0.00    +0.000 C 
ATOM     37  C   UNL     1       4.772   6.966  16.954  0.00  0.00    +0.000 C 
ENDBRANCH  23  24
ENDBRANCH  22  23
ENDBRANCH  21  22
ENDBRANCH  20  21
ENDBRANCH   1  20
TORSDOF 10
ENDMDL
MODEL 4
REMARK VINA RESULT:      -8.4      0.783     10.265
REMARK  Name = 
REMARK  12 active torsions:
REMARK  status: ('A' for Active; 'I' for Inactive)
REMARK    1  A    between atoms: C_1  and  N_2
REMARK    2  A    between atoms: N_7  and  C_8
REMARK    3  A    between atoms: C_8  and  C_9
REMARK    4  A    between atoms: C_9  and  C_10
REMARK    5  A    between atoms: C_10  and  C_11
REMARK    6  A    between atoms: C_11  and  C_12
REMARK    7  A    between atoms: C_12  and  C_13
REMARK    8  A    between atoms: C_13  and  C_14
REMARK    9  A    between atoms: C_14  and  C_15
REMARK   10  A    between atoms: C_15  and  C_16
REMARK   11  A    between atoms: C_16  and  N_17
REMARK   12  A    between atoms: N_28  and  C_29
REMARK                            x       y       z     vdW  Elec       q    Type
REMARK                         _______ _______ _______ _____ _____    ______ ____
ROOT
ATOM      1  C   UNL     1       1.472  10.999  20.300  0.00  0.00    +0.000 C 
ENDROOT
BRANCH   1   2
ATOM      2  C   UNL     1       0.719  10.221  19.217  0.00  0.00    +0.000 C 
BRANCH   2   3
ATOM      3  C   UNL     1       1.635   9.726  18.095  0.00  0.00    +0.000 C 
BRANCH   3   4
ATOM      4  C   UNL     1       1.550   8.199  17.985  0.00  0.00    +0.000 C 
BRANCH   4   5
ATOM      5  C   UNL     1       2.455   7.482  18.985  0.00  0.00    +0.000 C 
BRANCH   5  12
ATOM      6  C   UNL     1       6.922   6.076  17.202  0.00  0.00    +0.000 C 
ATOM      7  N   UNL     1       5.872   6.379  16.225  0.00  0.00    +0.000 NA
ATOM      8  C   UNL     1       5.478   5.165  15.464  0.00  0.00    +0.000 C 
ATOM      9  C   UNL     1       4.856   4.029  16.311  0.00  0.00    +0.000 C 
ATOM     10  C   UNL     1       3.904   4.598  17.305  0.00  0.00    +0.000 A 
ATOM     11  C   UNL     1       3.843   5.953  17.556  0.00  0.00    +0.000 A 
ATOM     12  N   UNL     1       2.870   6.168  18.502  0.00  0.00    +0.000 N 
ATOM     13  C   UNL     1       2.349   4.948  18.913  0.00  0.00    +0.000 A 
ATOM     14  C   UNL     1       1.372   4.619  19.872  0.00  0.00    +0.000 A 
ATOM     15  C   UNL     1       1.070   3.265  20.071  0.00  0.00    +0.000 A 
ATOM     16  C   UNL     1       1.712   2.265  19.349  0.00  0.00    +0.000 A 
ATOM     17  C   UNL     1       2.675   2.597  18.394  0.00  0.00    +0.000 A 
ATOM     18  C   UNL     1       2.995   3.950  18.172  0.00  0.00    +0.000 A 
ATOM     19  C   UNL     1       4.688   6.987  16.882  0.00  0.00    +0.000 C 
ENDBRANCH   5  12
ENDBRANCH   4   5
ENDBRANCH   3   4
ENDBRANCH   2   3
ENDBRANCH   1   2
BRANCH   1  20
ATOM     20  C   UNL     1       0.493  11.816  21.147  0.00  0.00    +0.000 C 
BRANCH  20  21
ATOM     21  C   UNL     1      -0.859  11.119  21.322  0.00  0.00    +0.000 C 
BRANCH  21  22
ATOM     22  C   UNL     1      -1.901  12.105  21.863  0.00  0.00    +0.000 C 
BRANCH  22  23
ATOM     23  C   UNL     1      -2.402  13.071  20.791  0.00  0.00    +0.000 C 
BRANCH  23  24
ATOM     24  N   UNL     1      -3.471  12.499  19.980  0.00  0.00    +0.000 N 
ATOM     25  C   UNL     1      -3.346  12.024  18.696  0.00  0.00    +0.000 A 
ATOM     26  C   UNL     1      -4.609  11.697  18.239  0.00  0.00    +0.000 A 
ATOM     27  C   UNL     1      -5.523  11.891  19.299  0.00  0.00    +0.000 A 
ATOM     28  C   UNL     1      -6.908  11.674  19.433  0.00  0.00    +0.000 A 
ATOM     29  C   UNL     1      -7.535  11.967  20.645  0.00  0.00    +0.000 A 
ATOM     30  C   UNL     1      -6.799  12.475  21.714  0.00  0.00    +0.000 A 
ATOM     31  C   UNL     1      -5.422  12.695  21.604  0.00  0.00    +0.000 A 
ATOM     32  C   UNL     1      -4.796  12.393  20.383  0.00  0.00    +0.000 A 
ATOM     33  C   UNL     1      -4.836  11.181  16.859  0.00  0.00    +0.000 C 
ATOM     34  C   UNL     1      -3.556  11.360  16.009  0.00  0.00    +0.000 C 
ATOM     35  N   UNL     1      -2.286  11.026  16.703  0.00  0.00    +0.000 NA
ATOM     36  C   UNL     1      -2.244   9.609  17.072  0.00  0.00    +0.000 C 
ATOM     37  C   UNL     1      -2.090  11.900  17.890  0.00  0.00    +0.000 C 
ENDBRANCH  23  24
ENDBRANCH  22  23
ENDBRANCH  21  22
ENDBRANCH  20  21
ENDBRANCH   1  20
TORSDOF 10
ENDMDL
MODEL 5
REMARK VINA RESULT:      -8.4      1.875      9.974
REMARK  Name = 
REMARK  12 active torsions:
REMARK  status: ('A' for Active; 'I' for Inactive)
REMARK    1  A    between atoms: C_1  and  N_2
REMARK    2  A    between atoms: N_7  and  C_8
REMARK    3  A    between atoms: C_8  and  C_9
REMARK    4  A    between atoms: C_9  and  C_10
REMARK    5  A    between atoms: C_10  and  C_11
REMARK    6  A    between atoms: C_11  and  C_12
REMARK    7  A    between atoms: C_12  and  C_13
REMARK    8  A    between atoms: C_13  and  C_14
REMARK    9  A    between atoms: C_14  and  C_15
REMARK   10  A    between atoms: C_15  and  C_16
REMARK   11  A    between atoms: C_16  and  N_17
REMARK   12  A    between atoms: N_28  and  C_29
REMARK                            x       y       z     vdW  Elec       q    Type
REMARK                         _______ _______ _______ _____ _____    ______ ____
ROOT
ATOM      1  C   UNL     1      -0.213   8.963  21.995  0.00  0.00    +0.000 C 
ENDROOT
BRANCH   1   2
ATOM      2  C   UNL     1       0.867   8.938  20.911  0.00  0.00    +0.000 C 
BRANCH   2   3
ATOM      3  C   UNL     1       1.358   7.523  20.593  0.00  0.00    +0.000 C 
BRANCH   3   4
ATOM      4  C   UNL     1       2.506   7.582  19.579  0.00  0.00    +0.000 C 
BRANCH   4   5
ATOM      5  C   UNL     1       2.131   6.986  18.224  0.00  0.00    +0.000 C 
BRANCH   5  12
ATOM      6  C   UNL     1       7.093   6.476  17.752  0.00  0.00    +0.000 C 
ATOM      7  N   UNL     1       6.308   6.581  16.520  0.00  0.00    +0.000 NA
ATOM      8  C   UNL     1       6.366   5.321  15.735  0.00  0.00    +0.000 C 
ATOM      9  C   UNL     1       5.762   4.080  16.434  0.00  0.00    +0.000 C 
ATOM     10  C   UNL     1       4.489   4.447  17.115  0.00  0.00    +0.000 A 
ATOM     11  C   UNL     1       4.112   5.764  17.282  0.00  0.00    +0.000 A 
ATOM     12  N   UNL     1       2.898   5.780  17.925  0.00  0.00    +0.000 N 
ATOM     13  C   UNL     1       2.523   4.480  18.235  0.00  0.00    +0.000 A 
ATOM     14  C   UNL     1       1.403   3.962  18.914  0.00  0.00    +0.000 A 
ATOM     15  C   UNL     1       1.317   2.573  19.083  0.00  0.00    +0.000 A 
ATOM     16  C   UNL     1       2.303   1.721  18.601  0.00  0.00    +0.000 A 
ATOM     17  C   UNL     1       3.408   2.239  17.923  0.00  0.00    +0.000 A 
ATOM     18  C   UNL     1       3.518   3.630  17.736  0.00  0.00    +0.000 A 
ATOM     19  C   UNL     1       4.899   6.946  16.812  0.00  0.00    +0.000 C 
ENDBRANCH   5  12
ENDBRANCH   4   5
ENDBRANCH   3   4
ENDBRANCH   2   3
ENDBRANCH   1   2
BRANCH   1  20
ATOM     20  C   UNL     1      -0.078  10.226  22.851  0.00  0.00    +0.000 C 
BRANCH  20  21
ATOM     21  C   UNL     1      -1.391  11.004  22.964  0.00  0.00    +0.000 C 
BRANCH  21  22
ATOM     22  C   UNL     1      -1.142  12.503  22.759  0.00  0.00    +0.000 C 
BRANCH  22  23
ATOM     23  C   UNL     1      -1.811  13.038  21.495  0.00  0.00    +0.000 C 
BRANCH  23  24
ATOM     24  N   UNL     1      -1.278  12.431  20.280  0.00  0.00    +0.000 N 
ATOM     25  C   UNL     1      -1.970  11.626  19.407  0.00  0.00    +0.000 A 
ATOM     26  C   UNL     1      -1.075  11.150  18.467  0.00  0.00    +0.000 A 
ATOM     27  C   UNL     1       0.181  11.750  18.715  0.00  0.00    +0.000 A 
ATOM     28  C   UNL     1       1.428  11.686  18.063  0.00  0.00    +0.000 A 
ATOM     29  C   UNL     1       2.503  12.420  18.564  0.00  0.00    +0.000 A 
ATOM     30  C   UNL     1       2.348  13.207  19.705  0.00  0.00    +0.000 A 
ATOM     31  C   UNL     1       1.119  13.286  20.366  0.00  0.00    +0.000 A 
ATOM     32  C   UNL     1       0.039  12.549  19.853  0.00  0.00    +0.000 A 
ATOM     33  C   UNL     1      -1.494  10.214  17.386  0.00  0.00    +0.000 C 
ATOM     34  C   UNL     1      -2.916   9.676  17.673  0.00  0.00    +0.000 C 
ATOM     35  N   UNL     1      -3.885  10.687  18.165  0.00  0.00    +0.000 NA
ATOM     36  C   UNL     1      -4.120  11.727  17.160  0.00  0.00    +0.000 C 
ATOM     37  C   UNL     1      -3.424  11.274  19.452  0.00  0.00    +0.000 C 
ENDBRANCH  23  24
ENDBRANCH  22  23
ENDBRANCH  21  22
ENDBRANCH  20  21
ENDBRANCH   1  20
TORSDOF 10
ENDMDL
MODEL 6
REMARK VINA RESULT:      -8.4      1.116     11.022
REMARK  Name = 
REMARK  12 active torsions:
REMARK  status: ('A' for Active; 'I' for Inactive)
REMARK    1  A    between atoms: C_1  and  N_2
REMARK    2  A    between atoms: N_7  and  C_8
REMARK    3  A    between atoms: C_8  and  C_9
REMARK    4  A    between atoms: C_9  and  C_10
REMARK    5  A    between atoms: C_10  and  C_11
REMARK    6  A    between atoms: C_11  and  C_12
REMARK    7  A    between atoms: C_12  and  C_13
REMARK    8  A    between atoms: C_13  and  C_14
REMARK    9  A    between atoms: C_14  and  C_15
REMARK   10  A    between atoms: C_15  and  C_16
REMARK   11  A    between atoms: C_16  and  N_17
REMARK   12  A    between atoms: N_28  and  C_29
REMARK                            x       y       z     vdW  Elec       q    Type
REMARK                         _______ _______ _______ _____ _____    ______ ____
ROOT
ATOM      1  C   UNL     1       0.692  10.584  20.791  0.00  0.00    +0.000 C 
ENDROOT
BRANCH   1   2
ATOM      2  C   UNL     1       0.982   9.239  20.120  0.00  0.00    +0.000 C 
BRANCH   2   3
ATOM      3  C   UNL     1       1.711   8.259  21.044  0.00  0.00    +0.000 C 
BRANCH   3   4
ATOM      4  C   UNL     1       1.957   6.934  20.313  0.00  0.00    +0.000 C 
BRANCH   4   5
ATOM      5  C   UNL     1       2.418   7.130  18.870  0.00  0.00    +0.000 C 
BRANCH   5  12
ATOM      6  C   UNL     1       7.088   6.044  17.412  0.00  0.00    +0.000 C 
ATOM      7  N   UNL     1       6.132   6.437  16.373  0.00  0.00    +0.000 NA
ATOM      8  C   UNL     1       5.859   5.314  15.441  0.00  0.00    +0.000 C 
ATOM      9  C   UNL     1       5.193   4.072  16.081  0.00  0.00    +0.000 C 
ATOM     10  C   UNL     1       4.127   4.498  17.029  0.00  0.00    +0.000 A 
ATOM     11  C   UNL     1       3.994   5.813  17.427  0.00  0.00    +0.000 A 
ATOM     12  N   UNL     1       2.924   5.892  18.285  0.00  0.00    +0.000 N 
ATOM     13  C   UNL     1       2.407   4.621  18.496  0.00  0.00    +0.000 A 
ATOM     14  C   UNL     1       1.350   4.159  19.304  0.00  0.00    +0.000 A 
ATOM     15  C   UNL     1       1.075   2.785  19.312  0.00  0.00    +0.000 A 
ATOM     16  C   UNL     1       1.820   1.892  18.550  0.00  0.00    +0.000 A 
ATOM     17  C   UNL     1       2.863   2.355  17.745  0.00  0.00    +0.000 A 
ATOM     18  C   UNL     1       3.158   3.732  17.716  0.00  0.00    +0.000 A 
ATOM     19  C   UNL     1       4.868   6.937  16.969  0.00  0.00    +0.000 C 
ENDBRANCH   5  12
ENDBRANCH   4   5
ENDBRANCH   3   4
ENDBRANCH   2   3
ENDBRANCH   1   2
BRANCH   1  20
ATOM     20  C   UNL     1      -0.716  10.585  21.394  0.00  0.00    +0.000 C 
BRANCH  20  21
ATOM     21  C   UNL     1      -0.867  11.594  22.535  0.00  0.00    +0.000 C 
BRANCH  21  22
ATOM     22  C   UNL     1      -2.273  12.204  22.523  0.00  0.00    +0.000 C 
BRANCH  22  23
ATOM     23  C   UNL     1      -2.495  13.134  21.333  0.00  0.00    +0.000 C 
BRANCH  23  24
ATOM     24  N   UNL     1      -3.575  12.681  20.463  0.00  0.00    +0.000 N 
ATOM     25  C   UNL     1      -4.917  12.706  20.758  0.00  0.00    +0.000 A 
ATOM     26  C   UNL     1      -5.589  12.066  19.735  0.00  0.00    +0.000 A 
ATOM     27  C   UNL     1      -4.647  11.717  18.741  0.00  0.00    +0.000 A 
ATOM     28  C   UNL     1      -4.756  11.108  17.476  0.00  0.00    +0.000 A 
ATOM     29  C   UNL     1      -3.608  10.900  16.711  0.00  0.00    +0.000 A 
ATOM     30  C   UNL     1      -2.360  11.288  17.197  0.00  0.00    +0.000 A 
ATOM     31  C   UNL     1      -2.228  11.897  18.448  0.00  0.00    +0.000 A 
ATOM     32  C   UNL     1      -3.389  12.108  19.211  0.00  0.00    +0.000 A 
ATOM     33  C   UNL     1      -7.069  11.887  19.758  0.00  0.00    +0.000 C 
ATOM     34  C   UNL     1      -7.623  12.239  21.159  0.00  0.00    +0.000 C 
ATOM     35  N   UNL     1      -7.035  13.450  21.784  0.00  0.00    +0.000 NA
ATOM     36  C   UNL     1      -7.336  14.649  20.997  0.00  0.00    +0.000 C 
ATOM     37  C   UNL     1      -5.570  13.284  21.975  0.00  0.00    +0.000 C 
ENDBRANCH  23  24
ENDBRANCH  22  23
ENDBRANCH  21  22
ENDBRANCH  20  21
ENDBRANCH   1  20
TORSDOF 10
ENDMDL
MODEL 7
REMARK VINA RESULT:      -8.4      1.068     10.925
REMARK  Name = 
REMARK  12 active torsions:
REMARK  status: ('A' for Active; 'I' for Inactive)
REMARK    1  A    between atoms: C_1  and  N_2
REMARK    2  A    between atoms: N_7  and  C_8
REMARK    3  A    between atoms: C_8  and  C_9
REMARK    4  A    between atoms: C_9  and  C_10
REMARK    5  A    between atoms: C_10  and  C_11
REMARK    6  A    between atoms: C_11  and  C_12
REMARK    7  A    between atoms: C_12  and  C_13
REMARK    8  A    between atoms: C_13  and  C_14
REMARK    9  A    between atoms: C_14  and  C_15
REMARK   10  A    between atoms: C_15  and  C_16
REMARK   11  A    between atoms: C_16  and  N_17
REMARK   12  A    between atoms: N_28  and  C_29
REMARK                            x       y       z     vdW  Elec       q    Type
REMARK                         _______ _______ _______ _____ _____    ______ ____
ROOT
ATOM      1  C   UNL     1       1.081  10.636  18.753  0.00  0.00    +0.000 C 
ENDROOT
BRANCH   1   2
ATOM      2  C   UNL     1       1.122   9.387  17.869  0.00  0.00    +0.000 C 
BRANCH   2   3
ATOM      3  C   UNL     1       2.372   8.533  18.105  0.00  0.00    +0.000 C 
BRANCH   3   4
ATOM      4  C   UNL     1       2.106   7.512  19.217  0.00  0.00    +0.000 C 
BRANCH   4   5
ATOM      5  C   UNL     1       3.347   6.701  19.586  0.00  0.00    +0.000 C 
BRANCH   5  12
ATOM      6  C   UNL     1       7.473   4.745  17.523  0.00  0.00    +0.000 C 
ATOM      7  N   UNL     1       6.598   5.537  16.655  0.00  0.00    +0.000 NA
ATOM      8  C   UNL     1       5.985   4.696  15.596  0.00  0.00    +0.000 C 
ATOM      9  C   UNL     1       5.053   3.570  16.104  0.00  0.00    +0.000 C 
ATOM     10  C   UNL     1       4.192   4.081  17.207  0.00  0.00    +0.000 A 
ATOM     11  C   UNL     1       4.435   5.298  17.810  0.00  0.00    +0.000 A 
ATOM     12  N   UNL     1       3.474   5.496  18.773  0.00  0.00    +0.000 N 
ATOM     13  C   UNL     1       2.652   4.379  18.840  0.00  0.00    +0.000 A 
ATOM     14  C   UNL     1       1.558   4.065  19.669  0.00  0.00    +0.000 A 
ATOM     15  C   UNL     1       0.932   2.823  19.497  0.00  0.00    +0.000 A 
ATOM     16  C   UNL     1       1.370   1.916  18.539  0.00  0.00    +0.000 A 
ATOM     17  C   UNL     1       2.451   2.234  17.714  0.00  0.00    +0.000 A 
ATOM     18  C   UNL     1       3.096   3.477  17.864  0.00  0.00    +0.000 A 
ATOM     19  C   UNL     1       5.547   6.229  17.442  0.00  0.00    +0.000 C 
ENDBRANCH   5  12
ENDBRANCH   4   5
ENDBRANCH   3   4
ENDBRANCH   2   3
ENDBRANCH   1   2
BRANCH   1  20
ATOM     20  C   UNL     1       0.762  10.254  20.201  0.00  0.00    +0.000 C 
BRANCH  20  21
ATOM     21  C   UNL     1       0.451  11.470  21.077  0.00  0.00    +0.000 C 
BRANCH  21  22
ATOM     22  C   UNL     1      -1.062  11.603  21.286  0.00  0.00    +0.000 C 
BRANCH  22  23
ATOM     23  C   UNL     1      -1.651  12.800  20.542  0.00  0.00    +0.000 C 
BRANCH  23  24
ATOM     24  N   UNL     1      -2.924  12.489  19.903  0.00  0.00    +0.000 N 
ATOM     25  C   UNL     1      -4.171  12.652  20.461  0.00  0.00    +0.000 A 
ATOM     26  C   UNL     1      -5.099  12.116  19.589  0.00  0.00    +0.000 A 
ATOM     27  C   UNL     1      -4.417  11.693  18.426  0.00  0.00    +0.000 A 
ATOM     28  C   UNL     1      -4.842  11.132  17.206  0.00  0.00    +0.000 A 
ATOM     29  C   UNL     1      -3.898  10.821  16.227  0.00  0.00    +0.000 A 
ATOM     30  C   UNL     1      -2.543  11.059  16.455  0.00  0.00    +0.000 A 
ATOM     31  C   UNL     1      -2.100  11.616  17.658  0.00  0.00    +0.000 A 
ATOM     32  C   UNL     1      -3.056  11.932  18.637  0.00  0.00    +0.000 A 
ATOM     33  C   UNL     1      -6.556  12.097  19.907  0.00  0.00    +0.000 C 
ATOM     34  C   UNL     1      -6.779  12.470  21.392  0.00  0.00    +0.000 C 
ATOM     35  N   UNL     1      -5.947  13.594  21.892  0.00  0.00    +0.000 NA
ATOM     36  C   UNL     1      -6.263  14.838  21.186  0.00  0.00    +0.000 C 
ATOM     37  C   UNL     1      -4.501  13.264  21.786  0.00  0.00    +0.000 C 
ENDBRANCH  23  24
ENDBRANCH  22  23
ENDBRANCH  21  22
ENDBRANCH  20  21
ENDBRANCH   1  20
TORSDOF 10
ENDMDL
MODEL 8
REMARK VINA RESULT:      -8.4      1.221      2.606
REMARK  Name = 
REMARK  12 active torsions:
REMARK  status: ('A' for Active; 'I' for Inactive)
REMARK    1  A    between atoms: C_1  and  N_2
REMARK    2  A    between atoms: N_7  and  C_8
REMARK    3  A    between atoms: C_8  and  C_9
REMARK    4  A    between atoms: C_9  and  C_10
REMARK    5  A    between atoms: C_10  and  C_11
REMARK    6  A    between atoms: C_11  and  C_12
REMARK    7  A    between atoms: C_12  and  C_13
REMARK    8  A    between atoms: C_13  and  C_14
REMARK    9  A    between atoms: C_14  and  C_15
REMARK   10  A    between atoms: C_15  and  C_16
REMARK   11  A    between atoms: C_16  and  N_17
REMARK   12  A    between atoms: N_28  and  C_29
REMARK                            x       y       z     vdW  Elec       q    Type
REMARK                         _______ _______ _______ _____ _____    ______ ____
ROOT
ATOM      1  C   UNL     1       1.329  10.357  18.428  0.00  0.00    +0.000 C 
ENDROOT
BRANCH   1   2
ATOM      2  C   UNL     1      -0.114  10.735  18.773  0.00  0.00    +0.000 C 
BRANCH   2   3
ATOM      3  C   UNL     1      -1.132  10.159  17.786  0.00  0.00    +0.000 C 
BRANCH   3   4
ATOM      4  C   UNL     1      -2.554  10.529  18.224  0.00  0.00    +0.000 C 
BRANCH   4   5
ATOM      5  C   UNL     1      -2.726  12.026  18.476  0.00  0.00    +0.000 C 
BRANCH   5  12
ATOM      6  C   UNL     1      -7.220  10.369  19.949  0.00  0.00    +0.000 C 
ATOM      7  N   UNL     1      -7.148  11.730  19.411  0.00  0.00    +0.000 NA
ATOM      8  C   UNL     1      -7.468  12.739  20.453  0.00  0.00    +0.000 C 
ATOM      9  C   UNL     1      -6.491  12.781  21.652  0.00  0.00    +0.000 C 
ATOM     10  C   UNL     1      -5.087  12.664  21.170  0.00  0.00    +0.000 A 
ATOM     11  C   UNL     1      -4.796  12.303  19.870  0.00  0.00    +0.000 A 
ATOM     12  N   UNL     1      -3.429  12.293  19.727  0.00  0.00    +0.000 N 
ATOM     13  C   UNL     1      -2.835  12.580  20.949  0.00  0.00    +0.000 A 
ATOM     14  C   UNL     1      -1.486  12.656  21.343  0.00  0.00    +0.000 A 
ATOM     15  C   UNL     1      -1.203  12.961  22.682  0.00  0.00    +0.000 A 
ATOM     16  C   UNL     1      -2.219  13.181  23.605  0.00  0.00    +0.000 A 
ATOM     17  C   UNL     1      -3.556  13.111  23.208  0.00  0.00    +0.000 A 
ATOM     18  C   UNL     1      -3.867  12.810  21.868  0.00  0.00    +0.000 A 
ATOM     19  C   UNL     1      -5.815  12.001  18.817  0.00  0.00    +0.000 C 
ENDBRANCH   5  12
ENDBRANCH   4   5
ENDBRANCH   3   4
ENDBRANCH   2   3
ENDBRANCH   1   2
BRANCH   1  20
ATOM     20  C   UNL     1       1.355   9.092  17.566  0.00  0.00    +0.000 C 
BRANCH  20  21
ATOM     21  C   UNL     1       2.461   8.119  17.980  0.00  0.00    +0.000 C 
BRANCH  21  22
ATOM     22  C   UNL     1       2.202   7.588  19.395  0.00  0.00    +0.000 C 
BRANCH  22  23
ATOM     23  C   UNL     1       3.298   6.637  19.871  0.00  0.00    +0.000 C 
BRANCH  23  24
ATOM     24  N   UNL     1       3.453   5.481  18.997  0.00  0.00    +0.000 N 
ATOM     25  C   UNL     1       4.414   5.323  18.026  0.00  0.00    +0.000 A 
ATOM     26  C   UNL     1       4.134   4.159  17.336  0.00  0.00    +0.000 A 
ATOM     27  C   UNL     1       3.025   3.538  17.954  0.00  0.00    +0.000 A 
ATOM     28  C   UNL     1       2.341   2.328  17.723  0.00  0.00    +0.000 A 
ATOM     29  C   UNL     1       1.258   1.986  18.533  0.00  0.00    +0.000 A 
ATOM     30  C   UNL     1       0.850   2.836  19.560  0.00  0.00    +0.000 A 
ATOM     31  C   UNL     1       1.515   4.041  19.807  0.00  0.00    +0.000 A 
ATOM     32  C   UNL     1       2.609   4.377  18.993  0.00  0.00    +0.000 A 
ATOM     33  C   UNL     1       4.968   3.707  16.186  0.00  0.00    +0.000 C 
ATOM     34  C   UNL     1       5.929   4.839  15.752  0.00  0.00    +0.000 C 
ATOM     35  N   UNL     1       6.577   5.578  16.864  0.00  0.00    +0.000 NA
ATOM     36  C   UNL     1       7.439   4.696  17.653  0.00  0.00    +0.000 C 
ATOM     37  C   UNL     1       5.556   6.241  17.719  0.00  0.00    +0.000 C 
ENDBRANCH  23  24
ENDBRANCH  22  23
ENDBRANCH  21  22
ENDBRANCH  20  21
ENDBRANCH   1  20
TORSDOF 10
ENDMDL
MODEL 9
REMARK VINA RESULT:      -8.4      1.071      3.004
REMARK  Name = 
REMARK  12 active torsions:
REMARK  status: ('A' for Active; 'I' for Inactive)
REMARK    1  A    between atoms: C_1  and  N_2
REMARK    2  A    between atoms: N_7  and  C_8
REMARK    3  A    between atoms: C_8  and  C_9
REMARK    4  A    between atoms: C_9  and  C_10
REMARK    5  A    between atoms: C_10  and  C_11
REMARK    6  A    between atoms: C_11  and  C_12
REMARK    7  A    between atoms: C_12  and  C_13
REMARK    8  A    between atoms: C_13  and  C_14
REMARK    9  A    between atoms: C_14  and  C_15
REMARK   10  A    between atoms: C_15  and  C_16
REMARK   11  A    between atoms: C_16  and  N_17
REMARK   12  A    between atoms: N_28  and  C_29
REMARK                            x       y       z     vdW  Elec       q    Type
REMARK                         _______ _______ _______ _____ _____    ______ ____
ROOT
ATOM      1  C   UNL     1       0.276   9.223  20.954  0.00  0.00    +0.000 C 
ENDROOT
BRANCH   1   2
ATOM      2  C   UNL     1       0.425  10.032  22.245  0.00  0.00    +0.000 C 
BRANCH   2   3
ATOM      3  C   UNL     1      -0.429  11.303  22.253  0.00  0.00    +0.000 C 
BRANCH   3   4
ATOM      4  C   UNL     1      -1.639  11.126  21.329  0.00  0.00    +0.000 C 
BRANCH   4   5
ATOM      5  C   UNL     1      -2.130  12.445  20.736  0.00  0.00    +0.000 C 
BRANCH   5  12
ATOM      6  C   UNL     1      -6.418  15.014  20.394  0.00  0.00    +0.000 C 
ATOM      7  N   UNL     1      -6.457  13.731  21.099  0.00  0.00    +0.000 NA
ATOM      8  C   UNL     1      -7.295  12.742  20.374  0.00  0.00    +0.000 C 
ATOM      9  C   UNL     1      -6.787  12.355  18.964  0.00  0.00    +0.000 C 
ATOM     10  C   UNL     1      -5.309  12.167  18.990  0.00  0.00    +0.000 A 
ATOM     11  C   UNL     1      -4.548  12.561  20.071  0.00  0.00    +0.000 A 
ATOM     12  N   UNL     1      -3.237  12.248  19.805  0.00  0.00    +0.000 N 
ATOM     13  C   UNL     1      -3.140  11.717  18.526  0.00  0.00    +0.000 A 
ATOM     14  C   UNL     1      -2.034  11.277  17.773  0.00  0.00    +0.000 A 
ATOM     15  C   UNL     1      -2.266  10.795  16.477  0.00  0.00    +0.000 A 
ATOM     16  C   UNL     1      -3.547  10.749  15.939  0.00  0.00    +0.000 A 
ATOM     17  C   UNL     1      -4.641  11.179  16.692  0.00  0.00    +0.000 A 
ATOM     18  C   UNL     1      -4.436  11.665  17.998  0.00  0.00    +0.000 A 
ATOM     19  C   UNL     1      -5.090  13.195  21.313  0.00  0.00    +0.000 C 
ENDBRANCH   5  12
ENDBRANCH   4   5
ENDBRANCH   3   4
ENDBRANCH   2   3
ENDBRANCH   1   2
BRANCH   1  20
ATOM     20  C   UNL     1       1.266   9.722  19.897  0.00  0.00    +0.000 C 
BRANCH  20  21
ATOM     21  C   UNL     1       0.850   9.342  18.474  0.00  0.00    +0.000 C 
BRANCH  21  22
ATOM     22  C   UNL     1       1.886   8.398  17.851  0.00  0.00    +0.000 C 
BRANCH  22  23
ATOM     23  C   UNL     1       2.574   7.518  18.892  0.00  0.00    +0.000 C 
BRANCH  23  24
ATOM     24  N   UNL     1       3.005   6.237  18.344  0.00  0.00    +0.000 N 
ATOM     25  C   UNL     1       4.056   6.038  17.480  0.00  0.00    +0.000 A 
ATOM     26  C   UNL     1       4.045   4.711  17.095  0.00  0.00    +0.000 A 
ATOM     27  C   UNL     1       3.016   4.056  17.809  0.00  0.00    +0.000 A 
ATOM     28  C   UNL     1       2.580   2.717  17.866  0.00  0.00    +0.000 A 
ATOM     29  C   UNL     1       1.511   2.378  18.696  0.00  0.00    +0.000 A 
ATOM     30  C   UNL     1       0.875   3.355  19.460  0.00  0.00    +0.000 A 
ATOM     31  C   UNL     1       1.292   4.689  19.420  0.00  0.00    +0.000 A 
ATOM     32  C   UNL     1       2.373   5.023  18.587  0.00  0.00    +0.000 A 
ATOM     33  C   UNL     1       5.039   4.165  16.128  0.00  0.00    +0.000 C 
ATOM     34  C   UNL     1       5.817   5.323  15.458  0.00  0.00    +0.000 C 
ATOM     35  N   UNL     1       6.228   6.419  16.371  0.00  0.00    +0.000 NA
ATOM     36  C   UNL     1       7.165   5.935  17.388  0.00  0.00    +0.000 C 
ATOM     37  C   UNL     1       5.038   7.058  16.993  0.00  0.00    +0.000 C 
ENDBRANCH  23  24
ENDBRANCH  22  23
ENDBRANCH  21  22
ENDBRANCH  20  21
ENDBRANCH   1  20
TORSDOF 10
ENDMDL
