MODEL 1
REMARK VINA RESULT:      -6.4      0.000      0.000
REMARK  Name = 
REMARK  5 active torsions:
REMARK  status: ('A' for Active; 'I' for Inactive)
REMARK    1  A    between atoms: C_2  and  C_10
REMARK    2  A    between atoms: N_3  and  C_4
REMARK    3  A    between atoms: C_14  and  C_15
REMARK    4  A    between atoms: N_22  and  C_23
REMARK    5  A    between atoms: C_23  and  C_24
REMARK                            x       y       z     vdW  Elec       q    Type
REMARK                         _______ _______ _______ _____ _____    ______ ____
ROOT
ATOM      1  C   UNL     1       0.895  10.388  21.327  0.00  0.00    +0.000 C 
ATOM      2  C   UNL     1       1.285   8.899  21.709  0.00  0.00    +0.000 C 
ATOM      3  C   UNL     1       1.753   8.354  20.426  0.00  0.00    +0.000 A 
ATOM      4  N   UNL     1       2.107   7.073  20.094  0.00  0.00    +0.000 NA
ATOM      5  C   UNL     1       2.298   7.035  18.781  0.00  0.00    +0.000 A 
ATOM      6  S   UNL     1       2.010   8.537  17.950  0.00  0.00    +0.000 S 
ATOM      7  C   UNL     1       1.600   9.261  19.419  0.00  0.00    +0.000 A 
ATOM      8  N   UNL     1       1.078  10.480  19.789  0.00  0.00    +0.000 N 
ENDROOT
BRANCH   5   9
ATOM      9  C   UNL     1       2.737   5.773  18.077  0.00  0.00    +0.000 A 
ATOM     10  C   UNL     1       1.910   4.623  17.879  0.00  0.00    +0.000 A 
ATOM     11  C   UNL     1       2.574   3.591  17.254  0.00  0.00    +0.000 A 
ATOM     12  S   UNL     1       4.191   4.006  16.883  0.00  0.00    +0.000 S 
ATOM     13  C   UNL     1       4.000   5.571  17.555  0.00  0.00    +0.000 A 
ENDBRANCH   5   9
BRANCH   1  15
ATOM     14  O   UNL     1      -1.262   9.927  22.330  0.00  0.00    +0.000 OA
ATOM     15  C   UNL     1      -0.520  10.781  21.843  0.00  0.00    +0.000 C 
ATOM     16  N   UNL     1      -0.901  12.123  21.726  0.00  0.00    +0.000 N 
ATOM     17  H   UNL     1      -0.266  12.770  21.266  0.00  0.00    +0.000 HD
BRANCH  16  18
ATOM     18  C   UNL     1      -2.222  12.628  22.003  0.00  0.00    +0.000 A 
ATOM     19  C   UNL     1      -2.691  12.912  23.290  0.00  0.00    +0.000 A 
ATOM     20  C   UNL     1      -4.013  13.314  23.506  0.00  0.00    +0.000 A 
ATOM     21  C   UNL     1      -4.850  13.429  22.419  0.00  0.00    +0.000 A 
ATOM     22  N   UNL     1      -4.440  13.202  21.148  0.00  0.00    +0.000 NA
ATOM     23  C   UNL     1      -3.141  12.823  20.973  0.00  0.00    +0.000 A 
ENDBRANCH  16  18
ENDBRANCH   1  15
BRANCH   8  24
ATOM     24  C   UNL     1      -0.005  10.962  18.915  0.00  0.00    +0.000 C 
BRANCH  24  25
ATOM     25  C   UNL     1      -1.119  10.016  18.585  0.00  0.00    +0.000 C 
ATOM     26  C   UNL     1      -2.557  10.360  18.293  0.00  0.00    +0.000 C 
ATOM     27  C   UNL     1      -1.673   9.821  17.199  0.00  0.00    +0.000 C 
ENDBRANCH  24  25
ENDBRANCH   8  24
TORSDOF 5
ENDMDL
MODEL 2
REMARK VINA RESULT:      -6.4      3.248      5.035
REMARK  Name = 
REMARK  5 active torsions:
REMARK  status: ('A' for Active; 'I' for Inactive)
REMARK    1  A    between atoms: C_2  and  C_10
REMARK    2  A    between atoms: N_3  and  C_4
REMARK    3  A    between atoms: C_14  and  C_15
REMARK    4  A    between atoms: N_22  and  C_23
REMARK    5  A    between atoms: C_23  and  C_24
REMARK                            x       y       z     vdW  Elec       q    Type
REMARK                         _______ _______ _______ _____ _____    ______ ____
ROOT
ATOM      1  C   UNL     1       0.766  10.801  18.524  0.00  0.00    +0.000 C 
ATOM      2  C   UNL     1       1.861  10.088  17.624  0.00  0.00    +0.000 C 
ATOM      3  C   UNL     1       2.042   8.798  18.308  0.00  0.00    +0.000 A 
ATOM      4  N   UNL     1       2.949   7.800  18.071  0.00  0.00    +0.000 NA
ATOM      5  C   UNL     1       2.835   6.911  19.049  0.00  0.00    +0.000 A 
ATOM      6  S   UNL     1       1.661   7.306  20.272  0.00  0.00    +0.000 S 
ATOM      7  C   UNL     1       1.303   8.738  19.453  0.00  0.00    +0.000 A 
ATOM      8  N   UNL     1       0.536   9.848  19.726  0.00  0.00    +0.000 N 
ENDROOT
BRANCH   5   9
ATOM      9  C   UNL     1       3.670   5.652  19.082  0.00  0.00    +0.000 A 
ATOM     10  C   UNL     1       5.007   5.550  18.587  0.00  0.00    +0.000 A 
ATOM     11  C   UNL     1       5.517   4.275  18.692  0.00  0.00    +0.000 A 
ATOM     12  S   UNL     1       4.399   3.197  19.405  0.00  0.00    +0.000 S 
ATOM     13  C   UNL     1       3.231   4.440  19.580  0.00  0.00    +0.000 A 
ENDBRANCH   5   9
BRANCH   1  15
ATOM     14  O   UNL     1       0.331  13.032  19.363  0.00  0.00    +0.000 OA
ATOM     15  C   UNL     1       1.170  12.254  18.907  0.00  0.00    +0.000 C 
ATOM     16  N   UNL     1       2.505  12.628  18.708  0.00  0.00    +0.000 N 
ATOM     17  H   UNL     1       3.138  11.959  18.278  0.00  0.00    +0.000 HD
BRANCH  16  18
ATOM     18  C   UNL     1       3.012  13.968  18.857  0.00  0.00    +0.000 A 
ATOM     19  C   UNL     1       3.107  14.885  17.804  0.00  0.00    +0.000 A 
ATOM     20  C   UNL     1       3.692  16.142  17.989  0.00  0.00    +0.000 A 
ATOM     21  C   UNL     1       4.174  16.464  19.238  0.00  0.00    +0.000 A 
ATOM     22  N   UNL     1       4.076  15.630  20.301  0.00  0.00    +0.000 NA
ATOM     23  C   UNL     1       3.490  14.417  20.088  0.00  0.00    +0.000 A 
ENDBRANCH  16  18
ENDBRANCH   1  15
BRANCH   8  24
ATOM     24  C   UNL     1       0.643  10.326  21.116  0.00  0.00    +0.000 C 
BRANCH  24  25
ATOM     25  C   UNL     1      -0.360   9.830  22.111  0.00  0.00    +0.000 C 
ATOM     26  C   UNL     1      -0.137   9.550  23.576  0.00  0.00    +0.000 C 
ATOM     27  C   UNL     1      -1.012  10.700  23.153  0.00  0.00    +0.000 C 
ENDBRANCH  24  25
ENDBRANCH   8  24
TORSDOF 5
ENDMDL
MODEL 3
REMARK VINA RESULT:      -6.3      0.862      1.296
REMARK  Name = 
REMARK  5 active torsions:
REMARK  status: ('A' for Active; 'I' for Inactive)
REMARK    1  A    between atoms: C_2  and  C_10
REMARK    2  A    between atoms: N_3  and  C_4
REMARK    3  A    between atoms: C_14  and  C_15
REMARK    4  A    between atoms: N_22  and  C_23
REMARK    5  A    between atoms: C_23  and  C_24
REMARK                            x       y       z     vdW  Elec       q    Type
REMARK                         _______ _______ _______ _____ _____    ______ ____
ROOT
ATOM      1  C   UNL     1       0.808  10.383  21.592  0.00  0.00    +0.000 C 
ATOM      2  C   UNL     1       1.317   8.923  21.944  0.00  0.00    +0.000 C 
ATOM      3  C   UNL     1       1.716   8.400  20.628  0.00  0.00    +0.000 A 
ATOM      4  N   UNL     1       2.122   7.142  20.271  0.00  0.00    +0.000 NA
ATOM      5  C   UNL     1       2.211   7.108  18.947  0.00  0.00    +0.000 A 
ATOM      6  S   UNL     1       1.767   8.584  18.139  0.00  0.00    +0.000 S 
ATOM      7  C   UNL     1       1.429   9.290  19.635  0.00  0.00    +0.000 A 
ATOM      8  N   UNL     1       0.863  10.477  20.044  0.00  0.00    +0.000 N 
ENDROOT
BRANCH   5   9
ATOM      9  C   UNL     1       2.671   5.871  18.212  0.00  0.00    +0.000 A 
ATOM     10  C   UNL     1       1.881   4.694  18.028  0.00  0.00    +0.000 A 
ATOM     11  C   UNL     1       2.560   3.695  17.367  0.00  0.00    +0.000 A 
ATOM     12  S   UNL     1       4.146   4.173  16.946  0.00  0.00    +0.000 S 
ATOM     13  C   UNL     1       3.922   5.722  17.644  0.00  0.00    +0.000 A 
ENDBRANCH   5   9
BRANCH   1  15
ATOM     14  O   UNL     1      -1.188   9.821  22.846  0.00  0.00    +0.000 OA
ATOM     15  C   UNL     1      -0.584  10.691  22.217  0.00  0.00    +0.000 C 
ATOM     16  N   UNL     1      -1.107  11.976  22.029  0.00  0.00    +0.000 N 
ATOM     17  H   UNL     1      -0.586  12.633  21.455  0.00  0.00    +0.000 HD
BRANCH  16  18
ATOM     18  C   UNL     1      -2.439  12.381  22.399  0.00  0.00    +0.000 A 
ATOM     19  C   UNL     1      -2.874  12.510  23.723  0.00  0.00    +0.000 A 
ATOM     20  C   UNL     1      -4.205  12.820  24.021  0.00  0.00    +0.000 A 
ATOM     21  C   UNL     1      -5.086  13.000  22.979  0.00  0.00    +0.000 A 
ATOM     22  N   UNL     1      -4.712  12.924  21.679  0.00  0.00    +0.000 NA
ATOM     23  C   UNL     1      -3.404  12.632  21.424  0.00  0.00    +0.000 A 
ENDBRANCH  16  18
ENDBRANCH   1  15
BRANCH   8  24
ATOM     24  C   UNL     1      -0.313  10.886  19.257  0.00  0.00    +0.000 C 
BRANCH  24  25
ATOM     25  C   UNL     1      -0.225  12.152  18.463  0.00  0.00    +0.000 C 
ATOM     26  C   UNL     1      -0.558  13.549  18.924  0.00  0.00    +0.000 C 
ATOM     27  C   UNL     1       0.870  13.173  18.628  0.00  0.00    +0.000 C 
ENDBRANCH  24  25
ENDBRANCH   8  24
TORSDOF 5
ENDMDL
MODEL 4
REMARK VINA RESULT:      -6.3      3.352      5.029
REMARK  Name = 
REMARK  5 active torsions:
REMARK  status: ('A' for Active; 'I' for Inactive)
REMARK    1  A    between atoms: C_2  and  C_10
REMARK    2  A    between atoms: N_3  and  C_4
REMARK    3  A    between atoms: C_14  and  C_15
REMARK    4  A    between atoms: N_22  and  C_23
REMARK    5  A    between atoms: C_23  and  C_24
REMARK                            x       y       z     vdW  Elec       q    Type
REMARK                         _______ _______ _______ _____ _____    ______ ____
ROOT
ATOM      1  C   UNL     1       0.484  11.256  18.921  0.00  0.00    +0.000 C 
ATOM      2  C   UNL     1       1.410  10.391  17.968  0.00  0.00    +0.000 C 
ATOM      3  C   UNL     1       1.550   9.133  18.716  0.00  0.00    +0.000 A 
ATOM      4  N   UNL     1       2.336   8.042  18.457  0.00  0.00    +0.000 NA
ATOM      5  C   UNL     1       2.250   7.227  19.501  0.00  0.00    +0.000 A 
ATOM      6  S   UNL     1       1.251   7.801  20.806  0.00  0.00    +0.000 S 
ATOM      7  C   UNL     1       0.935   9.210  19.931  0.00  0.00    +0.000 A 
ATOM      8  N   UNL     1       0.301  10.401  20.203  0.00  0.00    +0.000 N 
ENDROOT
BRANCH   5   9
ATOM      9  C   UNL     1       2.970   5.899  19.535  0.00  0.00    +0.000 A 
ATOM     10  C   UNL     1       2.505   4.740  20.231  0.00  0.00    +0.000 A 
ATOM     11  C   UNL     1       3.379   3.679  20.142  0.00  0.00    +0.000 A 
ATOM     12  S   UNL     1       4.755   4.064  19.203  0.00  0.00    +0.000 S 
ATOM     13  C   UNL     1       4.178   5.651  18.910  0.00  0.00    +0.000 A 
ENDBRANCH   5   9
BRANCH   1  15
ATOM     14  O   UNL     1       0.304  13.600  19.508  0.00  0.00    +0.000 OA
ATOM     15  C   UNL     1       1.052  12.685  19.162  0.00  0.00    +0.000 C 
ATOM     16  N   UNL     1       2.425  12.876  18.965  0.00  0.00    +0.000 N 
ATOM     17  H   UNL     1       2.981  12.096  18.627  0.00  0.00    +0.000 HD
BRANCH  16  18
ATOM     18  C   UNL     1       3.086  14.156  18.988  0.00  0.00    +0.000 A 
ATOM     19  C   UNL     1       3.155  15.015  17.885  0.00  0.00    +0.000 A 
ATOM     20  C   UNL     1       3.888  16.205  17.939  0.00  0.00    +0.000 A 
ATOM     21  C   UNL     1       4.543  16.520  19.109  0.00  0.00    +0.000 A 
ATOM     22  N   UNL     1       4.481  15.744  20.217  0.00  0.00    +0.000 NA
ATOM     23  C   UNL     1       3.748  14.597  20.133  0.00  0.00    +0.000 A 
ENDBRANCH  16  18
ENDBRANCH   1  15
BRANCH   8  24
ATOM     24  C   UNL     1       0.596  10.948  21.539  0.00  0.00    +0.000 C 
BRANCH  24  25
ATOM     25  C   UNL     1      -0.556  11.364  22.401  0.00  0.00    +0.000 C 
ATOM     26  C   UNL     1      -0.952  12.766  22.788  0.00  0.00    +0.000 C 
ATOM     27  C   UNL     1      -1.832  11.961  21.868  0.00  0.00    +0.000 C 
ENDBRANCH  24  25
ENDBRANCH   8  24
TORSDOF 5
ENDMDL
MODEL 5
REMARK VINA RESULT:      -6.2      4.622     10.420
REMARK  Name = 
REMARK  5 active torsions:
REMARK  status: ('A' for Active; 'I' for Inactive)
REMARK    1  A    between atoms: C_2  and  C_10
REMARK    2  A    between atoms: N_3  and  C_4
REMARK    3  A    between atoms: C_14  and  C_15
REMARK    4  A    between atoms: N_22  and  C_23
REMARK    5  A    between atoms: C_23  and  C_24
REMARK                            x       y       z     vdW  Elec       q    Type
REMARK                         _______ _______ _______ _____ _____    ______ ____
ROOT
ATOM      1  C   UNL     1       6.164   5.672  17.562  0.00  0.00    +0.000 C 
ATOM      2  C   UNL     1       5.755   7.172  17.248  0.00  0.00    +0.000 C 
ATOM      3  C   UNL     1       4.463   7.299  17.939  0.00  0.00    +0.000 A 
ATOM      4  N   UNL     1       3.561   8.330  17.930  0.00  0.00    +0.000 NA
ATOM      5  C   UNL     1       2.472   7.919  18.566  0.00  0.00    +0.000 A 
ATOM      6  S   UNL     1       2.527   6.276  19.138  0.00  0.00    +0.000 S 
ATOM      7  C   UNL     1       4.077   6.112  18.489  0.00  0.00    +0.000 A 
ATOM      8  N   UNL     1       4.953   5.064  18.319  0.00  0.00    +0.000 N 
ENDROOT
BRANCH   5   9
ATOM      9  C   UNL     1       1.281   8.826  18.774  0.00  0.00    +0.000 A 
ATOM     10  C   UNL     1       0.508   9.405  17.720  0.00  0.00    +0.000 A 
ATOM     11  C   UNL     1      -0.489  10.233  18.186  0.00  0.00    +0.000 A 
ATOM     12  S   UNL     1      -0.514  10.304  19.894  0.00  0.00    +0.000 S 
ATOM     13  C   UNL     1       0.808   9.219  20.011  0.00  0.00    +0.000 A 
ENDBRANCH   5   9
BRANCH   1  15
ATOM     14  O   UNL     1       7.647   4.257  16.269  0.00  0.00    +0.000 OA
ATOM     15  C   UNL     1       6.593   4.896  16.283  0.00  0.00    +0.000 C 
ATOM     16  N   UNL     1       5.745   4.961  15.171  0.00  0.00    +0.000 N 
ATOM     17  H   UNL     1       4.917   5.549  15.226  0.00  0.00    +0.000 HD
BRANCH  16  18
ATOM     18  C   UNL     1       6.061   4.440  13.865  0.00  0.00    +0.000 A 
ATOM     19  C   UNL     1       5.311   3.450  13.221  0.00  0.00    +0.000 A 
ATOM     20  C   UNL     1       5.717   2.918  11.993  0.00  0.00    +0.000 A 
ATOM     21  C   UNL     1       6.878   3.393  11.424  0.00  0.00    +0.000 A 
ATOM     22  N   UNL     1       7.622   4.375  11.985  0.00  0.00    +0.000 NA
ATOM     23  C   UNL     1       7.191   4.880  13.176  0.00  0.00    +0.000 A 
ENDBRANCH  16  18
ENDBRANCH   1  15
BRANCH   8  24
ATOM     24  C   UNL     1       4.317   3.814  17.870  0.00  0.00    +0.000 C 
BRANCH  24  25
ATOM     25  C   UNL     1       4.017   2.767  18.898  0.00  0.00    +0.000 C 
ATOM     26  C   UNL     1       2.680   2.447  19.517  0.00  0.00    +0.000 C 
ATOM     27  C   UNL     1       3.337   1.458  18.591  0.00  0.00    +0.000 C 
ENDBRANCH  24  25
ENDBRANCH   8  24
TORSDOF 5
ENDMDL
MODEL 6
REMARK VINA RESULT:      -6.2      2.924      4.316
REMARK  Name = 
REMARK  5 active torsions:
REMARK  status: ('A' for Active; 'I' for Inactive)
REMARK    1  A    between atoms: C_2  and  C_10
REMARK    2  A    between atoms: N_3  and  C_4
REMARK    3  A    between atoms: C_14  and  C_15
REMARK    4  A    between atoms: N_22  and  C_23
REMARK    5  A    between atoms: C_23  and  C_24
REMARK                            x       y       z     vdW  Elec       q    Type
REMARK                         _______ _______ _______ _____ _____    ______ ____
ROOT
ATOM      1  C   UNL     1       0.507  10.401  19.220  0.00  0.00    +0.000 C 
ATOM      2  C   UNL     1       1.251  10.156  17.841  0.00  0.00    +0.000 C 
ATOM      3  C   UNL     1       1.891   8.849  18.055  0.00  0.00    +0.000 A 
ATOM      4  N   UNL     1       2.775   8.166  17.262  0.00  0.00    +0.000 NA
ATOM      5  C   UNL     1       3.202   7.114  17.949  0.00  0.00    +0.000 A 
ATOM      6  S   UNL     1       2.566   6.978  19.563  0.00  0.00    +0.000 S 
ATOM      7  C   UNL     1       1.690   8.402  19.327  0.00  0.00    +0.000 A 
ATOM      8  N   UNL     1       0.930   9.219  20.133  0.00  0.00    +0.000 N 
ENDROOT
BRANCH   5   9
ATOM      9  C   UNL     1       4.169   6.115  17.355  0.00  0.00    +0.000 A 
ATOM     10  C   UNL     1       3.949   4.704  17.304  0.00  0.00    +0.000 A 
ATOM     11  C   UNL     1       5.012   4.019  16.758  0.00  0.00    +0.000 A 
ATOM     12  S   UNL     1       6.273   5.073  16.285  0.00  0.00    +0.000 S 
ATOM     13  C   UNL     1       5.393   6.448  16.806  0.00  0.00    +0.000 A 
ENDBRANCH   5   9
BRANCH   1  15
ATOM     14  O   UNL     1      -0.035  12.368  20.528  0.00  0.00    +0.000 OA
ATOM     15  C   UNL     1       0.794  11.815  19.804  0.00  0.00    +0.000 C 
ATOM     16  N   UNL     1       2.013  12.417  19.469  0.00  0.00    +0.000 N 
ATOM     17  H   UNL     1       2.632  11.934  18.824  0.00  0.00    +0.000 HD
BRANCH  16  18
ATOM     18  C   UNL     1       2.372  13.776  19.788  0.00  0.00    +0.000 A 
ATOM     19  C   UNL     1       3.040  14.149  20.960  0.00  0.00    +0.000 A 
ATOM     20  C   UNL     1       3.282  15.494  21.258  0.00  0.00    +0.000 A 
ATOM     21  C   UNL     1       2.850  16.452  20.368  0.00  0.00    +0.000 A 
ATOM     22  N   UNL     1       2.231  16.146  19.202  0.00  0.00    +0.000 NA
ATOM     23  C   UNL     1       2.022  14.824  18.938  0.00  0.00    +0.000 A 
ENDBRANCH  16  18
ENDBRANCH   1  15
BRANCH   8  24
ATOM     24  C   UNL     1       1.503   9.449  21.470  0.00  0.00    +0.000 C 
BRANCH  24  25
ATOM     25  C   UNL     1       0.615   9.259  22.661  0.00  0.00    +0.000 C 
ATOM     26  C   UNL     1      -0.478  10.177  23.145  0.00  0.00    +0.000 C 
ATOM     27  C   UNL     1      -0.825   8.826  22.575  0.00  0.00    +0.000 C 
ENDBRANCH  24  25
ENDBRANCH   8  24
TORSDOF 5
ENDMDL
MODEL 7
REMARK VINA RESULT:      -6.2      3.031      4.624
REMARK  Name = 
REMARK  5 active torsions:
REMARK  status: ('A' for Active; 'I' for Inactive)
REMARK    1  A    between atoms: C_2  and  C_10
REMARK    2  A    between atoms: N_3  and  C_4
REMARK    3  A    between atoms: C_14  and  C_15
REMARK    4  A    between atoms: N_22  and  C_23
REMARK    5  A    between atoms: C_23  and  C_24
REMARK                            x       y       z     vdW  Elec       q    Type
REMARK                         _______ _______ _______ _____ _____    ______ ____
ROOT
ATOM      1  C   UNL     1       0.491  10.734  19.205  0.00  0.00    +0.000 C 
ATOM      2  C   UNL     1       1.226  10.407  17.838  0.00  0.00    +0.000 C 
ATOM      3  C   UNL     1       1.789   9.072  18.092  0.00  0.00    +0.000 A 
ATOM      4  N   UNL     1       2.635   8.317  17.324  0.00  0.00    +0.000 NA
ATOM      5  C   UNL     1       2.997   7.262  18.042  0.00  0.00    +0.000 A 
ATOM      6  S   UNL     1       2.344   7.208  19.655  0.00  0.00    +0.000 S 
ATOM      7  C   UNL     1       1.554   8.672  19.374  0.00  0.00    +0.000 A 
ATOM      8  N   UNL     1       0.838   9.555  20.152  0.00  0.00    +0.000 N 
ENDROOT
BRANCH   5   9
ATOM      9  C   UNL     1       3.906   6.192  17.483  0.00  0.00    +0.000 A 
ATOM     10  C   UNL     1       5.147   6.446  16.821  0.00  0.00    +0.000 A 
ATOM     11  C   UNL     1       5.751   5.296  16.364  0.00  0.00    +0.000 A 
ATOM     12  S   UNL     1       4.839   3.902  16.745  0.00  0.00    +0.000 S 
ATOM     13  C   UNL     1       3.636   4.838  17.530  0.00  0.00    +0.000 A 
ENDBRANCH   5   9
BRANCH   1  15
ATOM     14  O   UNL     1       0.086  12.735  20.510  0.00  0.00    +0.000 OA
ATOM     15  C   UNL     1       0.857  12.144  19.752  0.00  0.00    +0.000 C 
ATOM     16  N   UNL     1       2.077  12.698  19.346  0.00  0.00    +0.000 N 
ATOM     17  H   UNL     1       2.644  12.186  18.676  0.00  0.00    +0.000 HD
BRANCH  16  18
ATOM     18  C   UNL     1       2.498  14.047  19.625  0.00  0.00    +0.000 A 
ATOM     19  C   UNL     1       2.238  15.134  18.782  0.00  0.00    +0.000 A 
ATOM     20  C   UNL     1       2.750  16.405  19.061  0.00  0.00    +0.000 A 
ATOM     21  C   UNL     1       3.519  16.570  20.191  0.00  0.00    +0.000 A 
ATOM     22  N   UNL     1       3.772  15.563  21.060  0.00  0.00    +0.000 NA
ATOM     23  C   UNL     1       3.247  14.339  20.764  0.00  0.00    +0.000 A 
ENDBRANCH  16  18
ENDBRANCH   1  15
BRANCH   8  24
ATOM     24  C   UNL     1       1.417   9.788  21.487  0.00  0.00    +0.000 C 
BRANCH  24  25
ATOM     25  C   UNL     1       0.565   9.502  22.684  0.00  0.00    +0.000 C 
ATOM     26  C   UNL     1      -0.709  10.200  23.091  0.00  0.00    +0.000 C 
ATOM     27  C   UNL     1      -0.748   8.768  22.626  0.00  0.00    +0.000 C 
ENDBRANCH  24  25
ENDBRANCH   8  24
TORSDOF 5
ENDMDL
MODEL 8
REMARK VINA RESULT:      -6.2      2.656      3.632
REMARK  Name = 
REMARK  5 active torsions:
REMARK  status: ('A' for Active; 'I' for Inactive)
REMARK    1  A    between atoms: C_2  and  C_10
REMARK    2  A    between atoms: N_3  and  C_4
REMARK    3  A    between atoms: C_14  and  C_15
REMARK    4  A    between atoms: N_22  and  C_23
REMARK    5  A    between atoms: C_23  and  C_24
REMARK                            x       y       z     vdW  Elec       q    Type
REMARK                         _______ _______ _______ _____ _____    ______ ____
ROOT
ATOM      1  C   UNL     1       0.619  10.576  18.827  0.00  0.00    +0.000 C 
ATOM      2  C   UNL     1       1.644  10.220  17.671  0.00  0.00    +0.000 C 
ATOM      3  C   UNL     1       2.107   8.880  18.060  0.00  0.00    +0.000 A 
ATOM      4  N   UNL     1       3.094   8.101  17.515  0.00  0.00    +0.000 NA
ATOM      5  C   UNL     1       3.261   7.050  18.308  0.00  0.00    +0.000 A 
ATOM      6  S   UNL     1       2.253   7.028  19.727  0.00  0.00    +0.000 S 
ATOM      7  C   UNL     1       1.576   8.501  19.257  0.00  0.00    +0.000 A 
ATOM      8  N   UNL     1       0.717   9.405  19.840  0.00  0.00    +0.000 N 
ENDROOT
BRANCH   5   9
ATOM      9  C   UNL     1       4.255   5.959  17.984  0.00  0.00    +0.000 A 
ATOM     10  C   UNL     1       4.702   4.967  18.910  0.00  0.00    +0.000 A 
ATOM     11  C   UNL     1       5.649   4.124  18.371  0.00  0.00    +0.000 A 
ATOM     12  S   UNL     1       5.991   4.509  16.741  0.00  0.00    +0.000 S 
ATOM     13  C   UNL     1       4.866   5.802  16.754  0.00  0.00    +0.000 A 
ENDBRANCH   5   9
BRANCH   1  15
ATOM     14  O   UNL     1       2.014  12.456  19.454  0.00  0.00    +0.000 OA
ATOM     15  C   UNL     1       0.875  11.988  19.431  0.00  0.00    +0.000 C 
ATOM     16  N   UNL     1      -0.229  12.683  19.941  0.00  0.00    +0.000 N 
ATOM     17  H   UNL     1      -1.134  12.222  19.943  0.00  0.00    +0.000 HD
BRANCH  16  18
ATOM     18  C   UNL     1      -0.151  13.921  20.673  0.00  0.00    +0.000 A 
ATOM     19  C   UNL     1      -0.273  15.184  20.081  0.00  0.00    +0.000 A 
ATOM     20  C   UNL     1      -0.099  16.353  20.828  0.00  0.00    +0.000 A 
ATOM     21  C   UNL     1       0.193  16.238  22.169  0.00  0.00    +0.000 A 
ATOM     22  N   UNL     1       0.286  15.044  22.801  0.00  0.00    +0.000 NA
ATOM     23  C   UNL     1       0.099  13.924  22.045  0.00  0.00    +0.000 A 
ENDBRANCH  16  18
ENDBRANCH   1  15
BRANCH   8  24
ATOM     24  C   UNL     1       0.977   9.647  21.270  0.00  0.00    +0.000 C 
BRANCH  24  25
ATOM     25  C   UNL     1      -0.138   9.402  22.241  0.00  0.00    +0.000 C 
ATOM     26  C   UNL     1      -0.078   9.484  23.745  0.00  0.00    +0.000 C 
ATOM     27  C   UNL     1      -0.877  10.495  22.966  0.00  0.00    +0.000 C 
ENDBRANCH  24  25
ENDBRANCH   8  24
TORSDOF 5
ENDMDL
MODEL 9
REMARK VINA RESULT:      -6.2      1.844      2.467
REMARK  Name = 
REMARK  5 active torsions:
REMARK  status: ('A' for Active; 'I' for Inactive)
REMARK    1  A    between atoms: C_2  and  C_10
REMARK    2  A    between atoms: N_3  and  C_4
REMARK    3  A    between atoms: C_14  and  C_15
REMARK    4  A    between atoms: N_22  and  C_23
REMARK    5  A    between atoms: C_23  and  C_24
REMARK                            x       y       z     vdW  Elec       q    Type
REMARK                         _______ _______ _______ _____ _____    ______ ____
ROOT
ATOM      1  C   UNL     1      -0.369  12.806  20.564  0.00  0.00    +0.000 C 
ATOM      2  C   UNL     1       0.172  11.684  21.545  0.00  0.00    +0.000 C 
ATOM      3  C   UNL     1       0.714  10.683  20.613  0.00  0.00    +0.000 A 
ATOM      4  N   UNL     1       1.208   9.430  20.863  0.00  0.00    +0.000 NA
ATOM      5  C   UNL     1       1.422   8.841  19.693  0.00  0.00    +0.000 A 
ATOM      6  S   UNL     1       0.987   9.789  18.299  0.00  0.00    +0.000 S 
ATOM      7  C   UNL     1       0.481  11.036  19.317  0.00  0.00    +0.000 A 
ATOM      8  N   UNL     1      -0.174  12.234  19.135  0.00  0.00    +0.000 N 
ENDROOT
BRANCH   5   9
ATOM      9  C   UNL     1       2.003   7.450  19.597  0.00  0.00    +0.000 A 
ATOM     10  C   UNL     1       2.733   6.950  18.474  0.00  0.00    +0.000 A 
ATOM     11  C   UNL     1       3.105   5.633  18.625  0.00  0.00    +0.000 A 
ATOM     12  S   UNL     1       2.597   4.995  20.128  0.00  0.00    +0.000 S 
ATOM     13  C   UNL     1       1.883   6.486  20.580  0.00  0.00    +0.000 A 
ENDBRANCH   5   9
BRANCH   1  15
ATOM     14  O   UNL     1      -2.226  14.362  20.598  0.00  0.00    +0.000 OA
ATOM     15  C   UNL     1      -1.825  13.238  20.904  0.00  0.00    +0.000 C 
ATOM     16  N   UNL     1      -2.637  12.309  21.564  0.00  0.00    +0.000 N 
ATOM     17  H   UNL     1      -2.232  11.418  21.838  0.00  0.00    +0.000 HD
BRANCH  16  18
ATOM     18  C   UNL     1      -3.947  12.593  22.092  0.00  0.00    +0.000 A 
ATOM     19  C   UNL     1      -4.200  12.856  23.444  0.00  0.00    +0.000 A 
ATOM     20  C   UNL     1      -5.505  13.037  23.914  0.00  0.00    +0.000 A 
ATOM     21  C   UNL     1      -6.544  12.953  23.014  0.00  0.00    +0.000 A 
ATOM     22  N   UNL     1      -6.355  12.737  21.691  0.00  0.00    +0.000 NA
ATOM     23  C   UNL     1      -5.069  12.578  21.265  0.00  0.00    +0.000 A 
ENDBRANCH  16  18
ENDBRANCH   1  15
BRANCH   8  24
ATOM     24  C   UNL     1      -1.290  12.170  18.175  0.00  0.00    +0.000 C 
BRANCH  24  25
ATOM     25  C   UNL     1      -2.250  11.027  18.285  0.00  0.00    +0.000 C 
ATOM     26  C   UNL     1      -3.695  10.998  17.855  0.00  0.00    +0.000 C 
ATOM     27  C   UNL     1      -2.674  10.169  17.121  0.00  0.00    +0.000 C 
ENDBRANCH  24  25
ENDBRANCH   8  24
TORSDOF 5
ENDMDL
