MODEL 1
REMARK VINA RESULT:      -8.7      0.000      0.000
REMARK  Name = 
REMARK  7 active torsions:
REMARK  status: ('A' for Active; 'I' for Inactive)
REMARK    1  A    between atoms: C_2  and  C_4
REMARK    2  A    between atoms: C_8  and  C_9
REMARK    3  A    between atoms: C_9  and  N_10
REMARK    4  A    between atoms: C_13  and  N_14
REMARK    5  A    between atoms: N_14  and  S_15
REMARK    6  A    between atoms: S_15  and  C_18
REMARK    7  A    between atoms: C_21  and  C_22
REMARK                            x       y       z     vdW  Elec       q    Type
REMARK                         _______ _______ _______ _____ _____    ______ ____
ROOT
ATOM      1  N   UNL     1      -2.399  11.669  18.467  0.00  0.00    +0.000 N 
ATOM      2  C   UNL     1      -2.437  12.729  19.443  0.00  0.00    +0.000 C 
ATOM      3  C   UNL     1      -1.169  12.515  20.248  0.00  0.00    +0.000 C 
ATOM      4  C   UNL     1      -0.986  11.005  20.211  0.00  0.00    +0.000 C 
ATOM      5  C   UNL     1      -1.507  10.664  18.822  0.00  0.00    +0.000 C 
ATOM      6  O   UNL     1      -1.245   9.663  18.173  0.00  0.00    +0.000 OA
ENDROOT
BRANCH   4   7
ATOM      7  N   UNL     1       0.381  10.590  20.483  0.00  0.00    +0.000 NA
ATOM      8  H   UNL     1       1.140  11.268  20.437  0.00  0.00    +0.000 HD
BRANCH   7   9
ATOM      9  S   UNL     1       0.695   9.185  21.326  0.00  0.00    +0.000 S 
ATOM     10  O   UNL     1       1.611   9.530  22.389  0.00  0.00    +0.000 OA
ATOM     11  O   UNL     1      -0.568   8.539  21.600  0.00  0.00    +0.000 OA
BRANCH   9  12
ATOM     12  C   UNL     1       1.584   8.191  20.152  0.00  0.00    +0.000 A 
ATOM     13  C   UNL     1       1.894   8.718  18.904  0.00  0.00    +0.000 A 
ATOM     14  C   UNL     1       2.643   7.949  17.998  0.00  0.00    +0.000 A 
ATOM     15  C   UNL     1       3.113   6.661  18.326  0.00  0.00    +0.000 A 
ATOM     16  C   UNL     1       2.751   6.147  19.591  0.00  0.00    +0.000 A 
ATOM     17  C   UNL     1       1.994   6.901  20.496  0.00  0.00    +0.000 A 
BRANCH  15  18
ATOM     18  C   UNL     1       3.978   5.892  17.400  0.00  0.00    +0.000 A 
ATOM     19  C   UNL     1       3.990   4.486  17.423  0.00  0.00    +0.000 A 
ATOM     20  C   UNL     1       4.781   3.754  16.534  0.00  0.00    +0.000 A 
ATOM     21  N   UNL     1       5.573   4.380  15.594  0.00  0.00    +0.000 N 
ATOM     22  O   UNL     1       6.280   3.709  14.786  0.00  0.00    +0.000 OA
ATOM     23  C   UNL     1       5.572   5.760  15.557  0.00  0.00    +0.000 A 
ATOM     24  C   UNL     1       4.795   6.516  16.445  0.00  0.00    +0.000 A 
ENDBRANCH  15  18
ENDBRANCH   9  12
ENDBRANCH   7   9
ENDBRANCH   4   7
BRANCH   1  25
ATOM     25  C   UNL     1      -3.388  11.554  17.412  0.00  0.00    +0.000 C 
BRANCH  25  30
ATOM     26  C   UNL     1      -6.487  11.796  19.617  0.00  0.00    +0.000 A 
ATOM     27  C   UNL     1      -7.414  12.355  18.733  0.00  0.00    +0.000 A 
ATOM     28  C   UNL     1      -7.028  12.681  17.433  0.00  0.00    +0.000 A 
ATOM     29  C   UNL     1      -5.725  12.423  17.007  0.00  0.00    +0.000 A 
ATOM     30  C   UNL     1      -4.788  11.846  17.879  0.00  0.00    +0.000 A 
ATOM     31  C   UNL     1      -5.172  11.561  19.199  0.00  0.00    +0.000 A 
BRANCH  26  33
ATOM     32  N   UNL     1      -6.424  12.020  22.003  0.00  0.00    +0.000 NA
ATOM     33  C   UNL     1      -6.921  11.399  20.983  0.00  0.00    +0.000 C 
ATOM     34  N   UNL     1      -7.829  10.397  21.159  0.00  0.00    +0.000 N 
ATOM     35  H   UNL     1      -6.860  11.677  22.862  0.00  0.00    +0.000 HD
ATOM     36  H   UNL     1      -7.839   9.971  22.078  0.00  0.00    +0.000 HD
ATOM     37  H   UNL     1      -7.860   9.698  20.421  0.00  0.00    +0.000 HD
ENDBRANCH  26  33
ENDBRANCH  25  30
ENDBRANCH   1  25
TORSDOF 7
ENDMDL
MODEL 2
REMARK VINA RESULT:      -8.4      3.081      4.768
REMARK  Name = 
REMARK  7 active torsions:
REMARK  status: ('A' for Active; 'I' for Inactive)
REMARK    1  A    between atoms: C_2  and  C_4
REMARK    2  A    between atoms: C_8  and  C_9
REMARK    3  A    between atoms: C_9  and  N_10
REMARK    4  A    between atoms: C_13  and  N_14
REMARK    5  A    between atoms: N_14  and  S_15
REMARK    6  A    between atoms: S_15  and  C_18
REMARK    7  A    between atoms: C_21  and  C_22
REMARK                            x       y       z     vdW  Elec       q    Type
REMARK                         _______ _______ _______ _____ _____    ______ ____
ROOT
ATOM      1  N   UNL     1       1.541   8.906  19.680  0.00  0.00    +0.000 N 
ATOM      2  C   UNL     1       0.786   9.027  20.901  0.00  0.00    +0.000 C 
ATOM      3  C   UNL     1       1.206   7.807  21.700  0.00  0.00    +0.000 C 
ATOM      4  C   UNL     1       1.476   6.765  20.624  0.00  0.00    +0.000 C 
ATOM      5  C   UNL     1       2.039   7.620  19.499  0.00  0.00    +0.000 C 
ATOM      6  O   UNL     1       2.739   7.236  18.574  0.00  0.00    +0.000 OA
ENDROOT
BRANCH   4   7
ATOM      7  N   UNL     1       2.339   5.687  21.080  0.00  0.00    +0.000 NA
ATOM      8  H   UNL     1       2.874   5.789  21.941  0.00  0.00    +0.000 HD
BRANCH   7   9
ATOM      9  S   UNL     1       2.127   4.129  20.521  0.00  0.00    +0.000 S 
ATOM     10  O   UNL     1       2.726   3.249  21.497  0.00  0.00    +0.000 OA
ATOM     11  O   UNL     1       0.744   3.983  20.125  0.00  0.00    +0.000 OA
BRANCH   9  12
ATOM     12  C   UNL     1       3.133   4.076  19.058  0.00  0.00    +0.000 A 
ATOM     13  C   UNL     1       2.549   3.768  17.836  0.00  0.00    +0.000 A 
ATOM     14  C   UNL     1       3.337   3.779  16.673  0.00  0.00    +0.000 A 
ATOM     15  C   UNL     1       4.705   4.119  16.704  0.00  0.00    +0.000 A 
ATOM     16  C   UNL     1       5.270   4.396  17.969  0.00  0.00    +0.000 A 
ATOM     17  C   UNL     1       4.495   4.374  19.136  0.00  0.00    +0.000 A 
BRANCH  15  18
ATOM     18  C   UNL     1       5.509   4.218  15.463  0.00  0.00    +0.000 A 
ATOM     19  C   UNL     1       5.090   3.586  14.279  0.00  0.00    +0.000 A 
ATOM     20  C   UNL     1       5.829   3.699  13.098  0.00  0.00    +0.000 A 
ATOM     21  N   UNL     1       6.990   4.441  13.045  0.00  0.00    +0.000 N 
ATOM     22  O   UNL     1       7.648   4.546  11.968  0.00  0.00    +0.000 OA
ATOM     23  C   UNL     1       7.414   5.070  14.198  0.00  0.00    +0.000 A 
ATOM     24  C   UNL     1       6.697   4.963  15.397  0.00  0.00    +0.000 A 
ENDBRANCH  15  18
ENDBRANCH   9  12
ENDBRANCH   7   9
ENDBRANCH   4   7
BRANCH   1  25
ATOM     25  C   UNL     1       1.520   9.930  18.652  0.00  0.00    +0.000 C 
BRANCH  25  30
ATOM     26  C   UNL     1      -2.020  11.276  18.223  0.00  0.00    +0.000 A 
ATOM     27  C   UNL     1      -1.924  12.517  18.857  0.00  0.00    +0.000 A 
ATOM     28  C   UNL     1      -0.724  12.906  19.450  0.00  0.00    +0.000 A 
ATOM     29  C   UNL     1       0.390  12.067  19.384  0.00  0.00    +0.000 A 
ATOM     30  C   UNL     1       0.313  10.824  18.735  0.00  0.00    +0.000 A 
ATOM     31  C   UNL     1      -0.912  10.422  18.179  0.00  0.00    +0.000 A 
BRANCH  26  33
ATOM     32  N   UNL     1      -3.688   9.665  17.613  0.00  0.00    +0.000 NA
ATOM     33  C   UNL     1      -3.288  10.893  17.545  0.00  0.00    +0.000 C 
ATOM     34  N   UNL     1      -4.017  11.821  16.861  0.00  0.00    +0.000 N 
ATOM     35  H   UNL     1      -4.596   9.572  17.152  0.00  0.00    +0.000 HD
ATOM     36  H   UNL     1      -4.667  11.451  16.179  0.00  0.00    +0.000 HD
ATOM     37  H   UNL     1      -3.489  12.607  16.490  0.00  0.00    +0.000 HD
ENDBRANCH  26  33
ENDBRANCH  25  30
ENDBRANCH   1  25
TORSDOF 7
ENDMDL
MODEL 3
REMARK VINA RESULT:      -8.3      4.090     11.252
REMARK  Name = 
REMARK  7 active torsions:
REMARK  status: ('A' for Active; 'I' for Inactive)
REMARK    1  A    between atoms: C_2  and  C_4
REMARK    2  A    between atoms: C_8  and  C_9
REMARK    3  A    between atoms: C_9  and  N_10
REMARK    4  A    between atoms: C_13  and  N_14
REMARK    5  A    between atoms: N_14  and  S_15
REMARK    6  A    between atoms: S_15  and  C_18
REMARK    7  A    between atoms: C_21  and  C_22
REMARK                            x       y       z     vdW  Elec       q    Type
REMARK                         _______ _______ _______ _____ _____    ______ ____
ROOT
ATOM      1  N   UNL     1       6.150   5.135  16.890  0.00  0.00    +0.000 N 
ATOM      2  C   UNL     1       5.459   6.206  16.219  0.00  0.00    +0.000 C 
ATOM      3  C   UNL     1       4.575   6.793  17.304  0.00  0.00    +0.000 C 
ATOM      4  C   UNL     1       4.243   5.586  18.170  0.00  0.00    +0.000 C 
ATOM      5  C   UNL     1       5.529   4.778  18.082  0.00  0.00    +0.000 C 
ATOM      6  O   UNL     1       5.909   3.928  18.873  0.00  0.00    +0.000 OA
ENDROOT
BRANCH   4   7
ATOM      7  N   UNL     1       3.825   5.949  19.515  0.00  0.00    +0.000 NA
ATOM      8  H   UNL     1       4.439   6.505  20.109  0.00  0.00    +0.000 HD
BRANCH   7   9
ATOM      9  S   UNL     1       2.215   5.906  19.950  0.00  0.00    +0.000 S 
ATOM     10  O   UNL     1       1.535   5.106  18.958  0.00  0.00    +0.000 OA
ATOM     11  O   UNL     1       2.142   5.584  21.357  0.00  0.00    +0.000 OA
BRANCH   9  12
ATOM     12  C   UNL     1       1.688   7.589  19.737  0.00  0.00    +0.000 A 
ATOM     13  C   UNL     1       1.297   8.331  20.845  0.00  0.00    +0.000 A 
ATOM     14  C   UNL     1       0.932   9.677  20.680  0.00  0.00    +0.000 A 
ATOM     15  C   UNL     1       0.973  10.310  19.422  0.00  0.00    +0.000 A 
ATOM     16  C   UNL     1       1.345   9.517  18.314  0.00  0.00    +0.000 A 
ATOM     17  C   UNL     1       1.698   8.170  18.467  0.00  0.00    +0.000 A 
BRANCH  15  18
ATOM     18  C   UNL     1       0.673  11.754  19.269  0.00  0.00    +0.000 A 
ATOM     19  C   UNL     1      -0.577  12.276  19.642  0.00  0.00    +0.000 A 
ATOM     20  C   UNL     1      -0.856  13.641  19.528  0.00  0.00    +0.000 A 
ATOM     21  N   UNL     1       0.087  14.530  19.056  0.00  0.00    +0.000 N 
ATOM     22  O   UNL     1      -0.171  15.765  18.964  0.00  0.00    +0.000 OA
ATOM     23  C   UNL     1       1.321  14.033  18.687  0.00  0.00    +0.000 A 
ATOM     24  C   UNL     1       1.621  12.668  18.782  0.00  0.00    +0.000 A 
ENDBRANCH  15  18
ENDBRANCH   9  12
ENDBRANCH   7   9
ENDBRANCH   4   7
BRANCH   1  25
ATOM     25  C   UNL     1       7.186   4.355  16.239  0.00  0.00    +0.000 C 
BRANCH  25  30
ATOM     26  C   UNL     1       6.274   3.646  12.607  0.00  0.00    +0.000 A 
ATOM     27  C   UNL     1       7.071   4.574  11.934  0.00  0.00    +0.000 A 
ATOM     28  C   UNL     1       7.882   5.450  12.656  0.00  0.00    +0.000 A 
ATOM     29  C   UNL     1       7.917   5.379  14.049  0.00  0.00    +0.000 A 
ATOM     30  C   UNL     1       7.133   4.440  14.738  0.00  0.00    +0.000 A 
ATOM     31  C   UNL     1       6.287   3.591  14.006  0.00  0.00    +0.000 A 
BRANCH  26  33
ATOM     32  N   UNL     1       4.320   3.066  11.344  0.00  0.00    +0.000 NA
ATOM     33  C   UNL     1       5.455   2.679  11.828  0.00  0.00    +0.000 C 
ATOM     34  N   UNL     1       5.893   1.403  11.628  0.00  0.00    +0.000 N 
ATOM     35  H   UNL     1       3.907   2.314  10.789  0.00  0.00    +0.000 HD
ATOM     36  H   UNL     1       5.178   0.728  11.382  0.00  0.00    +0.000 HD
ATOM     37  H   UNL     1       6.525   1.039  12.337  0.00  0.00    +0.000 HD
ENDBRANCH  26  33
ENDBRANCH  25  30
ENDBRANCH   1  25
TORSDOF 7
ENDMDL
MODEL 4
REMARK VINA RESULT:      -8.3      2.244      3.572
REMARK  Name = 
REMARK  7 active torsions:
REMARK  status: ('A' for Active; 'I' for Inactive)
REMARK    1  A    between atoms: C_2  and  C_4
REMARK    2  A    between atoms: C_8  and  C_9
REMARK    3  A    between atoms: C_9  and  N_10
REMARK    4  A    between atoms: C_13  and  N_14
REMARK    5  A    between atoms: N_14  and  S_15
REMARK    6  A    between atoms: S_15  and  C_18
REMARK    7  A    between atoms: C_21  and  C_22
REMARK                            x       y       z     vdW  Elec       q    Type
REMARK                         _______ _______ _______ _____ _____    ______ ____
ROOT
ATOM      1  N   UNL     1       0.452  10.066  20.043  0.00  0.00    +0.000 N 
ATOM      2  C   UNL     1      -0.108   9.917  21.362  0.00  0.00    +0.000 C 
ATOM      3  C   UNL     1       0.662   8.745  21.943  0.00  0.00    +0.000 C 
ATOM      4  C   UNL     1       0.955   7.884  20.723  0.00  0.00    +0.000 C 
ATOM      5  C   UNL     1       1.155   8.936  19.642  0.00  0.00    +0.000 C 
ATOM      6  O   UNL     1       1.760   8.791  18.590  0.00  0.00    +0.000 OA
ENDROOT
BRANCH   4   7
ATOM      7  N   UNL     1       2.072   6.975  20.923  0.00  0.00    +0.000 NA
ATOM      8  H   UNL     1       2.832   7.229  21.552  0.00  0.00    +0.000 HD
BRANCH   7   9
ATOM      9  S   UNL     1       1.932   5.354  20.549  0.00  0.00    +0.000 S 
ATOM     10  O   UNL     1       2.647   4.626  21.571  0.00  0.00    +0.000 OA
ATOM     11  O   UNL     1       0.542   5.083  20.262  0.00  0.00    +0.000 OA
BRANCH   9  12
ATOM     12  C   UNL     1       2.851   5.201  19.036  0.00  0.00    +0.000 A 
ATOM     13  C   UNL     1       3.780   6.178  18.696  0.00  0.00    +0.000 A 
ATOM     14  C   UNL     1       4.542   6.027  17.526  0.00  0.00    +0.000 A 
ATOM     15  C   UNL     1       4.412   4.897  16.694  0.00  0.00    +0.000 A 
ATOM     16  C   UNL     1       3.437   3.941  17.055  0.00  0.00    +0.000 A 
ATOM     17  C   UNL     1       2.662   4.089  18.213  0.00  0.00    +0.000 A 
BRANCH  15  18
ATOM     18  C   UNL     1       5.283   4.700  15.511  0.00  0.00    +0.000 A 
ATOM     19  C   UNL     1       4.851   3.932  14.416  0.00  0.00    +0.000 A 
ATOM     20  C   UNL     1       5.655   3.765  13.285  0.00  0.00    +0.000 A 
ATOM     21  N   UNL     1       6.898   4.356  13.194  0.00  0.00    +0.000 N 
ATOM     22  O   UNL     1       7.616   4.208  12.163  0.00  0.00    +0.000 OA
ATOM     23  C   UNL     1       7.337   5.115  14.260  0.00  0.00    +0.000 A 
ATOM     24  C   UNL     1       6.554   5.288  15.409  0.00  0.00    +0.000 A 
ENDBRANCH  15  18
ENDBRANCH   9  12
ENDBRANCH   7   9
ENDBRANCH   4   7
BRANCH   1  25
ATOM     25  C   UNL     1       0.068  11.150  19.158  0.00  0.00    +0.000 C 
BRANCH  25  30
ATOM     26  C   UNL     1      -3.671  11.597  18.567  0.00  0.00    +0.000 A 
ATOM     27  C   UNL     1      -3.907  10.654  17.564  0.00  0.00    +0.000 A 
ATOM     28  C   UNL     1      -2.853   9.895  17.057  0.00  0.00    +0.000 A 
ATOM     29  C   UNL     1      -1.566  10.058  17.573  0.00  0.00    +0.000 A 
ATOM     30  C   UNL     1      -1.317  10.989  18.593  0.00  0.00    +0.000 A 
ATOM     31  C   UNL     1      -2.376  11.780  19.067  0.00  0.00    +0.000 A 
BRANCH  26  33
ATOM     32  N   UNL     1      -5.114  12.192  20.387  0.00  0.00    +0.000 NA
ATOM     33  C   UNL     1      -4.810  12.362  19.141  0.00  0.00    +0.000 C 
ATOM     34  N   UNL     1      -5.523  13.228  18.367  0.00  0.00    +0.000 N 
ATOM     35  H   UNL     1      -5.874  12.825  20.646  0.00  0.00    +0.000 HD
ATOM     36  H   UNL     1      -6.447  13.464  18.710  0.00  0.00    +0.000 HD
ATOM     37  H   UNL     1      -5.534  13.022  17.372  0.00  0.00    +0.000 HD
ENDBRANCH  26  33
ENDBRANCH  25  30
ENDBRANCH   1  25
TORSDOF 7
ENDMDL
MODEL 5
REMARK VINA RESULT:      -8.3      2.726      3.832
REMARK  Name = 
REMARK  7 active torsions:
REMARK  status: ('A' for Active; 'I' for Inactive)
REMARK    1  A    between atoms: C_2  and  C_4
REMARK    2  A    between atoms: C_8  and  C_9
REMARK    3  A    between atoms: C_9  and  N_10
REMARK    4  A    between atoms: C_13  and  N_14
REMARK    5  A    between atoms: N_14  and  S_15
REMARK    6  A    between atoms: S_15  and  C_18
REMARK    7  A    between atoms: C_21  and  C_22
REMARK                            x       y       z     vdW  Elec       q    Type
REMARK                         _______ _______ _______ _____ _____    ______ ____
ROOT
ATOM      1  N   UNL     1      -1.566  12.411  22.941  0.00  0.00    +0.000 N 
ATOM      2  C   UNL     1      -1.578  11.018  23.307  0.00  0.00    +0.000 C 
ATOM      3  C   UNL     1      -0.399  10.442  22.546  0.00  0.00    +0.000 C 
ATOM      4  C   UNL     1      -0.355  11.290  21.282  0.00  0.00    +0.000 C 
ATOM      5  C   UNL     1      -0.801  12.648  21.805  0.00  0.00    +0.000 C 
ATOM      6  O   UNL     1      -0.586  13.732  21.286  0.00  0.00    +0.000 OA
ENDROOT
BRANCH   4   7
ATOM      7  N   UNL     1       0.943  11.269  20.627  0.00  0.00    +0.000 NA
ATOM      8  H   UNL     1       1.793  11.159  21.179  0.00  0.00    +0.000 HD
BRANCH   7   9
ATOM      9  S   UNL     1       1.072  10.938  18.997  0.00  0.00    +0.000 S 
ATOM     10  O   UNL     1      -0.269  10.948  18.461  0.00  0.00    +0.000 OA
ATOM     11  O   UNL     1       2.108  11.786  18.452  0.00  0.00    +0.000 OA
BRANCH   9  12
ATOM     12  C   UNL     1       1.653   9.260  18.963  0.00  0.00    +0.000 A 
ATOM     13  C   UNL     1       1.488   8.455  20.084  0.00  0.00    +0.000 A 
ATOM     14  C   UNL     1       1.900   7.113  20.035  0.00  0.00    +0.000 A 
ATOM     15  C   UNL     1       2.458   6.548  18.871  0.00  0.00    +0.000 A 
ATOM     16  C   UNL     1       2.640   7.405  17.763  0.00  0.00    +0.000 A 
ATOM     17  C   UNL     1       2.244   8.747  17.806  0.00  0.00    +0.000 A 
BRANCH  15  18
ATOM     18  C   UNL     1       2.808   5.109  18.798  0.00  0.00    +0.000 A 
ATOM     19  C   UNL     1       1.806   4.126  18.722  0.00  0.00    +0.000 A 
ATOM     20  C   UNL     1       2.129   2.769  18.624  0.00  0.00    +0.000 A 
ATOM     21  N   UNL     1       3.441   2.344  18.585  0.00  0.00    +0.000 N 
ATOM     22  O   UNL     1       3.724   1.114  18.486  0.00  0.00    +0.000 OA
ATOM     23  C   UNL     1       4.436   3.297  18.656  0.00  0.00    +0.000 A 
ATOM     24  C   UNL     1       4.138   4.661  18.766  0.00  0.00    +0.000 A 
ENDBRANCH  15  18
ENDBRANCH   9  12
ENDBRANCH   7   9
ENDBRANCH   4   7
BRANCH   1  25
ATOM     25  C   UNL     1      -2.480  13.373  23.529  0.00  0.00    +0.000 C 
BRANCH  25  30
ATOM     26  C   UNL     1      -5.612  12.910  21.406  0.00  0.00    +0.000 A 
ATOM     27  C   UNL     1      -6.594  12.768  22.388  0.00  0.00    +0.000 A 
ATOM     28  C   UNL     1      -6.241  12.791  23.737  0.00  0.00    +0.000 A 
ATOM     29  C   UNL     1      -4.909  12.986  24.105  0.00  0.00    +0.000 A 
ATOM     30  C   UNL     1      -3.913  13.147  23.128  0.00  0.00    +0.000 A 
ATOM     31  C   UNL     1      -4.271  13.079  21.773  0.00  0.00    +0.000 A 
BRANCH  26  33
ATOM     32  N   UNL     1      -5.703  13.978  19.261  0.00  0.00    +0.000 NA
ATOM     33  C   UNL     1      -6.005  12.940  19.971  0.00  0.00    +0.000 C 
ATOM     34  N   UNL     1      -6.672  11.891  19.413  0.00  0.00    +0.000 N 
ATOM     35  H   UNL     1      -5.984  13.826  18.290  0.00  0.00    +0.000 HD
ATOM     36  H   UNL     1      -7.177  12.097  18.559  0.00  0.00    +0.000 HD
ATOM     37  H   UNL     1      -7.232  11.335  20.055  0.00  0.00    +0.000 HD
ENDBRANCH  26  33
ENDBRANCH  25  30
ENDBRANCH   1  25
TORSDOF 7
ENDMDL
MODEL 6
REMARK VINA RESULT:      -8.3      4.895      7.848
REMARK  Name = 
REMARK  7 active torsions:
REMARK  status: ('A' for Active; 'I' for Inactive)
REMARK    1  A    between atoms: C_2  and  C_4
REMARK    2  A    between atoms: C_8  and  C_9
REMARK    3  A    between atoms: C_9  and  N_10
REMARK    4  A    between atoms: C_13  and  N_14
REMARK    5  A    between atoms: N_14  and  S_15
REMARK    6  A    between atoms: S_15  and  C_18
REMARK    7  A    between atoms: C_21  and  C_22
REMARK                            x       y       z     vdW  Elec       q    Type
REMARK                         _______ _______ _______ _____ _____    ______ ____
ROOT
ATOM      1  N   UNL     1       2.331  15.094  18.455  0.00  0.00    +0.000 N 
ATOM      2  C   UNL     1       1.283  15.903  19.023  0.00  0.00    +0.000 C 
ATOM      3  C   UNL     1       0.652  14.991  20.059  0.00  0.00    +0.000 C 
ATOM      4  C   UNL     1       0.822  13.607  19.449  0.00  0.00    +0.000 C 
ATOM      5  C   UNL     1       2.159  13.743  18.737  0.00  0.00    +0.000 C 
ATOM      6  O   UNL     1       2.906  12.833  18.413  0.00  0.00    +0.000 OA
ENDROOT
BRANCH   4   7
ATOM      7  N   UNL     1       0.746  12.538  20.434  0.00  0.00    +0.000 NA
ATOM      8  H   UNL     1       1.084  12.692  21.382  0.00  0.00    +0.000 HD
BRANCH   7   9
ATOM      9  S   UNL     1      -0.295  11.252  20.219  0.00  0.00    +0.000 S 
ATOM     10  O   UNL     1      -0.748  10.856  21.532  0.00  0.00    +0.000 OA
ATOM     11  O   UNL     1      -1.229  11.605  19.174  0.00  0.00    +0.000 OA
BRANCH   9  12
ATOM     12  C   UNL     1       0.764   9.965  19.604  0.00  0.00    +0.000 A 
ATOM     13  C   UNL     1       1.086   8.891  20.425  0.00  0.00    +0.000 A 
ATOM     14  C   UNL     1       1.880   7.849  19.918  0.00  0.00    +0.000 A 
ATOM     15  C   UNL     1       2.344   7.847  18.588  0.00  0.00    +0.000 A 
ATOM     16  C   UNL     1       2.024   8.970  17.793  0.00  0.00    +0.000 A 
ATOM     17  C   UNL     1       1.243  10.020  18.293  0.00  0.00    +0.000 A 
BRANCH  15  18
ATOM     18  C   UNL     1       3.105   6.702  18.032  0.00  0.00    +0.000 A 
ATOM     19  C   UNL     1       2.619   5.389  18.145  0.00  0.00    +0.000 A 
ATOM     20  C   UNL     1       3.317   4.308  17.599  0.00  0.00    +0.000 A 
ATOM     21  N   UNL     1       4.504   4.489  16.919  0.00  0.00    +0.000 N 
ATOM     22  O   UNL     1       5.125   3.506  16.419  0.00  0.00    +0.000 OA
ATOM     23  C   UNL     1       4.994   5.774  16.798  0.00  0.00    +0.000 A 
ATOM     24  C   UNL     1       4.318   6.872  17.346  0.00  0.00    +0.000 A 
ENDBRANCH  15  18
ENDBRANCH   9  12
ENDBRANCH   7   9
ENDBRANCH   4   7
BRANCH   1  25
ATOM     25  C   UNL     1       3.266  15.615  17.476  0.00  0.00    +0.000 C 
BRANCH  25  30
ATOM     26  C   UNL     1       6.941  14.931  18.223  0.00  0.00    +0.000 A 
ATOM     27  C   UNL     1       7.260  16.008  19.054  0.00  0.00    +0.000 A 
ATOM     28  C   UNL     1       6.296  16.971  19.349  0.00  0.00    +0.000 A 
ATOM     29  C   UNL     1       5.004  16.844  18.837  0.00  0.00    +0.000 A 
ATOM     30  C   UNL     1       4.664  15.758  18.013  0.00  0.00    +0.000 A 
ATOM     31  C   UNL     1       5.653  14.816  17.686  0.00  0.00    +0.000 A 
BRANCH  26  33
ATOM     32  N   UNL     1       9.090  13.931  18.583  0.00  0.00    +0.000 NA
ATOM     33  C   UNL     1       7.959  13.879  17.959  0.00  0.00    +0.000 C 
ATOM     34  N   UNL     1       7.704  12.875  17.072  0.00  0.00    +0.000 N 
ATOM     35  H   UNL     1       9.655  13.114  18.342  0.00  0.00    +0.000 HD
ATOM     36  H   UNL     1       8.518  12.396  16.706  0.00  0.00    +0.000 HD
ATOM     37  H   UNL     1       7.038  13.097  16.336  0.00  0.00    +0.000 HD
ENDBRANCH  26  33
ENDBRANCH  25  30
ENDBRANCH   1  25
TORSDOF 7
ENDMDL
MODEL 7
REMARK VINA RESULT:      -8.2      4.615      9.382
REMARK  Name = 
REMARK  7 active torsions:
REMARK  status: ('A' for Active; 'I' for Inactive)
REMARK    1  A    between atoms: C_2  and  C_4
REMARK    2  A    between atoms: C_8  and  C_9
REMARK    3  A    between atoms: C_9  and  N_10
REMARK    4  A    between atoms: C_13  and  N_14
REMARK    5  A    between atoms: N_14  and  S_15
REMARK    6  A    between atoms: S_15  and  C_18
REMARK    7  A    between atoms: C_21  and  C_22
REMARK                            x       y       z     vdW  Elec       q    Type
REMARK                         _______ _______ _______ _____ _____    ______ ____
ROOT
ATOM      1  N   UNL     1       2.147   7.689  19.539  0.00  0.00    +0.000 N 
ATOM      2  C   UNL     1       1.682   7.590  20.899  0.00  0.00    +0.000 C 
ATOM      3  C   UNL     1       0.469   8.500  20.926  0.00  0.00    +0.000 C 
ATOM      4  C   UNL     1       0.825   9.583  19.918  0.00  0.00    +0.000 C 
ATOM      5  C   UNL     1       1.617   8.796  18.885  0.00  0.00    +0.000 C 
ATOM      6  O   UNL     1       1.809   9.112  17.720  0.00  0.00    +0.000 OA
ENDROOT
BRANCH   4   7
ATOM      7  N   UNL     1      -0.338  10.290  19.406  0.00  0.00    +0.000 NA
ATOM      8  H   UNL     1      -1.076   9.778  18.924  0.00  0.00    +0.000 HD
BRANCH   7   9
ATOM      9  S   UNL     1      -0.743  11.801  19.987  0.00  0.00    +0.000 S 
ATOM     10  O   UNL     1      -1.772  12.321  19.117  0.00  0.00    +0.000 OA
ATOM     11  O   UNL     1      -0.948  11.689  21.413  0.00  0.00    +0.000 OA
BRANCH   9  12
ATOM     12  C   UNL     1       0.729  12.755  19.710  0.00  0.00    +0.000 A 
ATOM     13  C   UNL     1       1.451  13.233  20.798  0.00  0.00    +0.000 A 
ATOM     14  C   UNL     1       2.643  13.941  20.576  0.00  0.00    +0.000 A 
ATOM     15  C   UNL     1       3.147  14.163  19.279  0.00  0.00    +0.000 A 
ATOM     16  C   UNL     1       2.371  13.690  18.198  0.00  0.00    +0.000 A 
ATOM     17  C   UNL     1       1.174  12.994  18.408  0.00  0.00    +0.000 A 
BRANCH  15  18
ATOM     18  C   UNL     1       4.451  14.832  19.056  0.00  0.00    +0.000 A 
ATOM     19  C   UNL     1       5.281  14.457  17.986  0.00  0.00    +0.000 A 
ATOM     20  C   UNL     1       6.499  15.103  17.753  0.00  0.00    +0.000 A 
ATOM     21  N   UNL     1       6.928  16.140  18.556  0.00  0.00    +0.000 N 
ATOM     22  O   UNL     1       8.027  16.725  18.332  0.00  0.00    +0.000 OA
ATOM     23  C   UNL     1       6.122  16.521  19.610  0.00  0.00    +0.000 A 
ATOM     24  C   UNL     1       4.904  15.882  19.871  0.00  0.00    +0.000 A 
ENDBRANCH  15  18
ENDBRANCH   9  12
ENDBRANCH   7   9
ENDBRANCH   4   7
BRANCH   1  25
ATOM     25  C   UNL     1       3.250   6.890  19.038  0.00  0.00    +0.000 C 
BRANCH  25  30
ATOM     26  C   UNL     1       3.259   3.090  18.743  0.00  0.00    +0.000 A 
ATOM     27  C   UNL     1       2.112   2.868  17.977  0.00  0.00    +0.000 A 
ATOM     28  C   UNL     1       1.318   3.944  17.582  0.00  0.00    +0.000 A 
ATOM     29  C   UNL     1       1.687   5.245  17.927  0.00  0.00    +0.000 A 
ATOM     30  C   UNL     1       2.847   5.485  18.682  0.00  0.00    +0.000 A 
ATOM     31  C   UNL     1       3.616   4.392  19.112  0.00  0.00    +0.000 A 
BRANCH  26  33
ATOM     32  N   UNL     1       5.011   2.099  20.046  0.00  0.00    +0.000 NA
ATOM     33  C   UNL     1       4.130   1.942  19.112  0.00  0.00    +0.000 C 
ATOM     34  N   UNL     1       4.003   0.742  18.477  0.00  0.00    +0.000 N 
ATOM     35  H   UNL     1       5.486   1.212  20.225  0.00  0.00    +0.000 HD
ATOM     36  H   UNL     1       4.804   0.125  18.541  0.00  0.00    +0.000 HD
ATOM     37  H   UNL     1       3.636   0.783  17.529  0.00  0.00    +0.000 HD
ENDBRANCH  26  33
ENDBRANCH  25  30
ENDBRANCH   1  25
TORSDOF 7
ENDMDL
MODEL 8
REMARK VINA RESULT:      -8.1      2.411      3.903
REMARK  Name = 
REMARK  7 active torsions:
REMARK  status: ('A' for Active; 'I' for Inactive)
REMARK    1  A    between atoms: C_2  and  C_4
REMARK    2  A    between atoms: C_8  and  C_9
REMARK    3  A    between atoms: C_9  and  N_10
REMARK    4  A    between atoms: C_13  and  N_14
REMARK    5  A    between atoms: N_14  and  S_15
REMARK    6  A    between atoms: S_15  and  C_18
REMARK    7  A    between atoms: C_21  and  C_22
REMARK                            x       y       z     vdW  Elec       q    Type
REMARK                         _______ _______ _______ _____ _____    ______ ____
ROOT
ATOM      1  N   UNL     1       0.862   9.727  19.948  0.00  0.00    +0.000 N 
ATOM      2  C   UNL     1       0.280   9.746  21.267  0.00  0.00    +0.000 C 
ATOM      3  C   UNL     1       0.939   8.569  21.961  0.00  0.00    +0.000 C 
ATOM      4  C   UNL     1       1.163   7.579  20.826  0.00  0.00    +0.000 C 
ATOM      5  C   UNL     1       1.464   8.508  19.660  0.00  0.00    +0.000 C 
ATOM      6  O   UNL     1       2.062   8.218  18.634  0.00  0.00    +0.000 OA
ENDROOT
BRANCH   4   7
ATOM      7  N   UNL     1       2.194   6.597  21.123  0.00  0.00    +0.000 NA
ATOM      8  H   UNL     1       2.863   6.767  21.872  0.00  0.00    +0.000 HD
BRANCH   7   9
ATOM      9  S   UNL     1       2.034   5.013  20.621  0.00  0.00    +0.000 S 
ATOM     10  O   UNL     1       2.744   4.197  21.578  0.00  0.00    +0.000 OA
ATOM     11  O   UNL     1       0.639   4.780  20.321  0.00  0.00    +0.000 OA
BRANCH   9  12
ATOM     12  C   UNL     1       2.944   4.972  19.097  0.00  0.00    +0.000 A 
ATOM     13  C   UNL     1       4.168   5.623  19.011  0.00  0.00    +0.000 A 
ATOM     14  C   UNL     1       4.910   5.544  17.821  0.00  0.00    +0.000 A 
ATOM     15  C   UNL     1       4.460   4.800  16.712  0.00  0.00    +0.000 A 
ATOM     16  C   UNL     1       3.197   4.177  16.825  0.00  0.00    +0.000 A 
ATOM     17  C   UNL     1       2.444   4.261  18.003  0.00  0.00    +0.000 A 
BRANCH  15  18
ATOM     18  C   UNL     1       5.289   4.645  15.493  0.00  0.00    +0.000 A 
ATOM     19  C   UNL     1       6.530   5.294  15.377  0.00  0.00    +0.000 A 
ATOM     20  C   UNL     1       7.330   5.130  14.242  0.00  0.00    +0.000 A 
ATOM     21  N   UNL     1       6.938   4.318  13.198  0.00  0.00    +0.000 N 
ATOM     22  O   UNL     1       7.672   4.168  12.178  0.00  0.00    +0.000 OA
ATOM     23  C   UNL     1       5.722   3.672  13.297  0.00  0.00    +0.000 A 
ATOM     24  C   UNL     1       4.898   3.829  14.419  0.00  0.00    +0.000 A 
ENDBRANCH  15  18
ENDBRANCH   9  12
ENDBRANCH   7   9
ENDBRANCH   4   7
BRANCH   1  25
ATOM     25  C   UNL     1       0.583  10.758  18.965  0.00  0.00    +0.000 C 
BRANCH  25  30
ATOM     26  C   UNL     1      -3.133  11.527  18.602  0.00  0.00    +0.000 A 
ATOM     27  C   UNL     1      -3.498  10.654  17.575  0.00  0.00    +0.000 A 
ATOM     28  C   UNL     1      -2.537   9.838  16.979  0.00  0.00    +0.000 A 
ATOM     29  C   UNL     1      -1.217   9.873  17.429  0.00  0.00    +0.000 A 
ATOM     30  C   UNL     1      -0.838  10.734  18.472  0.00  0.00    +0.000 A 
ATOM     31  C   UNL     1      -1.803  11.583  19.037  0.00  0.00    +0.000 A 
BRANCH  26  33
ATOM     32  N   UNL     1      -3.805  13.286  20.087  0.00  0.00    +0.000 NA
ATOM     33  C   UNL     1      -4.174  12.353  19.270  0.00  0.00    +0.000 C 
ATOM     34  N   UNL     1      -5.497  12.131  19.027  0.00  0.00    +0.000 N 
ATOM     35  H   UNL     1      -4.624  13.800  20.417  0.00  0.00    +0.000 HD
ATOM     36  H   UNL     1      -6.137  12.490  19.725  0.00  0.00    +0.000 HD
ATOM     37  H   UNL     1      -5.739  11.184  18.746  0.00  0.00    +0.000 HD
ENDBRANCH  26  33
ENDBRANCH  25  30
ENDBRANCH   1  25
TORSDOF 7
ENDMDL
MODEL 9
REMARK VINA RESULT:      -8.1      4.620      9.075
REMARK  Name = 
REMARK  7 active torsions:
REMARK  status: ('A' for Active; 'I' for Inactive)
REMARK    1  A    between atoms: C_2  and  C_4
REMARK    2  A    between atoms: C_8  and  C_9
REMARK    3  A    between atoms: C_9  and  N_10
REMARK    4  A    between atoms: C_13  and  N_14
REMARK    5  A    between atoms: N_14  and  S_15
REMARK    6  A    between atoms: S_15  and  C_18
REMARK    7  A    between atoms: C_21  and  C_22
REMARK                            x       y       z     vdW  Elec       q    Type
REMARK                         _______ _______ _______ _____ _____    ______ ____
ROOT
ATOM      1  N   UNL     1       2.421   7.760  18.847  0.00  0.00    +0.000 N 
ATOM      2  C   UNL     1       2.132   7.436  20.221  0.00  0.00    +0.000 C 
ATOM      3  C   UNL     1       0.880   8.239  20.518  0.00  0.00    +0.000 C 
ATOM      4  C   UNL     1       1.047   9.476  19.649  0.00  0.00    +0.000 C 
ATOM      5  C   UNL     1       1.752   8.905  18.428  0.00  0.00    +0.000 C 
ATOM      6  O   UNL     1       1.781   9.395  17.309  0.00  0.00    +0.000 OA
ENDROOT
BRANCH   4   7
ATOM      7  N   UNL     1      -0.210  10.158  19.381  0.00  0.00    +0.000 NA
ATOM      8  H   UNL     1      -0.992   9.648  18.972  0.00  0.00    +0.000 HD
BRANCH   7   9
ATOM      9  S   UNL     1      -0.583  11.594  20.145  0.00  0.00    +0.000 S 
ATOM     10  O   UNL     1      -1.725  12.149  19.458  0.00  0.00    +0.000 OA
ATOM     11  O   UNL     1      -0.607  11.346  21.569  0.00  0.00    +0.000 OA
BRANCH   9  12
ATOM     12  C   UNL     1       0.817  12.626  19.785  0.00  0.00    +0.000 A 
ATOM     13  C   UNL     1       1.598  13.110  20.827  0.00  0.00    +0.000 A 
ATOM     14  C   UNL     1       2.735  13.882  20.536  0.00  0.00    +0.000 A 
ATOM     15  C   UNL     1       3.125  14.162  19.211  0.00  0.00    +0.000 A 
ATOM     16  C   UNL     1       2.289  13.680  18.179  0.00  0.00    +0.000 A 
ATOM     17  C   UNL     1       1.146  12.921  18.460  0.00  0.00    +0.000 A 
BRANCH  15  18
ATOM     18  C   UNL     1       4.374  14.900  18.908  0.00  0.00    +0.000 A 
ATOM     19  C   UNL     1       4.643  16.142  19.509  0.00  0.00    +0.000 A 
ATOM     20  C   UNL     1       5.832  16.830  19.250  0.00  0.00    +0.000 A 
ATOM     21  N   UNL     1       6.792  16.312  18.406  0.00  0.00    +0.000 N 
ATOM     22  O   UNL     1       7.870  16.937  18.185  0.00  0.00    +0.000 OA
ATOM     23  C   UNL     1       6.544  15.092  17.810  0.00  0.00    +0.000 A 
ATOM     24  C   UNL     1       5.356  14.389  18.044  0.00  0.00    +0.000 A 
ENDBRANCH  15  18
ENDBRANCH   9  12
ENDBRANCH   7   9
ENDBRANCH   4   7
BRANCH   1  25
ATOM     25  C   UNL     1       3.500   7.126  18.113  0.00  0.00    +0.000 C 
BRANCH  25  30
ATOM     26  C   UNL     1       2.026   3.619  18.352  0.00  0.00    +0.000 A 
ATOM     27  C   UNL     1       2.938   2.882  17.591  0.00  0.00    +0.000 A 
ATOM     28  C   UNL     1       4.012   3.524  16.976  0.00  0.00    +0.000 A 
ATOM     29  C   UNL     1       4.193   4.898  17.145  0.00  0.00    +0.000 A 
ATOM     30  C   UNL     1       3.294   5.648  17.920  0.00  0.00    +0.000 A 
ATOM     31  C   UNL     1       2.190   5.001  18.500  0.00  0.00    +0.000 A 
BRANCH  26  33
ATOM     32  N   UNL     1       0.320   1.937  18.453  0.00  0.00    +0.000 NA
ATOM     33  C   UNL     1       0.915   2.918  19.050  0.00  0.00    +0.000 C 
ATOM     34  N   UNL     1       0.529   3.303  20.299  0.00  0.00    +0.000 N 
ATOM     35  H   UNL     1      -0.374   1.523  19.078  0.00  0.00    +0.000 HD
ATOM     36  H   UNL     1      -0.403   3.017  20.578  0.00  0.00    +0.000 HD
ATOM     37  H   UNL     1       0.708   4.277  20.534  0.00  0.00    +0.000 HD
ENDBRANCH  26  33
ENDBRANCH  25  30
ENDBRANCH   1  25
TORSDOF 7
ENDMDL
