MODEL 1
REMARK VINA RESULT:      -6.5      0.000      0.000
REMARK  Name = 
REMARK  7 active torsions:
REMARK  status: ('A' for Active; 'I' for Inactive)
REMARK    1  A    between atoms: C_1  and  O_2
REMARK    2  A    between atoms: O_2  and  C_3
REMARK    3  A    between atoms: C_6  and  N_7
REMARK    4  A    between atoms: C_8  and  C_9
REMARK    5  A    between atoms: C_11  and  C_12
REMARK    6  A    between atoms: C_13  and  C_14
REMARK    7  A    between atoms: C_14  and  C_15
REMARK                            x       y       z     vdW  Elec       q    Type
REMARK                         _______ _______ _______ _____ _____    ______ ____
ROOT
ATOM      1  N   UNL     1       3.980   5.590  18.252  0.00  0.00    +0.000 N 
ATOM      2  C   UNL     1       3.335   6.840  18.353  0.00  0.00    +0.000 A 
ATOM      3  C   UNL     1       3.495   7.938  17.325  0.00  0.00    +0.000 C 
ATOM      4  C   UNL     1       2.470   7.091  19.344  0.00  0.00    +0.000 A 
ATOM      5  C   UNL     1       2.010   6.089  20.272  0.00  0.00    +0.000 A 
ATOM      6  C   UNL     1       0.908   6.603  21.162  0.00  0.00    +0.000 C 
ATOM      7  C   UNL     1       2.488   4.829  20.182  0.00  0.00    +0.000 A 
ATOM      8  C   UNL     1       3.701   4.575  19.244  0.00  0.00    +0.000 A 
ATOM      9  S   UNL     1       4.740   3.251  19.553  0.00  0.00    +0.000 S 
ENDROOT
BRANCH   1  13
ATOM     10  C   UNL     1       6.929   5.136  15.162  0.00  0.00    +0.000 A 
ATOM     11  C   UNL     1       7.210   5.866  16.311  0.00  0.00    +0.000 A 
ATOM     12  C   UNL     1       6.276   5.941  17.348  0.00  0.00    +0.000 A 
ATOM     13  C   UNL     1       4.997   5.371  17.227  0.00  0.00    +0.000 A 
ATOM     14  C   UNL     1       4.726   4.658  16.047  0.00  0.00    +0.000 A 
ATOM     15  C   UNL     1       5.685   4.525  15.032  0.00  0.00    +0.000 A 
BRANCH  10  17
ATOM     16  C   UNL     1       7.478   4.957  12.875  0.00  0.00    +0.000 C 
ATOM     17  O   UNL     1       7.914   5.159  14.213  0.00  0.00    +0.000 OA
ENDBRANCH  10  17
ENDBRANCH   1  13
BRANCH   7  18
ATOM     18  C   UNL     1       1.847   3.665  20.913  0.00  0.00    +0.000 C 
ATOM     19  C   UNL     1       0.844   2.738  20.263  0.00  0.00    +0.000 C 
ATOM     20  O   UNL     1       2.148   3.455  22.093  0.00  0.00    +0.000 OA
ENDBRANCH   7  18
TORSDOF 3
ENDMDL
MODEL 2
REMARK VINA RESULT:      -6.1      0.242      1.099
REMARK  Name = 
REMARK  7 active torsions:
REMARK  status: ('A' for Active; 'I' for Inactive)
REMARK    1  A    between atoms: C_1  and  O_2
REMARK    2  A    between atoms: O_2  and  C_3
REMARK    3  A    between atoms: C_6  and  N_7
REMARK    4  A    between atoms: C_8  and  C_9
REMARK    5  A    between atoms: C_11  and  C_12
REMARK    6  A    between atoms: C_13  and  C_14
REMARK    7  A    between atoms: C_14  and  C_15
REMARK                            x       y       z     vdW  Elec       q    Type
REMARK                         _______ _______ _______ _____ _____    ______ ____
ROOT
ATOM      1  N   UNL     1       3.891   5.836  18.302  0.00  0.00    +0.000 N 
ATOM      2  C   UNL     1       3.216   7.068  18.425  0.00  0.00    +0.000 A 
ATOM      3  C   UNL     1       3.342   8.183  17.412  0.00  0.00    +0.000 C 
ATOM      4  C   UNL     1       2.355   7.286  19.427  0.00  0.00    +0.000 A 
ATOM      5  C   UNL     1       1.928   6.260  20.345  0.00  0.00    +0.000 A 
ATOM      6  C   UNL     1       0.821   6.736  21.252  0.00  0.00    +0.000 C 
ATOM      7  C   UNL     1       2.435   5.013  20.235  0.00  0.00    +0.000 A 
ATOM      8  C   UNL     1       3.645   4.801  19.283  0.00  0.00    +0.000 A 
ATOM      9  S   UNL     1       4.718   3.498  19.564  0.00  0.00    +0.000 S 
ENDROOT
BRANCH   1  13
ATOM     10  C   UNL     1       6.908   5.113  15.332  0.00  0.00    +0.000 A 
ATOM     11  C   UNL     1       5.633   4.577  15.195  0.00  0.00    +0.000 A 
ATOM     12  C   UNL     1       4.633   4.883  16.121  0.00  0.00    +0.000 A 
ATOM     13  C   UNL     1       4.904   5.655  17.265  0.00  0.00    +0.000 A 
ATOM     14  C   UNL     1       6.205   6.167  17.396  0.00  0.00    +0.000 A 
ATOM     15  C   UNL     1       7.193   5.916  16.432  0.00  0.00    +0.000 A 
BRANCH  10  17
ATOM     16  C   UNL     1       7.386   4.922  13.029  0.00  0.00    +0.000 C 
ATOM     17  O   UNL     1       7.801   4.719  14.373  0.00  0.00    +0.000 OA
ENDBRANCH  10  17
ENDBRANCH   1  13
BRANCH   7  18
ATOM     18  C   UNL     1       1.828   3.825  20.955  0.00  0.00    +0.000 C 
ATOM     19  C   UNL     1       0.774   2.935  20.332  0.00  0.00    +0.000 C 
ATOM     20  O   UNL     1       2.202   3.561  22.103  0.00  0.00    +0.000 OA
ENDBRANCH   7  18
TORSDOF 3
ENDMDL
MODEL 3
REMARK VINA RESULT:      -6.1      1.128      1.176
REMARK  Name = 
REMARK  7 active torsions:
REMARK  status: ('A' for Active; 'I' for Inactive)
REMARK    1  A    between atoms: C_1  and  O_2
REMARK    2  A    between atoms: O_2  and  C_3
REMARK    3  A    between atoms: C_6  and  N_7
REMARK    4  A    between atoms: C_8  and  C_9
REMARK    5  A    between atoms: C_11  and  C_12
REMARK    6  A    between atoms: C_13  and  C_14
REMARK    7  A    between atoms: C_14  and  C_15
REMARK                            x       y       z     vdW  Elec       q    Type
REMARK                         _______ _______ _______ _____ _____    ______ ____
ROOT
ATOM      1  N   UNL     1       3.945   5.031  17.760  0.00  0.00    +0.000 N 
ATOM      2  C   UNL     1       3.625   6.354  18.129  0.00  0.00    +0.000 A 
ATOM      3  C   UNL     1       4.038   7.561  17.318  0.00  0.00    +0.000 C 
ATOM      4  C   UNL     1       2.859   6.605  19.198  0.00  0.00    +0.000 A 
ATOM      5  C   UNL     1       2.178   5.579  19.948  0.00  0.00    +0.000 A 
ATOM      6  C   UNL     1       1.245   6.156  20.981  0.00  0.00    +0.000 C 
ATOM      7  C   UNL     1       2.334   4.284  19.597  0.00  0.00    +0.000 A 
ATOM      8  C   UNL     1       3.438   3.938  18.560  0.00  0.00    +0.000 A 
ATOM      9  S   UNL     1       4.126   2.371  18.554  0.00  0.00    +0.000 S 
ENDROOT
BRANCH   1  13
ATOM     10  C   UNL     1       6.663   4.504  14.476  0.00  0.00    +0.000 A 
ATOM     11  C   UNL     1       7.126   4.895  15.726  0.00  0.00    +0.000 A 
ATOM     12  C   UNL     1       6.249   4.985  16.810  0.00  0.00    +0.000 A 
ATOM     13  C   UNL     1       4.867   4.781  16.654  0.00  0.00    +0.000 A 
ATOM     14  C   UNL     1       4.416   4.410  15.377  0.00  0.00    +0.000 A 
ATOM     15  C   UNL     1       5.304   4.254  14.302  0.00  0.00    +0.000 A 
BRANCH  10  17
ATOM     16  C   UNL     1       7.160   4.061  12.212  0.00  0.00    +0.000 C 
ATOM     17  O   UNL     1       7.614   4.476  13.494  0.00  0.00    +0.000 OA
ENDBRANCH  10  17
ENDBRANCH   1  13
BRANCH   7  18
ATOM     18  C   UNL     1       1.436   3.186  20.133  0.00  0.00    +0.000 C 
ATOM     19  C   UNL     1       1.573   2.620  21.531  0.00  0.00    +0.000 C 
ATOM     20  O   UNL     1       0.550   2.723  19.407  0.00  0.00    +0.000 OA
ENDBRANCH   7  18
TORSDOF 3
ENDMDL
MODEL 4
REMARK VINA RESULT:      -5.8      1.273      1.680
REMARK  Name = 
REMARK  7 active torsions:
REMARK  status: ('A' for Active; 'I' for Inactive)
REMARK    1  A    between atoms: C_1  and  O_2
REMARK    2  A    between atoms: O_2  and  C_3
REMARK    3  A    between atoms: C_6  and  N_7
REMARK    4  A    between atoms: C_8  and  C_9
REMARK    5  A    between atoms: C_11  and  C_12
REMARK    6  A    between atoms: C_13  and  C_14
REMARK    7  A    between atoms: C_14  and  C_15
REMARK                            x       y       z     vdW  Elec       q    Type
REMARK                         _______ _______ _______ _____ _____    ______ ____
ROOT
ATOM      1  N   UNL     1       3.934   5.079  17.680  0.00  0.00    +0.000 N 
ATOM      2  C   UNL     1       3.634   6.388  18.112  0.00  0.00    +0.000 A 
ATOM      3  C   UNL     1       4.054   7.625  17.351  0.00  0.00    +0.000 C 
ATOM      4  C   UNL     1       2.881   6.600  19.199  0.00  0.00    +0.000 A 
ATOM      5  C   UNL     1       2.195   5.550  19.908  0.00  0.00    +0.000 A 
ATOM      6  C   UNL     1       1.278   6.091  20.975  0.00  0.00    +0.000 C 
ATOM      7  C   UNL     1       2.331   4.270  19.498  0.00  0.00    +0.000 A 
ATOM      8  C   UNL     1       3.421   3.957  18.435  0.00  0.00    +0.000 A 
ATOM      9  S   UNL     1       4.089   2.384  18.353  0.00  0.00    +0.000 S 
ENDROOT
BRANCH   1  13
ATOM     10  C   UNL     1       6.585   4.252  14.404  0.00  0.00    +0.000 A 
ATOM     11  C   UNL     1       5.208   4.150  14.247  0.00  0.00    +0.000 A 
ATOM     12  C   UNL     1       4.349   4.500  15.292  0.00  0.00    +0.000 A 
ATOM     13  C   UNL     1       4.842   4.868  16.556  0.00  0.00    +0.000 A 
ATOM     14  C   UNL     1       6.237   4.942  16.699  0.00  0.00    +0.000 A 
ATOM     15  C   UNL     1       7.102   4.655  15.632  0.00  0.00    +0.000 A 
BRANCH  10  17
ATOM     16  C   UNL     1       6.562   3.504  12.167  0.00  0.00    +0.000 C 
ATOM     17  O   UNL     1       7.317   3.859  13.317  0.00  0.00    +0.000 OA
ENDBRANCH  10  17
ENDBRANCH   1  13
BRANCH   7  18
ATOM     18  C   UNL     1       1.424   3.159  19.994  0.00  0.00    +0.000 C 
ATOM     19  C   UNL     1       1.462   2.640  21.415  0.00  0.00    +0.000 C 
ATOM     20  O   UNL     1       0.616   2.647  19.213  0.00  0.00    +0.000 OA
ENDBRANCH   7  18
TORSDOF 3
ENDMDL
MODEL 5
REMARK VINA RESULT:      -5.5      2.369      3.658
REMARK  Name = 
REMARK  7 active torsions:
REMARK  status: ('A' for Active; 'I' for Inactive)
REMARK    1  A    between atoms: C_1  and  O_2
REMARK    2  A    between atoms: O_2  and  C_3
REMARK    3  A    between atoms: C_6  and  N_7
REMARK    4  A    between atoms: C_8  and  C_9
REMARK    5  A    between atoms: C_11  and  C_12
REMARK    6  A    between atoms: C_13  and  C_14
REMARK    7  A    between atoms: C_14  and  C_15
REMARK                            x       y       z     vdW  Elec       q    Type
REMARK                         _______ _______ _______ _____ _____    ______ ____
ROOT
ATOM      1  N   UNL     1       4.439   4.780  18.204  0.00  0.00    +0.000 N 
ATOM      2  C   UNL     1       4.421   3.690  17.309  0.00  0.00    +0.000 A 
ATOM      3  C   UNL     1       5.557   3.383  16.360  0.00  0.00    +0.000 C 
ATOM      4  C   UNL     1       3.410   2.813  17.312  0.00  0.00    +0.000 A 
ATOM      5  C   UNL     1       2.364   2.806  18.304  0.00  0.00    +0.000 A 
ATOM      6  C   UNL     1       1.464   1.605  18.172  0.00  0.00    +0.000 C 
ATOM      7  C   UNL     1       2.360   3.747  19.273  0.00  0.00    +0.000 A 
ATOM      8  C   UNL     1       3.339   4.946  19.129  0.00  0.00    +0.000 A 
ATOM      9  S   UNL     1       2.966   6.433  19.891  0.00  0.00    +0.000 S 
ENDROOT
BRANCH   1  13
ATOM     10  C   UNL     1       7.609   7.644  17.764  0.00  0.00    +0.000 A 
ATOM     11  C   UNL     1       6.420   7.787  17.059  0.00  0.00    +0.000 A 
ATOM     12  C   UNL     1       5.363   6.898  17.269  0.00  0.00    +0.000 A 
ATOM     13  C   UNL     1       5.496   5.784  18.116  0.00  0.00    +0.000 A 
ATOM     14  C   UNL     1       6.714   5.646  18.800  0.00  0.00    +0.000 A 
ATOM     15  C   UNL     1       7.755   6.575  18.643  0.00  0.00    +0.000 A 
BRANCH  10  17
ATOM     16  C   UNL     1       8.606   9.720  18.278  0.00  0.00    +0.000 C 
ATOM     17  O   UNL     1       8.574   8.563  17.453  0.00  0.00    +0.000 OA
ENDBRANCH  10  17
ENDBRANCH   1  13
BRANCH   7  18
ATOM     18  C   UNL     1       1.484   3.636  20.506  0.00  0.00    +0.000 C 
ATOM     19  C   UNL     1       1.878   2.831  21.726  0.00  0.00    +0.000 C 
ATOM     20  O   UNL     1       0.397   4.224  20.529  0.00  0.00    +0.000 OA
ENDBRANCH   7  18
TORSDOF 3
ENDMDL
MODEL 6
REMARK VINA RESULT:      -5.5      2.408      3.632
REMARK  Name = 
REMARK  7 active torsions:
REMARK  status: ('A' for Active; 'I' for Inactive)
REMARK    1  A    between atoms: C_1  and  O_2
REMARK    2  A    between atoms: O_2  and  C_3
REMARK    3  A    between atoms: C_6  and  N_7
REMARK    4  A    between atoms: C_8  and  C_9
REMARK    5  A    between atoms: C_11  and  C_12
REMARK    6  A    between atoms: C_13  and  C_14
REMARK    7  A    between atoms: C_14  and  C_15
REMARK                            x       y       z     vdW  Elec       q    Type
REMARK                         _______ _______ _______ _____ _____    ______ ____
ROOT
ATOM      1  N   UNL     1       4.553   4.745  18.107  0.00  0.00    +0.000 N 
ATOM      2  C   UNL     1       4.464   3.651  17.221  0.00  0.00    +0.000 A 
ATOM      3  C   UNL     1       5.562   3.286  16.247  0.00  0.00    +0.000 C 
ATOM      4  C   UNL     1       3.414   2.821  17.254  0.00  0.00    +0.000 A 
ATOM      5  C   UNL     1       2.393   2.869  18.270  0.00  0.00    +0.000 A 
ATOM      6  C   UNL     1       1.436   1.709  18.168  0.00  0.00    +0.000 C 
ATOM      7  C   UNL     1       2.455   3.815  19.232  0.00  0.00    +0.000 A 
ATOM      8  C   UNL     1       3.484   4.967  19.056  0.00  0.00    +0.000 A 
ATOM      9  S   UNL     1       3.198   6.474  19.815  0.00  0.00    +0.000 S 
ENDROOT
BRANCH   1  13
ATOM     10  C   UNL     1       7.721   7.640  17.929  0.00  0.00    +0.000 A 
ATOM     11  C   UNL     1       7.812   6.538  18.770  0.00  0.00    +0.000 A 
ATOM     12  C   UNL     1       6.816   5.558  18.763  0.00  0.00    +0.000 A 
ATOM     13  C   UNL     1       5.653   5.699  17.986  0.00  0.00    +0.000 A 
ATOM     14  C   UNL     1       5.570   6.832  17.161  0.00  0.00    +0.000 A 
ATOM     15  C   UNL     1       6.600   7.785  17.116  0.00  0.00    +0.000 A 
BRANCH  10  17
ATOM     16  C   UNL     1       8.357   9.903  18.134  0.00  0.00    +0.000 C 
ATOM     17  O   UNL     1       8.746   8.539  18.046  0.00  0.00    +0.000 OA
ENDBRANCH  10  17
ENDBRANCH   1  13
BRANCH   7  18
ATOM     18  C   UNL     1       1.605   3.753  20.486  0.00  0.00    +0.000 C 
ATOM     19  C   UNL     1       2.002   2.955  21.710  0.00  0.00    +0.000 C 
ATOM     20  O   UNL     1       0.538   4.375  20.523  0.00  0.00    +0.000 OA
ENDBRANCH   7  18
TORSDOF 3
ENDMDL
MODEL 7
REMARK VINA RESULT:      -5.4      3.406      7.349
REMARK  Name = 
REMARK  7 active torsions:
REMARK  status: ('A' for Active; 'I' for Inactive)
REMARK    1  A    between atoms: C_1  and  O_2
REMARK    2  A    between atoms: O_2  and  C_3
REMARK    3  A    between atoms: C_6  and  N_7
REMARK    4  A    between atoms: C_8  and  C_9
REMARK    5  A    between atoms: C_11  and  C_12
REMARK    6  A    between atoms: C_13  and  C_14
REMARK    7  A    between atoms: C_14  and  C_15
REMARK                            x       y       z     vdW  Elec       q    Type
REMARK                         _______ _______ _______ _____ _____    ______ ____
ROOT
ATOM      1  N   UNL     1       2.018   8.069  19.561  0.00  0.00    +0.000 N 
ATOM      2  C   UNL     1       2.361   8.757  18.379  0.00  0.00    +0.000 A 
ATOM      3  C   UNL     1       2.023  10.211  18.141  0.00  0.00    +0.000 C 
ATOM      4  C   UNL     1       3.086   8.163  17.422  0.00  0.00    +0.000 A 
ATOM      5  C   UNL     1       3.699   6.869  17.576  0.00  0.00    +0.000 A 
ATOM      6  C   UNL     1       4.602   6.527  16.419  0.00  0.00    +0.000 C 
ATOM      7  C   UNL     1       3.521   6.179  18.724  0.00  0.00    +0.000 A 
ATOM      8  C   UNL     1       2.455   6.700  19.728  0.00  0.00    +0.000 A 
ATOM      9  S   UNL     1       1.721   5.605  20.819  0.00  0.00    +0.000 S 
ENDROOT
BRANCH   1  13
ATOM     10  C   UNL     1      -0.474  10.099  22.411  0.00  0.00    +0.000 A 
ATOM     11  C   UNL     1      -0.773  10.132  21.054  0.00  0.00    +0.000 A 
ATOM     12  C   UNL     1      -0.007   9.402  20.142  0.00  0.00    +0.000 A 
ATOM     13  C   UNL     1       1.140   8.697  20.546  0.00  0.00    +0.000 A 
ATOM     14  C   UNL     1       1.439   8.696  21.918  0.00  0.00    +0.000 A 
ATOM     15  C   UNL     1       0.632   9.374  22.846  0.00  0.00    +0.000 A 
BRANCH  10  17
ATOM     16  C   UNL     1      -1.919  11.960  22.536  0.00  0.00    +0.000 C 
ATOM     17  O   UNL     1      -1.284  10.872  23.196  0.00  0.00    +0.000 OA
ENDBRANCH  10  17
ENDBRANCH   1  13
BRANCH   7  18
ATOM     18  C   UNL     1       4.359   4.967  19.080  0.00  0.00    +0.000 C 
ATOM     19  C   UNL     1       3.981   3.558  18.677  0.00  0.00    +0.000 C 
ATOM     20  O   UNL     1       5.400   5.123  19.729  0.00  0.00    +0.000 OA
ENDBRANCH   7  18
TORSDOF 3
ENDMDL
MODEL 8
REMARK VINA RESULT:      -5.4      9.419     11.426
REMARK  Name = 
REMARK  7 active torsions:
REMARK  status: ('A' for Active; 'I' for Inactive)
REMARK    1  A    between atoms: C_1  and  O_2
REMARK    2  A    between atoms: O_2  and  C_3
REMARK    3  A    between atoms: C_6  and  N_7
REMARK    4  A    between atoms: C_8  and  C_9
REMARK    5  A    between atoms: C_11  and  C_12
REMARK    6  A    between atoms: C_13  and  C_14
REMARK    7  A    between atoms: C_14  and  C_15
REMARK                            x       y       z     vdW  Elec       q    Type
REMARK                         _______ _______ _______ _____ _____    ______ ____
ROOT
ATOM      1  N   UNL     1       9.926  14.039  18.610  0.00  0.00    +0.000 N 
ATOM      2  C   UNL     1      11.178  14.368  18.050  0.00  0.00    +0.000 A 
ATOM      3  C   UNL     1      12.031  13.375  17.295  0.00  0.00    +0.000 C 
ATOM      4  C   UNL     1      11.644  15.623  18.094  0.00  0.00    +0.000 A 
ATOM      5  C   UNL     1      10.867  16.745  18.556  0.00  0.00    +0.000 A 
ATOM      6  C   UNL     1      11.572  18.057  18.326  0.00  0.00    +0.000 C 
ATOM      7  C   UNL     1       9.610  16.544  19.008  0.00  0.00    +0.000 A 
ATOM      8  C   UNL     1       9.147  15.080  19.246  0.00  0.00    +0.000 A 
ATOM      9  S   UNL     1       7.903  14.764  20.379  0.00  0.00    +0.000 S 
ENDROOT
BRANCH   1  13
ATOM     10  C   UNL     1       8.799   9.895  18.623  0.00  0.00    +0.000 A 
ATOM     11  C   UNL     1       9.663  10.399  19.588  0.00  0.00    +0.000 A 
ATOM     12  C   UNL     1       9.960  11.764  19.628  0.00  0.00    +0.000 A 
ATOM     13  C   UNL     1       9.481  12.648  18.645  0.00  0.00    +0.000 A 
ATOM     14  C   UNL     1       8.629  12.113  17.666  0.00  0.00    +0.000 A 
ATOM     15  C   UNL     1       8.276  10.755  17.663  0.00  0.00    +0.000 A 
BRANCH  10  17
ATOM     16  C   UNL     1       7.772   8.001  17.661  0.00  0.00    +0.000 C 
ATOM     17  O   UNL     1       8.607   8.541  18.677  0.00  0.00    +0.000 OA
ENDBRANCH  10  17
ENDBRANCH   1  13
BRANCH   7  18
ATOM     18  C   UNL     1       8.635  17.685  19.227  0.00  0.00    +0.000 C 
ATOM     19  C   UNL     1       8.617  18.519  20.490  0.00  0.00    +0.000 C 
ATOM     20  O   UNL     1       7.815  17.955  18.344  0.00  0.00    +0.000 OA
ENDBRANCH   7  18
TORSDOF 3
ENDMDL
MODEL 9
REMARK VINA RESULT:      -5.3      3.201      7.145
REMARK  Name = 
REMARK  7 active torsions:
REMARK  status: ('A' for Active; 'I' for Inactive)
REMARK    1  A    between atoms: C_1  and  O_2
REMARK    2  A    between atoms: O_2  and  C_3
REMARK    3  A    between atoms: C_6  and  N_7
REMARK    4  A    between atoms: C_8  and  C_9
REMARK    5  A    between atoms: C_11  and  C_12
REMARK    6  A    between atoms: C_13  and  C_14
REMARK    7  A    between atoms: C_14  and  C_15
REMARK                            x       y       z     vdW  Elec       q    Type
REMARK                         _______ _______ _______ _____ _____    ______ ____
ROOT
ATOM      1  N   UNL     1       2.186   7.841  19.451  0.00  0.00    +0.000 N 
ATOM      2  C   UNL     1       2.564   8.435  18.229  0.00  0.00    +0.000 A 
ATOM      3  C   UNL     1       2.281   9.881  17.891  0.00  0.00    +0.000 C 
ATOM      4  C   UNL     1       3.275   7.753  17.322  0.00  0.00    +0.000 A 
ATOM      5  C   UNL     1       3.840   6.451  17.569  0.00  0.00    +0.000 A 
ATOM      6  C   UNL     1       4.740   6.000  16.448  0.00  0.00    +0.000 C 
ATOM      7  C   UNL     1       3.626   5.847  18.759  0.00  0.00    +0.000 A 
ATOM      8  C   UNL     1       2.571   6.472  19.714  0.00  0.00    +0.000 A 
ATOM      9  S   UNL     1       1.788   5.479  20.867  0.00  0.00    +0.000 S 
ENDROOT
BRANCH   1  13
ATOM     10  C   UNL     1      -0.424   9.783  22.256  0.00  0.00    +0.000 A 
ATOM     11  C   UNL     1       0.787   9.240  22.670  0.00  0.00    +0.000 A 
ATOM     12  C   UNL     1       1.668   8.684  21.739  0.00  0.00    +0.000 A 
ATOM     13  C   UNL     1       1.323   8.564  20.381  0.00  0.00    +0.000 A 
ATOM     14  C   UNL     1       0.085   9.098  19.989  0.00  0.00    +0.000 A 
ATOM     15  C   UNL     1      -0.774   9.718  20.910  0.00  0.00    +0.000 A 
BRANCH  10  17
ATOM     16  C   UNL     1      -1.670  11.607  23.083  0.00  0.00    +0.000 C 
ATOM     17  O   UNL     1      -1.206  10.276  23.264  0.00  0.00    +0.000 OA
ENDBRANCH  10  17
ENDBRANCH   1  13
BRANCH   7  18
ATOM     18  C   UNL     1       4.417   4.632  19.205  0.00  0.00    +0.000 C 
ATOM     19  C   UNL     1       3.943   3.213  18.976  0.00  0.00    +0.000 C 
ATOM     20  O   UNL     1       5.497   4.795  19.783  0.00  0.00    +0.000 OA
ENDBRANCH   7  18
TORSDOF 3
ENDMDL
