MODEL 1
REMARK VINA RESULT:      -7.5      0.000      0.000
REMARK  Name = 
REMARK  3 active torsions:
REMARK  status: ('A' for Active; 'I' for Inactive)
REMARK    1  A    between atoms: C_1  and  N_2
REMARK    2  A    between atoms: C_11  and  O_12
REMARK    3  A    between atoms: O_12  and  C_13
REMARK                            x       y       z     vdW  Elec       q    Type
REMARK                         _______ _______ _______ _____ _____    ______ ____
ROOT
ATOM      1  C   UNL     1       8.939   5.726  12.631  0.00  0.00    +0.000 C 
ATOM      2  N   UNL     1       7.710   5.091  13.057  0.00  0.00    +0.000 N 
ATOM      3  C   UNL     1       7.023   4.228  12.235  0.00  0.00    +0.000 A 
ATOM      4  C   UNL     1       5.915   3.605  12.657  0.00  0.00    +0.000 A 
ATOM      5 CL   UNL     1       5.062   2.564  11.571  0.00  0.00    +0.000 Cl
ATOM      6  N   UNL     1       5.366   3.739  13.905  0.00  0.00    +0.000 NA
ATOM      7  C   UNL     1       5.937   4.580  14.727  0.00  0.00    +0.000 A 
ATOM      8  N   UNL     1       5.420   4.820  15.992  0.00  0.00    +0.000 N 
ATOM      9  C   UNL     1       4.981   6.170  16.325  0.00  0.00    +0.000 C 
ATOM     10  C   UNL     1       5.371   6.450  17.765  0.00  0.00    +0.000 C 
ATOM     11  C   UNL     1       4.736   5.420  18.711  0.00  0.00    +0.000 C 
ATOM     12  C   UNL     1       5.104   3.999  18.248  0.00  0.00    +0.000 C 
ATOM     13  C   UNL     1       4.765   3.774  16.769  0.00  0.00    +0.000 C 
ATOM     14  C   UNL     1       7.248   5.349  14.340  0.00  0.00    +0.000 A 
ATOM     15  O   UNL     1       7.796   6.090  15.145  0.00  0.00    +0.000 OA
ENDROOT
BRANCH  11  16
ATOM     16  O   UNL     1       3.303   5.509  18.707  0.00  0.00    +0.000 OA
BRANCH  16  17
ATOM     17  C   UNL     1       2.585   4.611  19.453  0.00  0.00    +0.000 A 
ATOM     18  C   UNL     1       2.824   4.353  20.804  0.00  0.00    +0.000 A 
ATOM     19  C   UNL     1       1.997   3.486  21.507  0.00  0.00    +0.000 A 
ATOM     20  F   UNL     1       2.226   3.285  22.813  0.00  0.00    +0.000 F 
ATOM     21  C   UNL     1       0.937   2.838  20.891  0.00  0.00    +0.000 A 
ATOM     22  C   UNL     1       0.695   3.068  19.539  0.00  0.00    +0.000 A 
ATOM     23  C   UNL     1       1.509   3.958  18.825  0.00  0.00    +0.000 A 
ATOM     24 CL   UNL     1       1.161   4.204  17.149  0.00  0.00    +0.000 Cl
ENDBRANCH  16  17
ENDBRANCH  11  16
TORSDOF 2
ENDMDL
MODEL 2
REMARK VINA RESULT:      -7.1      3.371      7.811
REMARK  Name = 
REMARK  3 active torsions:
REMARK  status: ('A' for Active; 'I' for Inactive)
REMARK    1  A    between atoms: C_1  and  N_2
REMARK    2  A    between atoms: C_11  and  O_12
REMARK    3  A    between atoms: O_12  and  C_13
REMARK                            x       y       z     vdW  Elec       q    Type
REMARK                         _______ _______ _______ _____ _____    ______ ____
ROOT
ATOM      1  C   UNL     1       2.114   3.149  21.513  0.00  0.00    +0.000 C 
ATOM      2  N   UNL     1       2.464   4.278  20.679  0.00  0.00    +0.000 N 
ATOM      3  C   UNL     1       1.843   5.498  20.820  0.00  0.00    +0.000 A 
ATOM      4  C   UNL     1       2.210   6.551  20.079  0.00  0.00    +0.000 A 
ATOM      5 CL   UNL     1       1.368   8.051  20.263  0.00  0.00    +0.000 Cl
ATOM      6  N   UNL     1       3.209   6.542  19.141  0.00  0.00    +0.000 NA
ATOM      7  C   UNL     1       3.813   5.406  18.916  0.00  0.00    +0.000 A 
ATOM      8  N   UNL     1       4.800   5.290  17.949  0.00  0.00    +0.000 N 
ATOM      9  C   UNL     1       4.584   4.376  16.833  0.00  0.00    +0.000 C 
ATOM     10  C   UNL     1       5.904   3.696  16.518  0.00  0.00    +0.000 C 
ATOM     11  C   UNL     1       6.982   4.735  16.173  0.00  0.00    +0.000 C 
ATOM     12  C   UNL     1       7.087   5.766  17.311  0.00  0.00    +0.000 C 
ATOM     13  C   UNL     1       5.724   6.379  17.653  0.00  0.00    +0.000 C 
ATOM     14  C   UNL     1       3.474   4.114  19.740  0.00  0.00    +0.000 A 
ATOM     15  O   UNL     1       4.090   3.075  19.550  0.00  0.00    +0.000 OA
ENDROOT
BRANCH  11  16
ATOM     16  O   UNL     1       6.658   5.456  14.974  0.00  0.00    +0.000 OA
BRANCH  16  17
ATOM     17  C   UNL     1       6.592   4.769  13.790  0.00  0.00    +0.000 A 
ATOM     18  C   UNL     1       5.525   3.944  13.426  0.00  0.00    +0.000 A 
ATOM     19  C   UNL     1       5.499   3.348  12.172  0.00  0.00    +0.000 A 
ATOM     20  F   UNL     1       4.446   2.590  11.834  0.00  0.00    +0.000 F 
ATOM     21  C   UNL     1       6.530   3.530  11.263  0.00  0.00    +0.000 A 
ATOM     22  C   UNL     1       7.611   4.334  11.615  0.00  0.00    +0.000 A 
ATOM     23  C   UNL     1       7.638   4.960  12.869  0.00  0.00    +0.000 A 
ATOM     24 CL   UNL     1       9.005   5.945  13.251  0.00  0.00    +0.000 Cl
ENDBRANCH  16  17
ENDBRANCH  11  16
TORSDOF 2
ENDMDL
MODEL 3
REMARK VINA RESULT:      -7.1      2.521      2.888
REMARK  Name = 
REMARK  3 active torsions:
REMARK  status: ('A' for Active; 'I' for Inactive)
REMARK    1  A    between atoms: C_1  and  N_2
REMARK    2  A    between atoms: C_11  and  O_12
REMARK    3  A    between atoms: O_12  and  C_13
REMARK                            x       y       z     vdW  Elec       q    Type
REMARK                         _______ _______ _______ _____ _____    ______ ____
ROOT
ATOM      1  C   UNL     1       9.033   5.593  12.888  0.00  0.00    +0.000 C 
ATOM      2  N   UNL     1       7.744   5.020  13.213  0.00  0.00    +0.000 N 
ATOM      3  C   UNL     1       7.070   4.215  12.324  0.00  0.00    +0.000 A 
ATOM      4  C   UNL     1       5.902   3.647  12.654  0.00  0.00    +0.000 A 
ATOM      5 CL   UNL     1       5.072   2.678  11.486  0.00  0.00    +0.000 Cl
ATOM      6  N   UNL     1       5.276   3.786  13.864  0.00  0.00    +0.000 NA
ATOM      7  C   UNL     1       5.833   4.575  14.744  0.00  0.00    +0.000 A 
ATOM      8  N   UNL     1       5.243   4.817  15.976  0.00  0.00    +0.000 N 
ATOM      9  C   UNL     1       4.857   6.182  16.312  0.00  0.00    +0.000 C 
ATOM     10  C   UNL     1       5.160   6.410  17.782  0.00  0.00    +0.000 C 
ATOM     11  C   UNL     1       4.405   5.397  18.656  0.00  0.00    +0.000 C 
ATOM     12  C   UNL     1       4.726   3.968  18.184  0.00  0.00    +0.000 C 
ATOM     13  C   UNL     1       4.479   3.794  16.680  0.00  0.00    +0.000 C 
ATOM     14  C   UNL     1       7.209   5.276  14.467  0.00  0.00    +0.000 A 
ATOM     15  O   UNL     1       7.739   5.968  15.326  0.00  0.00    +0.000 OA
ENDROOT
BRANCH  11  16
ATOM     16  O   UNL     1       2.983   5.568  18.555  0.00  0.00    +0.000 OA
BRANCH  16  17
ATOM     17  C   UNL     1       2.396   6.613  19.222  0.00  0.00    +0.000 A 
ATOM     18  C   UNL     1       2.245   7.893  18.685  0.00  0.00    +0.000 A 
ATOM     19  C   UNL     1       1.566   8.873  19.397  0.00  0.00    +0.000 A 
ATOM     20  F   UNL     1       1.402  10.083  18.842  0.00  0.00    +0.000 F 
ATOM     21  C   UNL     1       1.046   8.623  20.658  0.00  0.00    +0.000 A 
ATOM     22  C   UNL     1       1.204   7.358  21.217  0.00  0.00    +0.000 A 
ATOM     23  C   UNL     1       1.867   6.353  20.499  0.00  0.00    +0.000 A 
ATOM     24 CL   UNL     1       2.034   4.803  21.244  0.00  0.00    +0.000 Cl
ENDBRANCH  16  17
ENDBRANCH  11  16
TORSDOF 2
ENDMDL
MODEL 4
REMARK VINA RESULT:      -6.7      6.088      8.638
REMARK  Name = 
REMARK  3 active torsions:
REMARK  status: ('A' for Active; 'I' for Inactive)
REMARK    1  A    between atoms: C_1  and  N_2
REMARK    2  A    between atoms: C_11  and  O_12
REMARK    3  A    between atoms: O_12  and  C_13
REMARK                            x       y       z     vdW  Elec       q    Type
REMARK                         _______ _______ _______ _____ _____    ______ ____
ROOT
ATOM      1  C   UNL     1      -0.450  13.325  22.181  0.00  0.00    +0.000 C 
ATOM      2  N   UNL     1      -0.747  12.423  21.090  0.00  0.00    +0.000 N 
ATOM      3  C   UNL     1      -1.844  12.608  20.281  0.00  0.00    +0.000 A 
ATOM      4  C   UNL     1      -2.082  11.798  19.242  0.00  0.00    +0.000 A 
ATOM      5 CL   UNL     1      -3.500  12.045  18.281  0.00  0.00    +0.000 Cl
ATOM      6  N   UNL     1      -1.290  10.743  18.871  0.00  0.00    +0.000 NA
ATOM      7  C   UNL     1      -0.254  10.475  19.620  0.00  0.00    +0.000 A 
ATOM      8  N   UNL     1       0.574   9.394  19.352  0.00  0.00    +0.000 N 
ATOM      9  C   UNL     1       0.696   8.340  20.352  0.00  0.00    +0.000 C 
ATOM     10  C   UNL     1       2.142   7.880  20.378  0.00  0.00    +0.000 C 
ATOM     11  C   UNL     1       2.577   7.375  18.995  0.00  0.00    +0.000 C 
ATOM     12  C   UNL     1       2.304   8.461  17.939  0.00  0.00    +0.000 C 
ATOM     13  C   UNL     1       0.853   8.956  17.990  0.00  0.00    +0.000 C 
ATOM     14  C   UNL     1       0.126  11.370  20.852  0.00  0.00    +0.000 A 
ATOM     15  O   UNL     1       1.131  11.133  21.508  0.00  0.00    +0.000 OA
ENDROOT
BRANCH  11  16
ATOM     16  O   UNL     1       1.839   6.207  18.601  0.00  0.00    +0.000 OA
BRANCH  16  17
ATOM     17  C   UNL     1       2.524   5.041  18.374  0.00  0.00    +0.000 A 
ATOM     18  C   UNL     1       3.610   4.933  17.504  0.00  0.00    +0.000 A 
ATOM     19  C   UNL     1       4.300   3.732  17.393  0.00  0.00    +0.000 A 
ATOM     20  F   UNL     1       5.362   3.665  16.577  0.00  0.00    +0.000 F 
ATOM     21  C   UNL     1       3.920   2.610  18.114  0.00  0.00    +0.000 A 
ATOM     22  C   UNL     1       2.827   2.694  18.973  0.00  0.00    +0.000 A 
ATOM     23  C   UNL     1       2.138   3.907  19.110  0.00  0.00    +0.000 A 
ATOM     24 CL   UNL     1       0.789   3.951  20.190  0.00  0.00    +0.000 Cl
ENDBRANCH  16  17
ENDBRANCH  11  16
TORSDOF 2
ENDMDL
MODEL 5
REMARK VINA RESULT:      -6.7      5.480      6.451
REMARK  Name = 
REMARK  3 active torsions:
REMARK  status: ('A' for Active; 'I' for Inactive)
REMARK    1  A    between atoms: C_1  and  N_2
REMARK    2  A    between atoms: C_11  and  O_12
REMARK    3  A    between atoms: O_12  and  C_13
REMARK                            x       y       z     vdW  Elec       q    Type
REMARK                         _______ _______ _______ _____ _____    ______ ____
ROOT
ATOM      1  C   UNL     1       6.173   5.205  15.978  0.00  0.00    +0.000 C 
ATOM      2  N   UNL     1       4.936   5.024  16.706  0.00  0.00    +0.000 N 
ATOM      3  C   UNL     1       4.373   3.780  16.870  0.00  0.00    +0.000 A 
ATOM      4  C   UNL     1       3.255   3.616  17.591  0.00  0.00    +0.000 A 
ATOM      5 CL   UNL     1       2.561   2.037  17.729  0.00  0.00    +0.000 Cl
ATOM      6  N   UNL     1       2.579   4.620  18.230  0.00  0.00    +0.000 NA
ATOM      7  C   UNL     1       3.027   5.838  18.081  0.00  0.00    +0.000 A 
ATOM      8  N   UNL     1       2.376   6.924  18.648  0.00  0.00    +0.000 N 
ATOM      9  C   UNL     1       1.849   7.962  17.770  0.00  0.00    +0.000 C 
ATOM     10  C   UNL     1       2.080   9.306  18.437  0.00  0.00    +0.000 C 
ATOM     11  C   UNL     1       1.398   9.355  19.813  0.00  0.00    +0.000 C 
ATOM     12  C   UNL     1       1.872   8.165  20.666  0.00  0.00    +0.000 C 
ATOM     13  C   UNL     1       1.692   6.829  19.933  0.00  0.00    +0.000 C 
ATOM     14  C   UNL     1       4.337   6.141  17.272  0.00  0.00    +0.000 A 
ATOM     15  O   UNL     1       4.769   7.283  17.191  0.00  0.00    +0.000 OA
ENDROOT
BRANCH  11  16
ATOM     16  O   UNL     1      -0.030   9.255  19.700  0.00  0.00    +0.000 OA
BRANCH  16  17
ATOM     17  C   UNL     1      -0.784  10.389  19.858  0.00  0.00    +0.000 A 
ATOM     18  C   UNL     1      -0.804  11.154  21.026  0.00  0.00    +0.000 A 
ATOM     19  C   UNL     1      -1.534  12.335  21.075  0.00  0.00    +0.000 A 
ATOM     20  F   UNL     1      -1.506  13.071  22.196  0.00  0.00    +0.000 F 
ATOM     21  C   UNL     1      -2.278  12.771  19.989  0.00  0.00    +0.000 A 
ATOM     22  C   UNL     1      -2.285  12.011  18.823  0.00  0.00    +0.000 A 
ATOM     23  C   UNL     1      -1.534  10.829  18.753  0.00  0.00    +0.000 A 
ATOM     24 CL   UNL     1      -1.583   9.926  17.280  0.00  0.00    +0.000 Cl
ENDBRANCH  16  17
ENDBRANCH  11  16
TORSDOF 2
ENDMDL
MODEL 6
REMARK VINA RESULT:      -6.6      5.779      8.350
REMARK  Name = 
REMARK  3 active torsions:
REMARK  status: ('A' for Active; 'I' for Inactive)
REMARK    1  A    between atoms: C_1  and  N_2
REMARK    2  A    between atoms: C_11  and  O_12
REMARK    3  A    between atoms: O_12  and  C_13
REMARK                            x       y       z     vdW  Elec       q    Type
REMARK                         _______ _______ _______ _____ _____    ______ ____
ROOT
ATOM      1  C   UNL     1      -0.613  12.786  22.423  0.00  0.00    +0.000 C 
ATOM      2  N   UNL     1      -0.798  12.022  21.209  0.00  0.00    +0.000 N 
ATOM      3  C   UNL     1      -1.828  12.293  20.337  0.00  0.00    +0.000 A 
ATOM      4  C   UNL     1      -1.961  11.615  19.190  0.00  0.00    +0.000 A 
ATOM      5 CL   UNL     1      -3.298  11.964  18.149  0.00  0.00    +0.000 Cl
ATOM      6  N   UNL     1      -1.119  10.622  18.763  0.00  0.00    +0.000 NA
ATOM      7  C   UNL     1      -0.143  10.275  19.560  0.00  0.00    +0.000 A 
ATOM      8  N   UNL     1       0.726   9.245  19.234  0.00  0.00    +0.000 N 
ATOM      9  C   UNL     1       0.787   8.076  20.105  0.00  0.00    +0.000 C 
ATOM     10  C   UNL     1       2.235   7.632  20.199  0.00  0.00    +0.000 C 
ATOM     11  C   UNL     1       2.795   7.306  18.806  0.00  0.00    +0.000 C 
ATOM     12  C   UNL     1       2.589   8.511  17.871  0.00  0.00    +0.000 C 
ATOM     13  C   UNL     1       1.128   8.980  17.858  0.00  0.00    +0.000 C 
ATOM     14  C   UNL     1       0.113  11.015  20.919  0.00  0.00    +0.000 A 
ATOM     15  O   UNL     1       1.065  10.710  21.625  0.00  0.00    +0.000 OA
ENDROOT
BRANCH  11  16
ATOM     16  O   UNL     1       2.117   6.187  18.212  0.00  0.00    +0.000 OA
BRANCH  16  17
ATOM     17  C   UNL     1       2.437   4.923  18.636  0.00  0.00    +0.000 A 
ATOM     18  C   UNL     1       1.742   4.238  19.635  0.00  0.00    +0.000 A 
ATOM     19  C   UNL     1       2.082   2.928  19.948  0.00  0.00    +0.000 A 
ATOM     20  F   UNL     1       1.375   2.280  20.886  0.00  0.00    +0.000 F 
ATOM     21  C   UNL     1       3.123   2.276  19.305  0.00  0.00    +0.000 A 
ATOM     22  C   UNL     1       3.839   2.950  18.319  0.00  0.00    +0.000 A 
ATOM     23  C   UNL     1       3.491   4.265  17.978  0.00  0.00    +0.000 A 
ATOM     24 CL   UNL     1       4.416   5.052  16.748  0.00  0.00    +0.000 Cl
ENDBRANCH  16  17
ENDBRANCH  11  16
TORSDOF 2
ENDMDL
MODEL 7
REMARK VINA RESULT:      -6.5      1.512      1.752
REMARK  Name = 
REMARK  3 active torsions:
REMARK  status: ('A' for Active; 'I' for Inactive)
REMARK    1  A    between atoms: C_1  and  N_2
REMARK    2  A    between atoms: C_11  and  O_12
REMARK    3  A    between atoms: O_12  and  C_13
REMARK                            x       y       z     vdW  Elec       q    Type
REMARK                         _______ _______ _______ _____ _____    ______ ____
ROOT
ATOM      1  C   UNL     1       9.140   5.683  12.802  0.00  0.00    +0.000 C 
ATOM      2  N   UNL     1       7.872   5.057  13.109  0.00  0.00    +0.000 N 
ATOM      3  C   UNL     1       7.283   4.162  12.245  0.00  0.00    +0.000 A 
ATOM      4  C   UNL     1       6.135   3.549  12.562  0.00  0.00    +0.000 A 
ATOM      5 CL   UNL     1       5.412   2.466  11.423  0.00  0.00    +0.000 Cl
ATOM      6  N   UNL     1       5.449   3.723  13.734  0.00  0.00    +0.000 NA
ATOM      7  C   UNL     1       5.922   4.594  14.585  0.00  0.00    +0.000 A 
ATOM      8  N   UNL     1       5.265   4.875  15.774  0.00  0.00    +0.000 N 
ATOM      9  C   UNL     1       4.790   6.234  16.009  0.00  0.00    +0.000 C 
ATOM     10  C   UNL     1       5.014   6.566  17.473  0.00  0.00    +0.000 C 
ATOM     11  C   UNL     1       4.278   5.565  18.377  0.00  0.00    +0.000 C 
ATOM     12  C   UNL     1       4.698   4.131  18.008  0.00  0.00    +0.000 C 
ATOM     13  C   UNL     1       4.528   3.854  16.509  0.00  0.00    +0.000 C 
ATOM     14  C   UNL     1       7.267   5.357  14.322  0.00  0.00    +0.000 A 
ATOM     15  O   UNL     1       7.720   6.128  15.157  0.00  0.00    +0.000 OA
ENDROOT
BRANCH  11  16
ATOM     16  O   UNL     1       2.854   5.647  18.207  0.00  0.00    +0.000 OA
BRANCH  16  17
ATOM     17  C   UNL     1       2.062   4.723  18.839  0.00  0.00    +0.000 A 
ATOM     18  C   UNL     1       1.571   3.569  18.225  0.00  0.00    +0.000 A 
ATOM     19  C   UNL     1       0.842   2.643  18.961  0.00  0.00    +0.000 A 
ATOM     20  F   UNL     1       0.413   1.525  18.356  0.00  0.00    +0.000 F 
ATOM     21  C   UNL     1       0.560   2.846  20.303  0.00  0.00    +0.000 A 
ATOM     22  C   UNL     1       1.026   4.000  20.927  0.00  0.00    +0.000 A 
ATOM     23  C   UNL     1       1.783   4.931  20.201  0.00  0.00    +0.000 A 
ATOM     24 CL   UNL     1       2.333   6.345  21.028  0.00  0.00    +0.000 Cl
ENDBRANCH  16  17
ENDBRANCH  11  16
TORSDOF 2
ENDMDL
MODEL 8
REMARK VINA RESULT:      -6.5      5.045      8.294
REMARK  Name = 
REMARK  3 active torsions:
REMARK  status: ('A' for Active; 'I' for Inactive)
REMARK    1  A    between atoms: C_1  and  N_2
REMARK    2  A    between atoms: C_11  and  O_12
REMARK    3  A    between atoms: O_12  and  C_13
REMARK                            x       y       z     vdW  Elec       q    Type
REMARK                         _______ _______ _______ _____ _____    ______ ____
ROOT
ATOM      1  C   UNL     1      -0.680  11.477  19.703  0.00  0.00    +0.000 C 
ATOM      2  N   UNL     1       0.034  10.410  20.371  0.00  0.00    +0.000 N 
ATOM      3  C   UNL     1       0.148  10.368  21.742  0.00  0.00    +0.000 A 
ATOM      4  C   UNL     1       0.766   9.349  22.353  0.00  0.00    +0.000 A 
ATOM      5 CL   UNL     1       0.922   9.365  24.076  0.00  0.00    +0.000 Cl
ATOM      6  N   UNL     1       1.323   8.272  21.717  0.00  0.00    +0.000 NA
ATOM      7  C   UNL     1       1.296   8.264  20.410  0.00  0.00    +0.000 A 
ATOM      8  N   UNL     1       1.881   7.241  19.680  0.00  0.00    +0.000 N 
ATOM      9  C   UNL     1       2.973   7.565  18.768  0.00  0.00    +0.000 C 
ATOM     10  C   UNL     1       2.813   6.717  17.520  0.00  0.00    +0.000 C 
ATOM     11  C   UNL     1       2.821   5.222  17.873  0.00  0.00    +0.000 C 
ATOM     12  C   UNL     1       1.750   4.938  18.942  0.00  0.00    +0.000 C 
ATOM     13  C   UNL     1       1.896   5.863  20.157  0.00  0.00    +0.000 C 
ATOM     14  C   UNL     1       0.583   9.399  19.594  0.00  0.00    +0.000 A 
ATOM     15  O   UNL     1       0.523   9.344  18.373  0.00  0.00    +0.000 OA
ENDROOT
BRANCH  11  16
ATOM     16  O   UNL     1       4.085   4.815  18.421  0.00  0.00    +0.000 OA
BRANCH  16  17
ATOM     17  C   UNL     1       5.131   4.588  17.564  0.00  0.00    +0.000 A 
ATOM     18  C   UNL     1       4.983   4.090  16.268  0.00  0.00    +0.000 A 
ATOM     19  C   UNL     1       6.089   3.966  15.437  0.00  0.00    +0.000 A 
ATOM     20  F   UNL     1       5.913   3.520  14.184  0.00  0.00    +0.000 F 
ATOM     21  C   UNL     1       7.362   4.303  15.871  0.00  0.00    +0.000 A 
ATOM     22  C   UNL     1       7.532   4.783  17.167  0.00  0.00    +0.000 A 
ATOM     23  C   UNL     1       6.420   4.935  18.007  0.00  0.00    +0.000 A 
ATOM     24 CL   UNL     1       6.692   5.534  19.606  0.00  0.00    +0.000 Cl
ENDBRANCH  16  17
ENDBRANCH  11  16
TORSDOF 2
ENDMDL
MODEL 9
REMARK VINA RESULT:      -6.4      5.206      7.829
REMARK  Name = 
REMARK  3 active torsions:
REMARK  status: ('A' for Active; 'I' for Inactive)
REMARK    1  A    between atoms: C_1  and  N_2
REMARK    2  A    between atoms: C_11  and  O_12
REMARK    3  A    between atoms: O_12  and  C_13
REMARK                            x       y       z     vdW  Elec       q    Type
REMARK                         _______ _______ _______ _____ _____    ______ ____
ROOT
ATOM      1  C   UNL     1      -0.468  11.602  22.359  0.00  0.00    +0.000 C 
ATOM      2  N   UNL     1      -0.399  11.093  21.006  0.00  0.00    +0.000 N 
ATOM      3  C   UNL     1      -1.205  11.592  20.008  0.00  0.00    +0.000 A 
ATOM      4  C   UNL     1      -1.097  11.151  18.748  0.00  0.00    +0.000 A 
ATOM      5 CL   UNL     1      -2.164  11.777  17.538  0.00  0.00    +0.000 Cl
ATOM      6  N   UNL     1      -0.206  10.202  18.320  0.00  0.00    +0.000 NA
ATOM      7  C   UNL     1       0.561   9.648  19.221  0.00  0.00    +0.000 A 
ATOM      8  N   UNL     1       1.457   8.641  18.890  0.00  0.00    +0.000 N 
ATOM      9  C   UNL     1       1.296   7.329  19.505  0.00  0.00    +0.000 C 
ATOM     10  C   UNL     1       2.677   6.780  19.813  0.00  0.00    +0.000 C 
ATOM     11  C   UNL     1       3.522   6.685  18.534  0.00  0.00    +0.000 C 
ATOM     12  C   UNL     1       3.556   8.055  17.834  0.00  0.00    +0.000 C 
ATOM     13  C   UNL     1       2.146   8.614  17.605  0.00  0.00    +0.000 C 
ATOM     14  C   UNL     1       0.529  10.101  20.723  0.00  0.00    +0.000 A 
ATOM     15  O   UNL     1       1.294   9.606  21.539  0.00  0.00    +0.000 OA
ENDROOT
BRANCH  11  16
ATOM     16  O   UNL     1       2.966   5.745  17.600  0.00  0.00    +0.000 OA
BRANCH  16  17
ATOM     17  C   UNL     1       2.758   4.454  18.011  0.00  0.00    +0.000 A 
ATOM     18  C   UNL     1       1.494   3.887  18.191  0.00  0.00    +0.000 A 
ATOM     19  C   UNL     1       1.372   2.546  18.531  0.00  0.00    +0.000 A 
ATOM     20  F   UNL     1       0.147   2.017  18.662  0.00  0.00    +0.000 F 
ATOM     21  C   UNL     1       2.487   1.744  18.726  0.00  0.00    +0.000 A 
ATOM     22  C   UNL     1       3.755   2.297  18.569  0.00  0.00    +0.000 A 
ATOM     23  C   UNL     1       3.891   3.644  18.203  0.00  0.00    +0.000 A 
ATOM     24 CL   UNL     1       5.490   4.275  18.024  0.00  0.00    +0.000 Cl
ENDBRANCH  16  17
ENDBRANCH  11  16
TORSDOF 2
ENDMDL
