MODEL 1
REMARK VINA RESULT:      -7.3      0.000      0.000
REMARK  Name = 
REMARK  13 active torsions:
REMARK  status: ('A' for Active; 'I' for Inactive)
REMARK    1  A    between atoms: C_1  and  C_2
REMARK    2  A    between atoms: C_4  and  C_5
REMARK    3  A    between atoms: C_5  and  N_6
REMARK    4  A    between atoms: C_5  and  C_19
REMARK    5  A    between atoms: C_7  and  CA_9
REMARK    6  A    between atoms: CA_9  and  N_10
REMARK    7  A    between atoms: CA_9  and  CB_11
REMARK    8  A    between atoms: CB_11  and  CG_12
REMARK    9  A    between atoms: CZ_15  and  OH_16
REMARK   10  A    between atoms: C_19  and  O_21
REMARK   11  A    between atoms: C_22  and  O_23
REMARK   12  A    between atoms: C_24  and  O_25
REMARK   13  A    between atoms: C_26  and  O_27
REMARK                            x       y       z     vdW  Elec       q    Type
REMARK                         _______ _______ _______ _____ _____    ______ ____
ROOT
ATOM      1  C   UNK A   2       6.466   5.469  16.975  0.00  0.00    +0.000 C 
ENDROOT
BRANCH   1   5
ATOM      2  C   UNK A   2       2.740   8.281  18.034  0.00  0.00    +0.000 C 
ATOM      3  C   UNK A   2       3.066   6.825  17.724  0.00  0.00    +0.000 C 
ATOM      4  O   UNK A   2       4.496   6.726  17.598  0.00  0.00    +0.000 OA
ATOM      5  C   UNK A   2       4.940   5.409  17.208  0.00  0.00    +0.000 C 
ATOM      6  C   UNK A   2       4.501   4.339  18.232  0.00  0.00    +0.000 C 
ATOM      7  C   UNK A   2       2.982   4.439  18.474  0.00  0.00    +0.000 C 
ATOM      8  C   UNK A   2       2.572   5.873  18.826  0.00  0.00    +0.000 C 
BRANCH   6   9
ATOM      9  O   UNK A   2       4.863   3.031  17.769  0.00  0.00    +0.000 OA
ATOM     10  H   UNK A   2       5.502   3.132  17.039  0.00  0.00    +0.000 HD
ENDBRANCH   6   9
BRANCH   7  11
ATOM     11  O   UNK A   2       2.597   3.546  19.523  0.00  0.00    +0.000 OA
ATOM     12  H   UNK A   2       1.965   4.043  20.084  0.00  0.00    +0.000 HD
ENDBRANCH   7  11
BRANCH   8  13
ATOM     13  O   UNK A   2       3.140   6.203  20.104  0.00  0.00    +0.000 OA
ATOM     14  H   UNK A   2       3.778   6.931  19.977  0.00  0.00    +0.000 HD
ENDBRANCH   8  13
ENDBRANCH   1   5
BRANCH   1  15
ATOM     15  N   UNK A   2       7.001   6.822  17.014  0.00  0.00    +0.000 N 
ATOM     16  C   TYR A   1       7.836   7.281  17.998  0.00  0.00    +0.000 C 
ATOM     17  O   TYR A   1       8.200   6.576  18.936  0.00  0.00    +0.000 OA
ATOM     18  H   UNK A   2       6.770   7.418  16.223  0.00  0.00    +0.000 HD
BRANCH  16  19
ATOM     19  CA  TYR A   1       8.280   8.752  17.845  0.00  0.00    +0.000 C 
BRANCH  19  20
ATOM     20  N   TYR A   1       7.180   9.554  17.257  0.00  0.00    +0.000 NA
ATOM     21  H1  TYR A   1       7.320  10.547  17.436  0.00  0.00    +0.000 HD
ATOM     22  H2  TYR A   1       6.304   9.303  17.721  0.00  0.00    +0.000 HD
ENDBRANCH  19  20
BRANCH  19  23
ATOM     23  CB  TYR A   1       8.739   9.343  19.189  0.00  0.00    +0.000 C 
BRANCH  23  24
ATOM     24  CG  TYR A   1       9.672  10.539  19.111  0.00  0.00    +0.000 A 
ATOM     25  CD1 TYR A   1      10.092  11.081  17.886  0.00  0.00    +0.000 A 
ATOM     26  CE1 TYR A   1      10.933  12.196  17.842  0.00  0.00    +0.000 A 
ATOM     27  CZ  TYR A   1      11.346  12.788  19.029  0.00  0.00    +0.000 A 
ATOM     28  CE2 TYR A   1      10.927  12.283  20.254  0.00  0.00    +0.000 A 
ATOM     29  CD2 TYR A   1      10.088  11.168  20.296  0.00  0.00    +0.000 A 
BRANCH  27  30
ATOM     30  OH  TYR A   1      12.162  13.879  19.027  0.00  0.00    +0.000 OA
ATOM     31  HH  TYR A   1      12.412  14.073  18.108  0.00  0.00    +0.000 HD
ENDBRANCH  27  30
ENDBRANCH  23  24
ENDBRANCH  19  23
ENDBRANCH  16  19
ENDBRANCH   1  15
BRANCH   1  32
ATOM     32  C   UNK A   2       6.841   4.847  15.630  0.00  0.00    +0.000 C 
ATOM     33  O   UNK A   2       6.393   3.786  15.215  0.00  0.00    +0.000 OA
BRANCH  32  34
ATOM     34  O   UNK A   2       7.756   5.560  14.929  0.00  0.00    +0.000 OA
ATOM     35  H   UNK A   2       7.795   6.502  15.193  0.00  0.00    +0.000 HD
ENDBRANCH  32  34
ENDBRANCH   1  32
TORSDOF 12
ENDMDL
MODEL 2
REMARK VINA RESULT:      -7.2      0.377      1.162
REMARK  Name = 
REMARK  13 active torsions:
REMARK  status: ('A' for Active; 'I' for Inactive)
REMARK    1  A    between atoms: C_1  and  C_2
REMARK    2  A    between atoms: C_4  and  C_5
REMARK    3  A    between atoms: C_5  and  N_6
REMARK    4  A    between atoms: C_5  and  C_19
REMARK    5  A    between atoms: C_7  and  CA_9
REMARK    6  A    between atoms: CA_9  and  N_10
REMARK    7  A    between atoms: CA_9  and  CB_11
REMARK    8  A    between atoms: CB_11  and  CG_12
REMARK    9  A    between atoms: CZ_15  and  OH_16
REMARK   10  A    between atoms: C_19  and  O_21
REMARK   11  A    between atoms: C_22  and  O_23
REMARK   12  A    between atoms: C_24  and  O_25
REMARK   13  A    between atoms: C_26  and  O_27
REMARK                            x       y       z     vdW  Elec       q    Type
REMARK                         _______ _______ _______ _____ _____    ______ ____
ROOT
ATOM      1  C   UNK A   2       6.463   5.528  16.799  0.00  0.00    +0.000 C 
ENDROOT
BRANCH   1   5
ATOM      2  C   UNK A   2       2.713   8.271  17.946  0.00  0.00    +0.000 C 
ATOM      3  C   UNK A   2       3.059   6.821  17.633  0.00  0.00    +0.000 C 
ATOM      4  O   UNK A   2       4.487   6.749  17.469  0.00  0.00    +0.000 OA
ATOM      5  C   UNK A   2       4.947   5.439  17.074  0.00  0.00    +0.000 C 
ATOM      6  C   UNK A   2       4.557   4.366  18.114  0.00  0.00    +0.000 C 
ATOM      7  C   UNK A   2       3.043   4.437  18.396  0.00  0.00    +0.000 C 
ATOM      8  C   UNK A   2       2.614   5.865  18.752  0.00  0.00    +0.000 C 
BRANCH   6   9
ATOM      9  O   UNK A   2       4.932   3.063  17.647  0.00  0.00    +0.000 OA
ATOM     10  H   UNK A   2       4.305   2.414  18.017  0.00  0.00    +0.000 HD
ENDBRANCH   6   9
BRANCH   7  11
ATOM     11  O   UNK A   2       2.704   3.542  19.460  0.00  0.00    +0.000 OA
ATOM     12  H   UNK A   2       1.938   3.020  19.142  0.00  0.00    +0.000 HD
ENDBRANCH   7  11
BRANCH   8  13
ATOM     13  O   UNK A   2       3.209   6.212  20.013  0.00  0.00    +0.000 OA
ATOM     14  H   UNK A   2       3.361   7.177  20.024  0.00  0.00    +0.000 HD
ENDBRANCH   8  13
ENDBRANCH   1   5
BRANCH   1  15
ATOM     15  N   UNK A   2       6.987   6.883  16.898  0.00  0.00    +0.000 N 
ATOM     16  C   TYR A   1       7.799   7.310  17.916  0.00  0.00    +0.000 C 
ATOM     17  O   TYR A   1       8.147   6.574  18.836  0.00  0.00    +0.000 OA
ATOM     18  H   UNK A   2       6.769   7.505  16.125  0.00  0.00    +0.000 HD
BRANCH  16  19
ATOM     19  CA  TYR A   1       8.235   8.789  17.827  0.00  0.00    +0.000 C 
BRANCH  19  20
ATOM     20  N   TYR A   1       7.056   9.649  17.558  0.00  0.00    +0.000 NA
ATOM     21  H1  TYR A   1       6.899   9.745  16.556  0.00  0.00    +0.000 HD
ATOM     22  H2  TYR A   1       7.250  10.591  17.906  0.00  0.00    +0.000 HD
ENDBRANCH  19  20
BRANCH  19  23
ATOM     23  CB  TYR A   1       8.968   9.237  19.102  0.00  0.00    +0.000 C 
BRANCH  23  24
ATOM     24  CG  TYR A   1       9.548  10.640  19.085  0.00  0.00    +0.000 A 
ATOM     25  CD1 TYR A   1       9.607  11.438  20.238  0.00  0.00    +0.000 A 
ATOM     26  CE1 TYR A   1      10.167  12.719  20.201  0.00  0.00    +0.000 A 
ATOM     27  CZ  TYR A   1      10.687  13.202  19.007  0.00  0.00    +0.000 A 
ATOM     28  CE2 TYR A   1      10.659  12.423  17.856  0.00  0.00    +0.000 A 
ATOM     29  CD2 TYR A   1      10.099  11.145  17.896  0.00  0.00    +0.000 A 
BRANCH  27  30
ATOM     30  OH  TYR A   1      11.245  14.443  18.931  0.00  0.00    +0.000 OA
ATOM     31  HH  TYR A   1      11.516  14.712  19.824  0.00  0.00    +0.000 HD
ENDBRANCH  27  30
ENDBRANCH  23  24
ENDBRANCH  19  23
ENDBRANCH  16  19
ENDBRANCH   1  15
BRANCH   1  32
ATOM     32  C   UNK A   2       6.803   4.988  15.409  0.00  0.00    +0.000 C 
ATOM     33  O   UNK A   2       7.717   5.412  14.713  0.00  0.00    +0.000 OA
BRANCH  32  34
ATOM     34  O   UNK A   2       5.975   4.004  14.982  0.00  0.00    +0.000 OA
ATOM     35  H   UNK A   2       6.135   3.742  14.052  0.00  0.00    +0.000 HD
ENDBRANCH  32  34
ENDBRANCH   1  32
TORSDOF 12
ENDMDL
MODEL 3
REMARK VINA RESULT:      -7.1      1.936      3.506
REMARK  Name = 
REMARK  13 active torsions:
REMARK  status: ('A' for Active; 'I' for Inactive)
REMARK    1  A    between atoms: C_1  and  C_2
REMARK    2  A    between atoms: C_4  and  C_5
REMARK    3  A    between atoms: C_5  and  N_6
REMARK    4  A    between atoms: C_5  and  C_19
REMARK    5  A    between atoms: C_7  and  CA_9
REMARK    6  A    between atoms: CA_9  and  N_10
REMARK    7  A    between atoms: CA_9  and  CB_11
REMARK    8  A    between atoms: CB_11  and  CG_12
REMARK    9  A    between atoms: CZ_15  and  OH_16
REMARK   10  A    between atoms: C_19  and  O_21
REMARK   11  A    between atoms: C_22  and  O_23
REMARK   12  A    between atoms: C_24  and  O_25
REMARK   13  A    between atoms: C_26  and  O_27
REMARK                            x       y       z     vdW  Elec       q    Type
REMARK                         _______ _______ _______ _____ _____    ______ ____
ROOT
ATOM      1  C   UNK A   2       3.979   5.851  17.848  0.00  0.00    +0.000 C 
ENDROOT
BRANCH   1   5
ATOM      2  C   UNK A   2       0.631   2.583  18.857  0.00  0.00    +0.000 C 
ATOM      3  C   UNK A   2       2.126   2.691  18.583  0.00  0.00    +0.000 C 
ATOM      4  O   UNK A   2       2.435   4.091  18.450  0.00  0.00    +0.000 OA
ATOM      5  C   UNK A   2       3.811   4.336  18.092  0.00  0.00    +0.000 C 
ATOM      6  C   UNK A   2       4.781   3.757  19.147  0.00  0.00    +0.000 C 
ATOM      7  C   UNK A   2       4.456   2.271  19.395  0.00  0.00    +0.000 C 
ATOM      8  C   UNK A   2       2.969   2.076  19.712  0.00  0.00    +0.000 C 
BRANCH   6   9
ATOM      9  O   UNK A   2       6.139   3.921  18.715  0.00  0.00    +0.000 OA
ATOM     10  H   UNK A   2       6.680   3.233  19.145  0.00  0.00    +0.000 HD
ENDBRANCH   6   9
BRANCH   7  11
ATOM     11  O   UNK A   2       5.257   1.771  20.470  0.00  0.00    +0.000 OA
ATOM     12  H   UNK A   2       4.634   1.366  21.108  0.00  0.00    +0.000 HD
ENDBRANCH   7  11
BRANCH   8  13
ATOM     13  O   UNK A   2       2.694   2.698  20.978  0.00  0.00    +0.000 OA
ATOM     14  H   UNK A   2       1.730   2.659  21.135  0.00  0.00    +0.000 HD
ENDBRANCH   8  13
ENDBRANCH   1   5
BRANCH   1  15
ATOM     15  N   UNK A   2       5.221   6.386  18.388  0.00  0.00    +0.000 N 
ATOM     16  C   TYR A   1       6.185   6.988  17.623  0.00  0.00    +0.000 C 
ATOM     17  O   TYR A   1       6.074   7.121  16.406  0.00  0.00    +0.000 OA
ATOM     18  H   UNK A   2       5.324   6.347  19.398  0.00  0.00    +0.000 HD
BRANCH  16  19
ATOM     19  CA  TYR A   1       7.425   7.479  18.401  0.00  0.00    +0.000 C 
BRANCH  19  20
ATOM     20  N   TYR A   1       8.246   6.319  18.828  0.00  0.00    +0.000 NA
ATOM     21  H1  TYR A   1       9.239   6.515  18.709  0.00  0.00    +0.000 HD
ATOM     22  H2  TYR A   1       8.039   5.526  18.217  0.00  0.00    +0.000 HD
ENDBRANCH  19  20
BRANCH  19  23
ATOM     23  CB  TYR A   1       8.257   8.469  17.567  0.00  0.00    +0.000 C 
BRANCH  23  24
ATOM     24  CG  TYR A   1       8.656   9.760  18.261  0.00  0.00    +0.000 A 
ATOM     25  CD1 TYR A   1       9.171   9.777  19.567  0.00  0.00    +0.000 A 
ATOM     26  CE1 TYR A   1       9.552  10.976  20.176  0.00  0.00    +0.000 A 
ATOM     27  CZ  TYR A   1       9.435  12.167  19.470  0.00  0.00    +0.000 A 
ATOM     28  CE2 TYR A   1       8.948  12.174  18.169  0.00  0.00    +0.000 A 
ATOM     29  CD2 TYR A   1       8.566  10.975  17.564  0.00  0.00    +0.000 A 
BRANCH  27  30
ATOM     30  OH  TYR A   1       9.800  13.356  20.026  0.00  0.00    +0.000 OA
ATOM     31  HH  TYR A   1      10.375  13.173  20.789  0.00  0.00    +0.000 HD
ENDBRANCH  27  30
ENDBRANCH  23  24
ENDBRANCH  19  23
ENDBRANCH  16  19
ENDBRANCH   1  15
BRANCH   1  32
ATOM     32  C   UNK A   2       2.819   6.639  18.457  0.00  0.00    +0.000 C 
ATOM     33  O   UNK A   2       2.074   7.369  17.815  0.00  0.00    +0.000 OA
BRANCH  32  34
ATOM     34  O   UNK A   2       2.695   6.491  19.798  0.00  0.00    +0.000 OA
ATOM     35  H   UNK A   2       2.828   7.327  20.291  0.00  0.00    +0.000 HD
ENDBRANCH  32  34
ENDBRANCH   1  32
TORSDOF 12
ENDMDL
MODEL 4
REMARK VINA RESULT:      -7.0      4.161      7.198
REMARK  Name = 
REMARK  13 active torsions:
REMARK  status: ('A' for Active; 'I' for Inactive)
REMARK    1  A    between atoms: C_1  and  C_2
REMARK    2  A    between atoms: C_4  and  C_5
REMARK    3  A    between atoms: C_5  and  N_6
REMARK    4  A    between atoms: C_5  and  C_19
REMARK    5  A    between atoms: C_7  and  CA_9
REMARK    6  A    between atoms: CA_9  and  N_10
REMARK    7  A    between atoms: CA_9  and  CB_11
REMARK    8  A    between atoms: CB_11  and  CG_12
REMARK    9  A    between atoms: CZ_15  and  OH_16
REMARK   10  A    between atoms: C_19  and  O_21
REMARK   11  A    between atoms: C_22  and  O_23
REMARK   12  A    between atoms: C_24  and  O_25
REMARK   13  A    between atoms: C_26  and  O_27
REMARK                            x       y       z     vdW  Elec       q    Type
REMARK                         _______ _______ _______ _____ _____    ______ ____
ROOT
ATOM      1  C   UNK A   2       4.059   3.469  18.054  0.00  0.00    +0.000 C 
ENDROOT
BRANCH   1   5
ATOM      2  C   UNK A   2       7.955   5.959  19.290  0.00  0.00    +0.000 C 
ATOM      3  C   UNK A   2       7.412   5.115  18.143  0.00  0.00    +0.000 C 
ATOM      4  O   UNK A   2       6.057   4.763  18.479  0.00  0.00    +0.000 OA
ATOM      5  C   UNK A   2       5.447   3.878  17.515  0.00  0.00    +0.000 C 
ATOM      6  C   UNK A   2       5.414   4.513  16.107  0.00  0.00    +0.000 C 
ATOM      7  C   UNK A   2       6.827   4.984  15.713  0.00  0.00    +0.000 C 
ATOM      8  C   UNK A   2       7.438   5.871  16.805  0.00  0.00    +0.000 C 
BRANCH   6   9
ATOM      9  O   UNK A   2       4.901   3.574  15.152  0.00  0.00    +0.000 OA
ATOM     10  H   UNK A   2       4.309   2.956  15.620  0.00  0.00    +0.000 HD
ENDBRANCH   6   9
BRANCH   7  11
ATOM     11  O   UNK A   2       6.774   5.698  14.474  0.00  0.00    +0.000 OA
ATOM     12  H   UNK A   2       7.256   5.146  13.822  0.00  0.00    +0.000 HD
ENDBRANCH   7  11
BRANCH   8  13
ATOM     13  O   UNK A   2       6.680   7.091  16.869  0.00  0.00    +0.000 OA
ATOM     14  H   UNK A   2       7.282   7.834  16.670  0.00  0.00    +0.000 HD
ENDBRANCH   8  13
ENDBRANCH   1   5
BRANCH   1  15
ATOM     15  N   UNK A   2       3.486   4.447  18.969  0.00  0.00    +0.000 N 
ATOM     16  C   TYR A   1       2.271   5.049  18.774  0.00  0.00    +0.000 C 
ATOM     17  O   TYR A   1       1.565   4.808  17.797  0.00  0.00    +0.000 OA
ATOM     18  H   UNK A   2       4.014   4.628  19.818  0.00  0.00    +0.000 HD
BRANCH  16  19
ATOM     19  CA  TYR A   1       1.859   6.059  19.867  0.00  0.00    +0.000 C 
BRANCH  19  20
ATOM     20  N   TYR A   1       2.321   5.584  21.194  0.00  0.00    +0.000 NA
ATOM     21  H1  TYR A   1       2.804   4.690  21.111  0.00  0.00    +0.000 HD
ATOM     22  H2  TYR A   1       1.504   5.411  21.784  0.00  0.00    +0.000 HD
ENDBRANCH  19  20
BRANCH  19  23
ATOM     23  CB  TYR A   1       2.399   7.467  19.564  0.00  0.00    +0.000 C 
BRANCH  23  24
ATOM     24  CG  TYR A   1       1.410   8.610  19.709  0.00  0.00    +0.000 A 
ATOM     25  CD1 TYR A   1       1.090   9.461  18.639  0.00  0.00    +0.000 A 
ATOM     26  CE1 TYR A   1       0.159  10.492  18.792  0.00  0.00    +0.000 A 
ATOM     27  CZ  TYR A   1      -0.472  10.666  20.017  0.00  0.00    +0.000 A 
ATOM     28  CE2 TYR A   1      -0.188   9.824  21.085  0.00  0.00    +0.000 A 
ATOM     29  CD2 TYR A   1       0.743   8.796  20.930  0.00  0.00    +0.000 A 
BRANCH  27  30
ATOM     30  OH  TYR A   1      -1.389  11.657  20.204  0.00  0.00    +0.000 OA
ATOM     31  HH  TYR A   1      -1.577  12.066  19.343  0.00  0.00    +0.000 HD
ENDBRANCH  27  30
ENDBRANCH  23  24
ENDBRANCH  19  23
ENDBRANCH  16  19
ENDBRANCH   1  15
BRANCH   1  32
ATOM     32  C   UNK A   2       4.124   2.123  18.776  0.00  0.00    +0.000 C 
ATOM     33  O   UNK A   2       3.422   1.160  18.497  0.00  0.00    +0.000 OA
BRANCH  32  34
ATOM     34  O   UNK A   2       5.015   2.087  19.797  0.00  0.00    +0.000 OA
ATOM     35  H   UNK A   2       5.323   2.975  20.070  0.00  0.00    +0.000 HD
ENDBRANCH  32  34
ENDBRANCH   1  32
TORSDOF 12
ENDMDL
MODEL 5
REMARK VINA RESULT:      -7.0      4.168      7.221
REMARK  Name = 
REMARK  13 active torsions:
REMARK  status: ('A' for Active; 'I' for Inactive)
REMARK    1  A    between atoms: C_1  and  C_2
REMARK    2  A    between atoms: C_4  and  C_5
REMARK    3  A    between atoms: C_5  and  N_6
REMARK    4  A    between atoms: C_5  and  C_19
REMARK    5  A    between atoms: C_7  and  CA_9
REMARK    6  A    between atoms: CA_9  and  N_10
REMARK    7  A    between atoms: CA_9  and  CB_11
REMARK    8  A    between atoms: CB_11  and  CG_12
REMARK    9  A    between atoms: CZ_15  and  OH_16
REMARK   10  A    between atoms: C_19  and  O_21
REMARK   11  A    between atoms: C_22  and  O_23
REMARK   12  A    between atoms: C_24  and  O_25
REMARK   13  A    between atoms: C_26  and  O_27
REMARK                            x       y       z     vdW  Elec       q    Type
REMARK                         _______ _______ _______ _____ _____    ______ ____
ROOT
ATOM      1  C   UNK A   2       4.041   3.461  18.030  0.00  0.00    +0.000 C 
ENDROOT
BRANCH   1   5
ATOM      2  C   UNK A   2       7.902   5.987  19.304  0.00  0.00    +0.000 C 
ATOM      3  C   UNK A   2       7.379   5.133  18.154  0.00  0.00    +0.000 C 
ATOM      4  O   UNK A   2       6.023   4.772  18.474  0.00  0.00    +0.000 OA
ATOM      5  C   UNK A   2       5.432   3.878  17.507  0.00  0.00    +0.000 C 
ATOM      6  C   UNK A   2       5.412   4.506  16.096  0.00  0.00    +0.000 C 
ATOM      7  C   UNK A   2       6.827   4.987  15.718  0.00  0.00    +0.000 C 
ATOM      8  C   UNK A   2       7.417   5.883  16.813  0.00  0.00    +0.000 C 
BRANCH   6   9
ATOM      9  O   UNK A   2       4.919   3.559  15.139  0.00  0.00    +0.000 OA
ATOM     10  H   UNK A   2       4.245   3.006  15.577  0.00  0.00    +0.000 HD
ENDBRANCH   6   9
BRANCH   7  11
ATOM     11  O   UNK A   2       6.784   5.694  14.474  0.00  0.00    +0.000 OA
ATOM     12  H   UNK A   2       6.300   5.115  13.849  0.00  0.00    +0.000 HD
ENDBRANCH   7  11
BRANCH   8  13
ATOM     13  O   UNK A   2       6.649   7.097  16.862  0.00  0.00    +0.000 OA
ATOM     14  H   UNK A   2       7.213   7.829  16.545  0.00  0.00    +0.000 HD
ENDBRANCH   8  13
ENDBRANCH   1   5
BRANCH   1  15
ATOM     15  N   UNK A   2       3.477   4.407  18.982  0.00  0.00    +0.000 N 
ATOM     16  C   TYR A   1       2.199   4.894  18.902  0.00  0.00    +0.000 C 
ATOM     17  O   TYR A   1       1.423   4.566  18.007  0.00  0.00    +0.000 OA
ATOM     18  H   UNK A   2       4.069   4.657  19.770  0.00  0.00    +0.000 HD
BRANCH  16  19
ATOM     19  CA  TYR A   1       1.809   5.891  20.014  0.00  0.00    +0.000 C 
BRANCH  19  20
ATOM     20  N   TYR A   1       2.360   5.439  21.316  0.00  0.00    +0.000 NA
ATOM     21  H1  TYR A   1       1.655   4.933  21.851  0.00  0.00    +0.000 HD
ATOM     22  H2  TYR A   1       2.603   6.261  21.873  0.00  0.00    +0.000 HD
ENDBRANCH  19  20
BRANCH  19  23
ATOM     23  CB  TYR A   1       2.277   7.318  19.680  0.00  0.00    +0.000 C 
BRANCH  23  24
ATOM     24  CG  TYR A   1       1.434   8.449  20.242  0.00  0.00    +0.000 A 
ATOM     25  CD1 TYR A   1       1.122   8.541  21.607  0.00  0.00    +0.000 A 
ATOM     26  CE1 TYR A   1       0.362   9.605  22.103  0.00  0.00    +0.000 A 
ATOM     27  CZ  TYR A   1      -0.075  10.596  21.232  0.00  0.00    +0.000 A 
ATOM     28  CE2 TYR A   1       0.238  10.538  19.880  0.00  0.00    +0.000 A 
ATOM     29  CD2 TYR A   1       0.995   9.474  19.387  0.00  0.00    +0.000 A 
BRANCH  27  30
ATOM     30  OH  TYR A   1      -0.814  11.651  21.677  0.00  0.00    +0.000 OA
ATOM     31  HH  TYR A   1      -0.400  11.993  22.488  0.00  0.00    +0.000 HD
ENDBRANCH  27  30
ENDBRANCH  23  24
ENDBRANCH  19  23
ENDBRANCH  16  19
ENDBRANCH   1  15
BRANCH   1  32
ATOM     32  C   UNK A   2       4.094   2.087  18.701  0.00  0.00    +0.000 C 
ATOM     33  O   UNK A   2       3.374   1.146  18.395  0.00  0.00    +0.000 OA
BRANCH  32  34
ATOM     34  O   UNK A   2       4.998   1.999  19.707  0.00  0.00    +0.000 OA
ATOM     35  H   UNK A   2       5.444   1.129  19.749  0.00  0.00    +0.000 HD
ENDBRANCH  32  34
ENDBRANCH   1  32
TORSDOF 12
ENDMDL
MODEL 6
REMARK VINA RESULT:      -6.9      4.287      6.964
REMARK  Name = 
REMARK  13 active torsions:
REMARK  status: ('A' for Active; 'I' for Inactive)
REMARK    1  A    between atoms: C_1  and  C_2
REMARK    2  A    between atoms: C_4  and  C_5
REMARK    3  A    between atoms: C_5  and  N_6
REMARK    4  A    between atoms: C_5  and  C_19
REMARK    5  A    between atoms: C_7  and  CA_9
REMARK    6  A    between atoms: CA_9  and  N_10
REMARK    7  A    between atoms: CA_9  and  CB_11
REMARK    8  A    between atoms: CB_11  and  CG_12
REMARK    9  A    between atoms: CZ_15  and  OH_16
REMARK   10  A    between atoms: C_19  and  O_21
REMARK   11  A    between atoms: C_22  and  O_23
REMARK   12  A    between atoms: C_24  and  O_25
REMARK   13  A    between atoms: C_26  and  O_27
REMARK                            x       y       z     vdW  Elec       q    Type
REMARK                         _______ _______ _______ _____ _____    ______ ____
ROOT
ATOM      1  C   UNK A   2       4.230   2.957  18.174  0.00  0.00    +0.000 C 
ENDROOT
BRANCH   1   5
ATOM      2  C   UNK A   2       7.850   5.777  19.534  0.00  0.00    +0.000 C 
ATOM      3  C   UNK A   2       7.348   5.010  18.317  0.00  0.00    +0.000 C 
ATOM      4  O   UNK A   2       6.071   4.445  18.666  0.00  0.00    +0.000 OA
ATOM      5  C   UNK A   2       5.520   3.606  17.629  0.00  0.00    +0.000 C 
ATOM      6  C   UNK A   2       5.322   4.392  16.313  0.00  0.00    +0.000 C 
ATOM      7  C   UNK A   2       6.638   5.089  15.918  0.00  0.00    +0.000 C 
ATOM      8  C   UNK A   2       7.197   5.915  17.083  0.00  0.00    +0.000 C 
BRANCH   6   9
ATOM      9  O   UNK A   2       4.874   3.512  15.273  0.00  0.00    +0.000 OA
ATOM     10  H   UNK A   2       4.333   4.030  14.649  0.00  0.00    +0.000 HD
ENDBRANCH   6   9
BRANCH   7  11
ATOM     11  O   UNK A   2       6.420   5.930  14.780  0.00  0.00    +0.000 OA
ATOM     12  H   UNK A   2       6.303   5.328  14.016  0.00  0.00    +0.000 HD
ENDBRANCH   7  11
BRANCH   8  13
ATOM     13  O   UNK A   2       6.298   7.007  17.333  0.00  0.00    +0.000 OA
ATOM     14  H   UNK A   2       5.605   6.996  16.644  0.00  0.00    +0.000 HD
ENDBRANCH   8  13
ENDBRANCH   1   5
BRANCH   1  15
ATOM     15  N   UNK A   2       3.373   3.892  18.890  0.00  0.00    +0.000 N 
ATOM     16  C   TYR A   1       2.026   4.010  18.669  0.00  0.00    +0.000 C 
ATOM     17  O   TYR A   1       1.432   3.328  17.837  0.00  0.00    +0.000 OA
ATOM     18  H   UNK A   2       3.818   4.432  19.627  0.00  0.00    +0.000 HD
BRANCH  16  19
ATOM     19  CA  TYR A   1       1.312   5.069  19.536  0.00  0.00    +0.000 C 
BRANCH  19  20
ATOM     20  N   TYR A   1       0.688   4.421  20.715  0.00  0.00    +0.000 NA
ATOM     21  H1  TYR A   1       0.546   5.095  21.466  0.00  0.00    +0.000 HD
ATOM     22  H2  TYR A   1       1.332   3.717  21.084  0.00  0.00    +0.000 HD
ENDBRANCH  19  20
BRANCH  19  23
ATOM     23  CB  TYR A   1       2.277   6.188  19.965  0.00  0.00    +0.000 C 
BRANCH  23  24
ATOM     24  CG  TYR A   1       1.907   7.596  19.533  0.00  0.00    +0.000 A 
ATOM     25  CD1 TYR A   1       1.268   8.498  20.397  0.00  0.00    +0.000 A 
ATOM     26  CE1 TYR A   1       0.957   9.797  19.982  0.00  0.00    +0.000 A 
ATOM     27  CZ  TYR A   1       1.303  10.205  18.699  0.00  0.00    +0.000 A 
ATOM     28  CE2 TYR A   1       1.954   9.336  17.833  0.00  0.00    +0.000 A 
ATOM     29  CD2 TYR A   1       2.262   8.040  18.249  0.00  0.00    +0.000 A 
BRANCH  27  30
ATOM     30  OH  TYR A   1       1.021  11.463  18.259  0.00  0.00    +0.000 OA
ATOM     31  HH  TYR A   1       0.174  11.740  18.646  0.00  0.00    +0.000 HD
ENDBRANCH  27  30
ENDBRANCH  23  24
ENDBRANCH  19  23
ENDBRANCH  16  19
ENDBRANCH   1  15
BRANCH   1  32
ATOM     32  C   UNK A   2       4.554   1.795  19.114  0.00  0.00    +0.000 C 
ATOM     33  O   UNK A   2       4.942   1.932  20.267  0.00  0.00    +0.000 OA
BRANCH  32  34
ATOM     34  O   UNK A   2       4.408   0.571  18.549  0.00  0.00    +0.000 OA
ATOM     35  H   UNK A   2       3.636   0.078  18.893  0.00  0.00    +0.000 HD
ENDBRANCH  32  34
ENDBRANCH   1  32
TORSDOF 12
ENDMDL
MODEL 7
REMARK VINA RESULT:      -6.9      4.542      7.120
REMARK  Name = 
REMARK  13 active torsions:
REMARK  status: ('A' for Active; 'I' for Inactive)
REMARK    1  A    between atoms: C_1  and  C_2
REMARK    2  A    between atoms: C_4  and  C_5
REMARK    3  A    between atoms: C_5  and  N_6
REMARK    4  A    between atoms: C_5  and  C_19
REMARK    5  A    between atoms: C_7  and  CA_9
REMARK    6  A    between atoms: CA_9  and  N_10
REMARK    7  A    between atoms: CA_9  and  CB_11
REMARK    8  A    between atoms: CB_11  and  CG_12
REMARK    9  A    between atoms: CZ_15  and  OH_16
REMARK   10  A    between atoms: C_19  and  O_21
REMARK   11  A    between atoms: C_22  and  O_23
REMARK   12  A    between atoms: C_24  and  O_25
REMARK   13  A    between atoms: C_26  and  O_27
REMARK                            x       y       z     vdW  Elec       q    Type
REMARK                         _______ _______ _______ _____ _____    ______ ____
ROOT
ATOM      1  C   UNK A   2       3.628   3.352  17.860  0.00  0.00    +0.000 C 
ENDROOT
BRANCH   1   5
ATOM      2  C   UNK A   2       6.460   4.127  14.081  0.00  0.00    +0.000 C 
ATOM      3  C   UNK A   2       6.026   4.789  15.382  0.00  0.00    +0.000 C 
ATOM      4  O   UNK A   2       5.179   3.854  16.074  0.00  0.00    +0.000 OA
ATOM      5  C   UNK A   2       4.616   4.392  17.290  0.00  0.00    +0.000 C 
ATOM      6  C   UNK A   2       5.720   4.822  18.281  0.00  0.00    +0.000 C 
ATOM      7  C   UNK A   2       6.712   5.771  17.580  0.00  0.00    +0.000 C 
ATOM      8  C   UNK A   2       7.225   5.163  16.270  0.00  0.00    +0.000 C 
BRANCH   6   9
ATOM      9  O   UNK A   2       5.137   5.448  19.432  0.00  0.00    +0.000 OA
ATOM     10  H   UNK A   2       5.659   6.244  19.644  0.00  0.00    +0.000 HD
ENDBRANCH   6   9
BRANCH   7  11
ATOM     11  O   UNK A   2       7.810   6.057  18.452  0.00  0.00    +0.000 OA
ATOM     12  H   UNK A   2       8.038   5.210  18.888  0.00  0.00    +0.000 HD
ENDBRANCH   7  11
BRANCH   8  13
ATOM     13  O   UNK A   2       8.026   4.013  16.590  0.00  0.00    +0.000 OA
ATOM     14  H   UNK A   2       7.900   3.808  17.537  0.00  0.00    +0.000 HD
ENDBRANCH   8  13
ENDBRANCH   1   5
BRANCH   1  15
ATOM     15  N   UNK A   2       2.885   3.838  19.014  0.00  0.00    +0.000 N 
ATOM     16  C   TYR A   1       1.524   4.000  19.027  0.00  0.00    +0.000 C 
ATOM     17  O   TYR A   1       0.820   3.745  18.053  0.00  0.00    +0.000 OA
ATOM     18  H   UNK A   2       3.425   4.004  19.858  0.00  0.00    +0.000 HD
BRANCH  16  19
ATOM     19  CA  TYR A   1       0.942   4.533  20.354  0.00  0.00    +0.000 C 
BRANCH  19  20
ATOM     20  N   TYR A   1       0.820   3.427  21.335  0.00  0.00    +0.000 NA
ATOM     21  H1  TYR A   1       1.547   3.492  22.046  0.00  0.00    +0.000 HD
ATOM     22  H2  TYR A   1       0.976   2.539  20.851  0.00  0.00    +0.000 HD
ENDBRANCH  19  20
BRANCH  19  23
ATOM     23  CB  TYR A   1       1.794   5.682  20.920  0.00  0.00    +0.000 C 
BRANCH  23  24
ATOM     24  CG  TYR A   1       1.700   7.010  20.187  0.00  0.00    +0.000 A 
ATOM     25  CD1 TYR A   1       2.240   7.195  18.905  0.00  0.00    +0.000 A 
ATOM     26  CE1 TYR A   1       2.121   8.420  18.243  0.00  0.00    +0.000 A 
ATOM     27  CZ  TYR A   1       1.443   9.465  18.857  0.00  0.00    +0.000 A 
ATOM     28  CE2 TYR A   1       0.882   9.300  20.117  0.00  0.00    +0.000 A 
ATOM     29  CD2 TYR A   1       1.003   8.076  20.777  0.00  0.00    +0.000 A 
BRANCH  27  30
ATOM     30  OH  TYR A   1       1.301  10.673  18.242  0.00  0.00    +0.000 OA
ATOM     31  HH  TYR A   1       1.808  10.655  17.413  0.00  0.00    +0.000 HD
ENDBRANCH  27  30
ENDBRANCH  23  24
ENDBRANCH  19  23
ENDBRANCH  16  19
ENDBRANCH   1  15
BRANCH   1  32
ATOM     32  C   UNK A   2       4.354   2.070  18.270  0.00  0.00    +0.000 C 
ATOM     33  O   UNK A   2       4.305   1.022  17.638  0.00  0.00    +0.000 OA
BRANCH  32  34
ATOM     34  O   UNK A   2       5.045   2.173  19.431  0.00  0.00    +0.000 OA
ATOM     35  H   UNK A   2       5.039   3.079  19.803  0.00  0.00    +0.000 HD
ENDBRANCH  32  34
ENDBRANCH   1  32
TORSDOF 12
ENDMDL
MODEL 8
REMARK VINA RESULT:      -6.8      4.242      6.888
REMARK  Name = 
REMARK  13 active torsions:
REMARK  status: ('A' for Active; 'I' for Inactive)
REMARK    1  A    between atoms: C_1  and  C_2
REMARK    2  A    between atoms: C_4  and  C_5
REMARK    3  A    between atoms: C_5  and  N_6
REMARK    4  A    between atoms: C_5  and  C_19
REMARK    5  A    between atoms: C_7  and  CA_9
REMARK    6  A    between atoms: CA_9  and  N_10
REMARK    7  A    between atoms: CA_9  and  CB_11
REMARK    8  A    between atoms: CB_11  and  CG_12
REMARK    9  A    between atoms: CZ_15  and  OH_16
REMARK   10  A    between atoms: C_19  and  O_21
REMARK   11  A    between atoms: C_22  and  O_23
REMARK   12  A    between atoms: C_24  and  O_25
REMARK   13  A    between atoms: C_26  and  O_27
REMARK                            x       y       z     vdW  Elec       q    Type
REMARK                         _______ _______ _______ _____ _____    ______ ____
ROOT
ATOM      1  C   UNK A   2       4.158   3.142  17.924  0.00  0.00    +0.000 C 
ENDROOT
BRANCH   1   5
ATOM      2  C   UNK A   2       7.835   5.876  19.307  0.00  0.00    +0.000 C 
ATOM      3  C   UNK A   2       7.375   5.031  18.125  0.00  0.00    +0.000 C 
ATOM      4  O   UNK A   2       6.046   4.568  18.425  0.00  0.00    +0.000 OA
ATOM      5  C   UNK A   2       5.520   3.671  17.424  0.00  0.00    +0.000 C 
ATOM      6  C   UNK A   2       5.461   4.346  16.035  0.00  0.00    +0.000 C 
ATOM      7  C   UNK A   2       6.841   4.935  15.682  0.00  0.00    +0.000 C 
ATOM      8  C   UNK A   2       7.366   5.829  16.811  0.00  0.00    +0.000 C 
BRANCH   6   9
ATOM      9  O   UNK A   2       5.036   3.403  15.043  0.00  0.00    +0.000 OA
ATOM     10  H   UNK A   2       5.733   2.728  14.945  0.00  0.00    +0.000 HD
ENDBRANCH   6   9
BRANCH   7  11
ATOM     11  O   UNK A   2       6.754   5.681  14.464  0.00  0.00    +0.000 OA
ATOM     12  H   UNK A   2       7.216   5.147  13.785  0.00  0.00    +0.000 HD
ENDBRANCH   7  11
BRANCH   8  13
ATOM     13  O   UNK A   2       6.517   6.986  16.900  0.00  0.00    +0.000 OA
ATOM     14  H   UNK A   2       5.853   6.933  16.185  0.00  0.00    +0.000 HD
ENDBRANCH   8  13
ENDBRANCH   1   5
BRANCH   1  15
ATOM     15  N   UNK A   2       3.412   4.121  18.702  0.00  0.00    +0.000 N 
ATOM     16  C   TYR A   1       2.064   4.330  18.567  0.00  0.00    +0.000 C 
ATOM     17  O   TYR A   1       1.376   3.700  17.767  0.00  0.00    +0.000 OA
ATOM     18  H   UNK A   2       3.936   4.621  19.415  0.00  0.00    +0.000 HD
BRANCH  16  19
ATOM     19  CA  TYR A   1       1.477   5.421  19.488  0.00  0.00    +0.000 C 
BRANCH  19  20
ATOM     20  N   TYR A   1       1.054   4.821  20.777  0.00  0.00    +0.000 NA
ATOM     21  H1  TYR A   1       1.597   5.204  21.550  0.00  0.00    +0.000 HD
ATOM     22  H2  TYR A   1       1.258   3.820  20.757  0.00  0.00    +0.000 HD
ENDBRANCH  19  20
BRANCH  19  23
ATOM     23  CB  TYR A   1       2.479   6.566  19.713  0.00  0.00    +0.000 C 
BRANCH  23  24
ATOM     24  CG  TYR A   1       2.000   7.959  19.339  0.00  0.00    +0.000 A 
ATOM     25  CD1 TYR A   1       2.234   8.514  18.071  0.00  0.00    +0.000 A 
ATOM     26  CE1 TYR A   1       1.764   9.789  17.745  0.00  0.00    +0.000 A 
ATOM     27  CZ  TYR A   1       1.039  10.511  18.685  0.00  0.00    +0.000 A 
ATOM     28  CE2 TYR A   1       0.777   9.975  19.939  0.00  0.00    +0.000 A 
ATOM     29  CD2 TYR A   1       1.249   8.702  20.264  0.00  0.00    +0.000 A 
BRANCH  27  30
ATOM     30  OH  TYR A   1       0.560  11.755  18.403  0.00  0.00    +0.000 OA
ATOM     31  HH  TYR A   1       1.311  12.327  18.174  0.00  0.00    +0.000 HD
ENDBRANCH  27  30
ENDBRANCH  23  24
ENDBRANCH  19  23
ENDBRANCH  16  19
ENDBRANCH   1  15
BRANCH   1  32
ATOM     32  C   UNK A   2       4.336   1.889  18.783  0.00  0.00    +0.000 C 
ATOM     33  O   UNK A   2       4.813   1.893  19.910  0.00  0.00    +0.000 OA
BRANCH  32  34
ATOM     34  O   UNK A   2       3.949   0.743  18.173  0.00  0.00    +0.000 OA
ATOM     35  H   UNK A   2       3.200   0.869  17.556  0.00  0.00    +0.000 HD
ENDBRANCH  32  34
ENDBRANCH   1  32
TORSDOF 12
ENDMDL
MODEL 9
REMARK VINA RESULT:      -6.8      4.004      7.208
REMARK  Name = 
REMARK  13 active torsions:
REMARK  status: ('A' for Active; 'I' for Inactive)
REMARK    1  A    between atoms: C_1  and  C_2
REMARK    2  A    between atoms: C_4  and  C_5
REMARK    3  A    between atoms: C_5  and  N_6
REMARK    4  A    between atoms: C_5  and  C_19
REMARK    5  A    between atoms: C_7  and  CA_9
REMARK    6  A    between atoms: CA_9  and  N_10
REMARK    7  A    between atoms: CA_9  and  CB_11
REMARK    8  A    between atoms: CB_11  and  CG_12
REMARK    9  A    between atoms: CZ_15  and  OH_16
REMARK   10  A    between atoms: C_19  and  O_21
REMARK   11  A    between atoms: C_22  and  O_23
REMARK   12  A    between atoms: C_24  and  O_25
REMARK   13  A    between atoms: C_26  and  O_27
REMARK                            x       y       z     vdW  Elec       q    Type
REMARK                         _______ _______ _______ _____ _____    ______ ____
ROOT
ATOM      1  C   UNK A   2       3.864   4.041  18.699  0.00  0.00    +0.000 C 
ENDROOT
BRANCH   1   5
ATOM      2  C   UNK A   2       8.133   6.092  19.387  0.00  0.00    +0.000 C 
ATOM      3  C   UNK A   2       7.383   5.250  18.363  0.00  0.00    +0.000 C 
ATOM      4  O   UNK A   2       6.035   5.096  18.843  0.00  0.00    +0.000 OA
ATOM      5  C   UNK A   2       5.232   4.234  18.010  0.00  0.00    +0.000 C 
ATOM      6  C   UNK A   2       5.139   4.772  16.564  0.00  0.00    +0.000 C 
ATOM      7  C   UNK A   2       6.554   5.032  16.011  0.00  0.00    +0.000 C 
ATOM      8  C   UNK A   2       7.370   5.905  16.972  0.00  0.00    +0.000 C 
BRANCH   6   9
ATOM      9  O   UNK A   2       4.426   3.844  15.735  0.00  0.00    +0.000 OA
ATOM     10  H   UNK A   2       4.542   2.951  16.107  0.00  0.00    +0.000 HD
ENDBRANCH   6   9
BRANCH   7  11
ATOM     11  O   UNK A   2       6.466   5.662  14.729  0.00  0.00    +0.000 OA
ATOM     12  H   UNK A   2       5.554   5.501  14.410  0.00  0.00    +0.000 HD
ENDBRANCH   7  11
BRANCH   8  13
ATOM     13  O   UNK A   2       6.775   7.212  17.008  0.00  0.00    +0.000 OA
ATOM     14  H   UNK A   2       6.605   7.496  16.088  0.00  0.00    +0.000 HD
ENDBRANCH   8  13
ENDBRANCH   1   5
BRANCH   1  15
ATOM     15  N   UNK A   2       3.276   5.288  19.167  0.00  0.00    +0.000 N 
ATOM     16  C   TYR A   1       2.219   5.907  18.553  0.00  0.00    +0.000 C 
ATOM     17  O   TYR A   1       1.682   5.451  17.546  0.00  0.00    +0.000 OA
ATOM     18  H   UNK A   2       3.655   5.666  20.031  0.00  0.00    +0.000 HD
BRANCH  16  19
ATOM     19  CA  TYR A   1       1.758   7.223  19.215  0.00  0.00    +0.000 C 
BRANCH  19  20
ATOM     20  N   TYR A   1       2.367   7.354  20.561  0.00  0.00    +0.000 NA
ATOM     21  H1  TYR A   1       3.366   7.152  20.527  0.00  0.00    +0.000 HD
ATOM     22  H2  TYR A   1       1.956   6.650  21.178  0.00  0.00    +0.000 HD
ENDBRANCH  19  20
BRANCH  19  23
ATOM     23  CB  TYR A   1       2.091   8.441  18.336  0.00  0.00    +0.000 C 
BRANCH  23  24
ATOM     24  CG  TYR A   1       1.083   9.577  18.354  0.00  0.00    +0.000 A 
ATOM     25  CD1 TYR A   1      -0.230   9.418  17.882  0.00  0.00    +0.000 A 
ATOM     26  CE1 TYR A   1      -1.146  10.473  17.930  0.00  0.00    +0.000 A 
ATOM     27  CZ  TYR A   1      -0.755  11.692  18.471  0.00  0.00    +0.000 A 
ATOM     28  CE2 TYR A   1       0.532  11.868  18.964  0.00  0.00    +0.000 A 
ATOM     29  CD2 TYR A   1       1.445  10.813  18.913  0.00  0.00    +0.000 A 
BRANCH  27  30
ATOM     30  OH  TYR A   1      -1.620  12.743  18.540  0.00  0.00    +0.000 OA
ATOM     31  HH  TYR A   1      -1.114  13.564  18.419  0.00  0.00    +0.000 HD
ENDBRANCH  27  30
ENDBRANCH  23  24
ENDBRANCH  19  23
ENDBRANCH  16  19
ENDBRANCH   1  15
BRANCH   1  32
ATOM     32  C   UNK A   2       3.978   3.092  19.893  0.00  0.00    +0.000 C 
ATOM     33  O   UNK A   2       3.121   2.974  20.760  0.00  0.00    +0.000 OA
BRANCH  32  34
ATOM     34  O   UNK A   2       5.142   2.400  19.939  0.00  0.00    +0.000 OA
ATOM     35  H   UNK A   2       5.874   2.905  20.348  0.00  0.00    +0.000 HD
ENDBRANCH  32  34
ENDBRANCH   1  32
TORSDOF 12
ENDMDL
