MODEL 1
REMARK VINA RESULT:      -8.4      0.000      0.000
REMARK  Name = 
REMARK  7 active torsions:
REMARK  status: ('A' for Active; 'I' for Inactive)
REMARK    1  A    between atoms: C_2  and  C_3
REMARK    2  A    between atoms: C_3  and  C_4
REMARK    3  A    between atoms: C_9  and  N_10
REMARK    4  A    between atoms: N_13  and  C_14
REMARK    5  A    between atoms: C_25  and  C_26
REMARK    6  A    between atoms: C_26  and  O_27
REMARK    7  A    between atoms: N_29  and  C_30
REMARK                            x       y       z     vdW  Elec       q    Type
REMARK                         _______ _______ _______ _____ _____    ______ ____
ROOT
ATOM      1  C   UNL     1      -3.410  13.053  23.805  0.00  0.00    +0.000 C 
ATOM      2  C   UNL     1      -2.591  11.858  23.311  0.00  0.00    +0.000 C 
ATOM      3  C   UNL     1      -1.136  12.279  23.077  0.00  0.00    +0.000 C 
ATOM      4  C   UNL     1      -0.414  11.383  22.129  0.00  0.00    +0.000 A 
ATOM      5  C   UNL     1       0.109  10.112  22.312  0.00  0.00    +0.000 A 
ATOM      6  C   UNL     1       0.717   9.454  21.226  0.00  0.00    +0.000 A 
ATOM      7  C   UNL     1       0.807  10.108  19.983  0.00  0.00    +0.000 A 
ATOM      8  C   UNL     1       0.263  11.388  19.809  0.00  0.00    +0.000 A 
ATOM      9  C   UNL     1      -0.329  11.999  20.894  0.00  0.00    +0.000 A 
ATOM     10  O   UNL     1      -0.898  13.246  20.872  0.00  0.00    +0.000 OA
ATOM     11  C   UNL     1      -1.004  13.595  22.282  0.00  0.00    +0.000 C 
ATOM     12  C   UNL     1      -2.128  14.618  22.541  0.00  0.00    +0.000 C 
ATOM     13  O   UNL     1      -3.419  14.014  22.739  0.00  0.00    +0.000 OA
ENDROOT
BRANCH   6  14
ATOM     14  N   UNL     1       1.262   8.149  21.334  0.00  0.00    +0.000 N 
ATOM     15  C   UNL     1       1.869   7.480  20.285  0.00  0.00    +0.000 C 
ATOM     16  O   UNL     1       2.116   7.990  19.197  0.00  0.00    +0.000 OA
ATOM     17  N   UNL     1       2.144   6.150  20.595  0.00  0.00    +0.000 N 
ATOM     18  H   UNL     1       1.488   7.813  22.259  0.00  0.00    +0.000 HD
ATOM     19  H   UNL     1       1.449   5.716  21.186  0.00  0.00    +0.000 HD
BRANCH  17  20
ATOM     20  C   UNL     1       2.712   5.326  19.590  0.00  0.00    +0.000 A 
ATOM     21  C   UNL     1       4.096   5.305  19.381  0.00  0.00    +0.000 A 
ATOM     22  C   UNL     1       4.634   4.642  18.278  0.00  0.00    +0.000 A 
ATOM     23  C   UNL     1       3.789   3.993  17.383  0.00  0.00    +0.000 A 
ATOM     24  C   UNL     1       2.414   3.963  17.620  0.00  0.00    +0.000 A 
ATOM     25  C   UNL     1       1.874   4.604  18.738  0.00  0.00    +0.000 A 
ENDBRANCH  17  20
ENDBRANCH   6  14
BRANCH   1  26
ATOM     26  C   UNL     1      -4.847  12.650  24.138  0.00  0.00    +0.000 C 
BRANCH  26  28
ATOM     27  O   UNL     1      -6.693  13.874  23.193  0.00  0.00    +0.000 OA
ATOM     28  C   UNL     1      -5.832  13.021  23.038  0.00  0.00    +0.000 C 
ATOM     29  N   UNL     1      -5.688  12.276  21.888  0.00  0.00    +0.000 N 
ATOM     30  H   UNL     1      -4.816  11.755  21.792  0.00  0.00    +0.000 HD
BRANCH  29  31
ATOM     31  C   UNL     1      -6.538  12.432  20.725  0.00  0.00    +0.000 C 
ATOM     32  C   UNL     1      -5.923  13.323  19.650  0.00  0.00    +0.000 C 
ATOM     33  C   UNL     1      -6.645  12.927  18.367  0.00  0.00    +0.000 C 
ATOM     34  C   UNL     1      -7.117  11.488  18.567  0.00  0.00    +0.000 C 
ATOM     35  C   UNL     1      -6.744  11.108  19.995  0.00  0.00    +0.000 C 
ENDBRANCH  29  31
ENDBRANCH  26  28
ENDBRANCH   1  26
BRANCH  12  36
ATOM     36  C   UNL     1      -2.241  15.636  21.390  0.00  0.00    +0.000 C 
BRANCH  36  37
ATOM     37  O   UNL     1      -3.031  15.141  20.307  0.00  0.00    +0.000 OA
ATOM     38  H   UNL     1      -3.214  14.205  20.474  0.00  0.00    +0.000 HD
ENDBRANCH  36  37
ENDBRANCH  12  36
TORSDOF 7
ENDMDL
MODEL 2
REMARK VINA RESULT:      -8.2      5.427     10.262
REMARK  Name = 
REMARK  7 active torsions:
REMARK  status: ('A' for Active; 'I' for Inactive)
REMARK    1  A    between atoms: C_2  and  C_3
REMARK    2  A    between atoms: C_3  and  C_4
REMARK    3  A    between atoms: C_9  and  N_10
REMARK    4  A    between atoms: N_13  and  C_14
REMARK    5  A    between atoms: C_25  and  C_26
REMARK    6  A    between atoms: C_26  and  O_27
REMARK    7  A    between atoms: N_29  and  C_30
REMARK                            x       y       z     vdW  Elec       q    Type
REMARK                         _______ _______ _______ _____ _____    ______ ____
ROOT
ATOM      1  C   UNL     1       1.743   4.323  18.842  0.00  0.00    +0.000 C 
ATOM      2  C   UNL     1       2.860   5.358  18.695  0.00  0.00    +0.000 C 
ATOM      3  C   UNL     1       3.664   5.087  17.419  0.00  0.00    +0.000 C 
ATOM      4  C   UNL     1       5.036   5.670  17.458  0.00  0.00    +0.000 A 
ATOM      5  C   UNL     1       5.463   6.980  17.306  0.00  0.00    +0.000 A 
ATOM      6  C   UNL     1       6.833   7.278  17.431  0.00  0.00    +0.000 A 
ATOM      7  C   UNL     1       7.747   6.236  17.682  0.00  0.00    +0.000 A 
ATOM      8  C   UNL     1       7.301   4.919  17.846  0.00  0.00    +0.000 A 
ATOM      9  C   UNL     1       5.950   4.666  17.722  0.00  0.00    +0.000 A 
ATOM     10  O   UNL     1       5.373   3.430  17.854  0.00  0.00    +0.000 OA
ATOM     11  C   UNL     1       4.058   3.605  17.252  0.00  0.00    +0.000 C 
ATOM     12  C   UNL     1       3.030   2.600  17.810  0.00  0.00    +0.000 C 
ATOM     13  O   UNL     1       2.383   3.049  19.014  0.00  0.00    +0.000 OA
ENDROOT
BRANCH   6  14
ATOM     14  N   UNL     1       7.343   8.595  17.301  0.00  0.00    +0.000 N 
ATOM     15  C   UNL     1       8.357   9.109  18.090  0.00  0.00    +0.000 C 
ATOM     16  O   UNL     1       9.007   8.445  18.890  0.00  0.00    +0.000 OA
ATOM     17  N   UNL     1       8.538  10.476  17.893  0.00  0.00    +0.000 N 
ATOM     18  H   UNL     1       7.183   9.072  16.425  0.00  0.00    +0.000 HD
ATOM     19  H   UNL     1       7.681  10.981  17.713  0.00  0.00    +0.000 HD
BRANCH  17  20
ATOM     20  C   UNL     1       9.505  11.149  18.682  0.00  0.00    +0.000 A 
ATOM     21  C   UNL     1      10.782  11.416  18.174  0.00  0.00    +0.000 A 
ATOM     22  C   UNL     1      11.786  11.908  19.009  0.00  0.00    +0.000 A 
ATOM     23  C   UNL     1      11.514  12.139  20.354  0.00  0.00    +0.000 A 
ATOM     24  C   UNL     1      10.227  11.930  20.851  0.00  0.00    +0.000 A 
ATOM     25  C   UNL     1       9.212  11.462  20.011  0.00  0.00    +0.000 A 
ENDBRANCH  17  20
ENDBRANCH   6  14
BRANCH   1  26
ATOM     26  C   UNL     1       0.860   4.615  20.056  0.00  0.00    +0.000 C 
BRANCH  26  28
ATOM     27  O   UNL     1       2.256   5.736  21.665  0.00  0.00    +0.000 OA
ATOM     28  C   UNL     1       1.343   5.816  20.857  0.00  0.00    +0.000 C 
ATOM     29  N   UNL     1       0.625   6.968  20.621  0.00  0.00    +0.000 N 
ATOM     30  H   UNL     1       0.041   6.974  19.786  0.00  0.00    +0.000 HD
BRANCH  29  31
ATOM     31  C   UNL     1       0.886   8.222  21.298  0.00  0.00    +0.000 C 
ATOM     32  C   UNL     1       0.993   9.406  20.343  0.00  0.00    +0.000 C 
ATOM     33  C   UNL     1       0.708  10.626  21.213  0.00  0.00    +0.000 C 
ATOM     34  C   UNL     1      -0.152  10.132  22.374  0.00  0.00    +0.000 C 
ATOM     35  C   UNL     1      -0.272   8.622  22.209  0.00  0.00    +0.000 C 
ENDBRANCH  29  31
ENDBRANCH  26  28
ENDBRANCH   1  26
BRANCH  12  36
ATOM     36  C   UNL     1       3.675   1.229  18.089  0.00  0.00    +0.000 C 
BRANCH  36  37
ATOM     37  O   UNL     1       4.494   1.246  19.260  0.00  0.00    +0.000 OA
ATOM     38  H   UNL     1       4.787   2.158  19.406  0.00  0.00    +0.000 HD
ENDBRANCH  36  37
ENDBRANCH  12  36
TORSDOF 7
ENDMDL
MODEL 3
REMARK VINA RESULT:      -8.0      4.111      6.545
REMARK  Name = 
REMARK  7 active torsions:
REMARK  status: ('A' for Active; 'I' for Inactive)
REMARK    1  A    between atoms: C_2  and  C_3
REMARK    2  A    between atoms: C_3  and  C_4
REMARK    3  A    between atoms: C_9  and  N_10
REMARK    4  A    between atoms: N_13  and  C_14
REMARK    5  A    between atoms: C_25  and  C_26
REMARK    6  A    between atoms: C_26  and  O_27
REMARK    7  A    between atoms: N_29  and  C_30
REMARK                            x       y       z     vdW  Elec       q    Type
REMARK                         _______ _______ _______ _____ _____    ______ ____
ROOT
ATOM      1  C   UNL     1       1.805  12.089  18.260  0.00  0.00    +0.000 C 
ATOM      2  C   UNL     1       2.560  10.767  18.106  0.00  0.00    +0.000 C 
ATOM      3  C   UNL     1       1.569   9.599  18.040  0.00  0.00    +0.000 C 
ATOM      4  C   UNL     1       2.180   8.293  18.418  0.00  0.00    +0.000 A 
ATOM      5  C   UNL     1       3.028   7.456  17.710  0.00  0.00    +0.000 A 
ATOM      6  C   UNL     1       3.503   6.279  18.320  0.00  0.00    +0.000 A 
ATOM      7  C   UNL     1       3.088   5.961  19.627  0.00  0.00    +0.000 A 
ATOM      8  C   UNL     1       2.240   6.822  20.336  0.00  0.00    +0.000 A 
ATOM      9  C   UNL     1       1.799   7.968  19.708  0.00  0.00    +0.000 A 
ATOM     10  O   UNL     1       0.966   8.898  20.276  0.00  0.00    +0.000 OA
ATOM     11  C   UNL     1       0.483   9.661  19.134  0.00  0.00    +0.000 C 
ATOM     12  C   UNL     1       0.054  11.088  19.533  0.00  0.00    +0.000 C 
ATOM     13  O   UNL     1       1.137  12.035  19.529  0.00  0.00    +0.000 OA
ENDROOT
BRANCH   6  14
ATOM     14  N   UNL     1       4.384   5.382  17.663  0.00  0.00    +0.000 N 
ATOM     15  C   UNL     1       4.875   5.584  16.384  0.00  0.00    +0.000 C 
ATOM     16  O   UNL     1       4.707   6.613  15.739  0.00  0.00    +0.000 OA
ATOM     17  N   UNL     1       5.558   4.471  15.900  0.00  0.00    +0.000 N 
ATOM     18  H   UNL     1       4.907   4.738  18.238  0.00  0.00    +0.000 HD
ATOM     19  H   UNL     1       5.168   3.588  16.198  0.00  0.00    +0.000 HD
BRANCH  17  20
ATOM     20  C   UNL     1       6.064   4.514  14.575  0.00  0.00    +0.000 A 
ATOM     21  C   UNL     1       5.479   3.745  13.562  0.00  0.00    +0.000 A 
ATOM     22  C   UNL     1       6.088   3.645  12.311  0.00  0.00    +0.000 A 
ATOM     23  C   UNL     1       7.280   4.319  12.067  0.00  0.00    +0.000 A 
ATOM     24  C   UNL     1       7.835   5.134  13.056  0.00  0.00    +0.000 A 
ATOM     25  C   UNL     1       7.214   5.257  14.302  0.00  0.00    +0.000 A 
ENDBRANCH  17  20
ENDBRANCH   6  14
BRANCH   1  26
ATOM     26  C   UNL     1       2.756  13.286  18.236  0.00  0.00    +0.000 C 
BRANCH  26  28
ATOM     27  O   UNL     1       2.826  14.992  19.933  0.00  0.00    +0.000 OA
ATOM     28  C   UNL     1       2.214  14.482  19.007  0.00  0.00    +0.000 C 
ATOM     29  N   UNL     1       0.965  14.891  18.594  0.00  0.00    +0.000 N 
ATOM     30  H   UNL     1       0.650  14.541  17.690  0.00  0.00    +0.000 HD
BRANCH  29  31
ATOM     31  C   UNL     1       0.242  15.986  19.208  0.00  0.00    +0.000 C 
ATOM     32  C   UNL     1      -0.462  16.881  18.192  0.00  0.00    +0.000 C 
ATOM     33  C   UNL     1      -1.560  17.575  18.992  0.00  0.00    +0.000 C 
ATOM     34  C   UNL     1      -1.886  16.651  20.164  0.00  0.00    +0.000 C 
ATOM     35  C   UNL     1      -0.908  15.485  20.077  0.00  0.00    +0.000 C 
ENDBRANCH  29  31
ENDBRANCH  26  28
ENDBRANCH   1  26
BRANCH  12  36
ATOM     36  C   UNL     1      -0.603  11.110  20.927  0.00  0.00    +0.000 C 
BRANCH  36  37
ATOM     37  O   UNL     1       0.362  11.085  21.980  0.00  0.00    +0.000 OA
ATOM     38  H   UNL     1       1.086  11.680  21.735  0.00  0.00    +0.000 HD
ENDBRANCH  36  37
ENDBRANCH  12  36
TORSDOF 7
ENDMDL
MODEL 4
REMARK VINA RESULT:      -7.9      5.411     10.140
REMARK  Name = 
REMARK  7 active torsions:
REMARK  status: ('A' for Active; 'I' for Inactive)
REMARK    1  A    between atoms: C_2  and  C_3
REMARK    2  A    between atoms: C_3  and  C_4
REMARK    3  A    between atoms: C_9  and  N_10
REMARK    4  A    between atoms: N_13  and  C_14
REMARK    5  A    between atoms: C_25  and  C_26
REMARK    6  A    between atoms: C_26  and  O_27
REMARK    7  A    between atoms: N_29  and  C_30
REMARK                            x       y       z     vdW  Elec       q    Type
REMARK                         _______ _______ _______ _____ _____    ______ ____
ROOT
ATOM      1  C   UNL     1       2.262   5.211  19.475  0.00  0.00    +0.000 C 
ATOM      2  C   UNL     1       3.420   6.170  19.191  0.00  0.00    +0.000 C 
ATOM      3  C   UNL     1       4.295   5.618  18.059  0.00  0.00    +0.000 C 
ATOM      4  C   UNL     1       5.680   6.170  18.069  0.00  0.00    +0.000 A 
ATOM      5  C   UNL     1       6.159   7.409  17.673  0.00  0.00    +0.000 A 
ATOM      6  C   UNL     1       7.527   7.701  17.827  0.00  0.00    +0.000 A 
ATOM      7  C   UNL     1       8.388   6.720  18.355  0.00  0.00    +0.000 A 
ATOM      8  C   UNL     1       7.889   5.476  18.762  0.00  0.00    +0.000 A 
ATOM      9  C   UNL     1       6.541   5.228  18.601  0.00  0.00    +0.000 A 
ATOM     10  O   UNL     1       5.916   4.060  18.951  0.00  0.00    +0.000 OA
ATOM     11  C   UNL     1       4.649   4.127  18.237  0.00  0.00    +0.000 C 
ATOM     12  C   UNL     1       3.554   3.284  18.922  0.00  0.00    +0.000 C 
ATOM     13  O   UNL     1       2.847   3.991  19.956  0.00  0.00    +0.000 OA
ENDROOT
BRANCH   6  14
ATOM     14  N   UNL     1       8.087   8.950  17.457  0.00  0.00    +0.000 N 
ATOM     15  C   UNL     1       8.768   9.777  18.334  0.00  0.00    +0.000 C 
ATOM     16  O   UNL     1       9.072   9.462  19.479  0.00  0.00    +0.000 OA
ATOM     17  N   UNL     1       9.047  11.023  17.775  0.00  0.00    +0.000 N 
ATOM     18  H   UNL     1       8.263   9.110  16.476  0.00  0.00    +0.000 HD
ATOM     19  H   UNL     1       8.325  11.365  17.156  0.00  0.00    +0.000 HD
BRANCH  17  20
ATOM     20  C   UNL     1       9.689  11.996  18.583  0.00  0.00    +0.000 A 
ATOM     21  C   UNL     1       9.047  13.200  18.898  0.00  0.00    +0.000 A 
ATOM     22  C   UNL     1       9.744  14.228  19.532  0.00  0.00    +0.000 A 
ATOM     23  C   UNL     1      11.086  14.053  19.859  0.00  0.00    +0.000 A 
ATOM     24  C   UNL     1      11.713  12.833  19.599  0.00  0.00    +0.000 A 
ATOM     25  C   UNL     1      11.009  11.792  18.987  0.00  0.00    +0.000 A 
ENDBRANCH  17  20
ENDBRANCH   6  14
BRANCH   1  26
ATOM     26  C   UNL     1       1.314   5.772  20.536  0.00  0.00    +0.000 C 
BRANCH  26  28
ATOM     27  O   UNL     1       1.851   7.966  19.703  0.00  0.00    +0.000 OA
ATOM     28  C   UNL     1       1.284   7.294  20.552  0.00  0.00    +0.000 C 
ATOM     29  N   UNL     1       0.608   7.826  21.628  0.00  0.00    +0.000 N 
ATOM     30  H   UNL     1       0.002   7.188  22.142  0.00  0.00    +0.000 HD
BRANCH  29  31
ATOM     31  C   UNL     1       0.483   9.251  21.864  0.00  0.00    +0.000 C 
ATOM     32  C   UNL     1      -0.344   9.962  20.798  0.00  0.00    +0.000 C 
ATOM     33  C   UNL     1      -0.818  11.244  21.476  0.00  0.00    +0.000 C 
ATOM     34  C   UNL     1      -0.840  10.953  22.975  0.00  0.00    +0.000 C 
ATOM     35  C   UNL     1      -0.290   9.542  23.147  0.00  0.00    +0.000 C 
ENDBRANCH  29  31
ENDBRANCH  26  28
ENDBRANCH   1  26
BRANCH  12  36
ATOM     36  C   UNL     1       4.135   1.992  19.529  0.00  0.00    +0.000 C 
BRANCH  36  37
ATOM     37  O   UNL     1       4.252   0.946  18.562  0.00  0.00    +0.000 OA
ATOM     38  H   UNL     1       3.774   1.221  17.766  0.00  0.00    +0.000 HD
ENDBRANCH  36  37
ENDBRANCH  12  36
TORSDOF 7
ENDMDL
MODEL 5
REMARK VINA RESULT:      -7.8      5.354      9.850
REMARK  Name = 
REMARK  7 active torsions:
REMARK  status: ('A' for Active; 'I' for Inactive)
REMARK    1  A    between atoms: C_2  and  C_3
REMARK    2  A    between atoms: C_3  and  C_4
REMARK    3  A    between atoms: C_9  and  N_10
REMARK    4  A    between atoms: N_13  and  C_14
REMARK    5  A    between atoms: C_25  and  C_26
REMARK    6  A    between atoms: C_26  and  O_27
REMARK    7  A    between atoms: N_29  and  C_30
REMARK                            x       y       z     vdW  Elec       q    Type
REMARK                         _______ _______ _______ _____ _____    ______ ____
ROOT
ATOM      1  C   UNL     1       1.995   5.613  19.711  0.00  0.00    +0.000 C 
ATOM      2  C   UNL     1       3.229   6.455  19.380  0.00  0.00    +0.000 C 
ATOM      3  C   UNL     1       3.935   5.891  18.142  0.00  0.00    +0.000 C 
ATOM      4  C   UNL     1       5.371   6.283  18.058  0.00  0.00    +0.000 A 
ATOM      5  C   UNL     1       5.957   7.486  17.696  0.00  0.00    +0.000 A 
ATOM      6  C   UNL     1       7.358   7.612  17.742  0.00  0.00    +0.000 A 
ATOM      7  C   UNL     1       8.140   6.506  18.128  0.00  0.00    +0.000 A 
ATOM      8  C   UNL     1       7.534   5.300  18.503  0.00  0.00    +0.000 A 
ATOM      9  C   UNL     1       6.158   5.216  18.451  0.00  0.00    +0.000 A 
ATOM     10  O   UNL     1       5.432   4.102  18.785  0.00  0.00    +0.000 OA
ATOM     11  C   UNL     1       4.126   4.361  18.195  0.00  0.00    +0.000 C 
ATOM     12  C   UNL     1       3.002   3.598  18.925  0.00  0.00    +0.000 C 
ATOM     13  O   UNL     1       2.472   4.305  20.061  0.00  0.00    +0.000 OA
ENDROOT
BRANCH   6  14
ATOM     14  N   UNL     1       8.027   8.815  17.399  0.00  0.00    +0.000 N 
ATOM     15  C   UNL     1       8.737   9.585  18.304  0.00  0.00    +0.000 C 
ATOM     16  O   UNL     1       8.971   9.246  19.459  0.00  0.00    +0.000 OA
ATOM     17  N   UNL     1       9.133  10.806  17.762  0.00  0.00    +0.000 N 
ATOM     18  H   UNL     1       8.253   8.961  16.425  0.00  0.00    +0.000 HD
ATOM     19  H   UNL     1       8.465  11.203  17.117  0.00  0.00    +0.000 HD
BRANCH  17  20
ATOM     20  C   UNL     1       9.817  11.725  18.597  0.00  0.00    +0.000 A 
ATOM     21  C   UNL     1       9.141  12.808  19.172  0.00  0.00    +0.000 A 
ATOM     22  C   UNL     1       9.849  13.809  19.838  0.00  0.00    +0.000 A 
ATOM     23  C   UNL     1      11.234  13.727  19.935  0.00  0.00    +0.000 A 
ATOM     24  C   UNL     1      11.906  12.620  19.415  0.00  0.00    +0.000 A 
ATOM     25  C   UNL     1      11.197  11.602  18.770  0.00  0.00    +0.000 A 
ENDBRANCH  17  20
ENDBRANCH   6  14
BRANCH   1  26
ATOM     26  C   UNL     1       1.212   6.200  20.886  0.00  0.00    +0.000 C 
BRANCH  26  28
ATOM     27  O   UNL     1       1.839   8.296  21.888  0.00  0.00    +0.000 OA
ATOM     28  C   UNL     1       1.305   7.717  20.955  0.00  0.00    +0.000 C 
ATOM     29  N   UNL     1       0.691   8.361  19.902  0.00  0.00    +0.000 N 
ATOM     30  H   UNL     1       0.473   7.789  19.087  0.00  0.00    +0.000 HD
BRANCH  29  31
ATOM     31  C   UNL     1       0.626   9.803  19.780  0.00  0.00    +0.000 C 
ATOM     32  C   UNL     1       0.149  10.265  18.407  0.00  0.00    +0.000 C 
ATOM     33  C   UNL     1      -0.374  11.679  18.640  0.00  0.00    +0.000 C 
ATOM     34  C   UNL     1      -0.792  11.744  20.107  0.00  0.00    +0.000 C 
ATOM     35  C   UNL     1      -0.416  10.401  20.722  0.00  0.00    +0.000 C 
ENDBRANCH  29  31
ENDBRANCH  26  28
ENDBRANCH   1  26
BRANCH  12  36
ATOM     36  C   UNL     1       3.476   2.210  19.397  0.00  0.00    +0.000 C 
BRANCH  36  37
ATOM     37  O   UNL     1       4.062   1.451  18.338  0.00  0.00    +0.000 OA
ATOM     38  H   UNL     1       4.613   2.049  17.811  0.00  0.00    +0.000 HD
ENDBRANCH  36  37
ENDBRANCH  12  36
TORSDOF 7
ENDMDL
MODEL 6
REMARK VINA RESULT:      -7.6      1.927      2.888
REMARK  Name = 
REMARK  7 active torsions:
REMARK  status: ('A' for Active; 'I' for Inactive)
REMARK    1  A    between atoms: C_2  and  C_3
REMARK    2  A    between atoms: C_3  and  C_4
REMARK    3  A    between atoms: C_9  and  N_10
REMARK    4  A    between atoms: N_13  and  C_14
REMARK    5  A    between atoms: C_25  and  C_26
REMARK    6  A    between atoms: C_26  and  O_27
REMARK    7  A    between atoms: N_29  and  C_30
REMARK                            x       y       z     vdW  Elec       q    Type
REMARK                         _______ _______ _______ _____ _____    ______ ____
ROOT
ATOM      1  C   UNL     1      -1.227  11.831  22.793  0.00  0.00    +0.000 C 
ATOM      2  C   UNL     1      -0.610  10.630  22.073  0.00  0.00    +0.000 C 
ATOM      3  C   UNL     1       0.700  11.040  21.393  0.00  0.00    +0.000 C 
ATOM      4  C   UNL     1       1.084  10.136  20.271  0.00  0.00    +0.000 A 
ATOM      5  C   UNL     1       1.631   8.863  20.286  0.00  0.00    +0.000 A 
ATOM      6  C   UNL     1       1.865   8.198  19.068  0.00  0.00    +0.000 A 
ATOM      7  C   UNL     1       1.564   8.848  17.856  0.00  0.00    +0.000 A 
ATOM      8  C   UNL     1       1.000  10.131  17.855  0.00  0.00    +0.000 A 
ATOM      9  C   UNL     1       0.781  10.749  19.069  0.00  0.00    +0.000 A 
ATOM     10  O   UNL     1       0.240  12.000  19.220  0.00  0.00    +0.000 OA
ATOM     11  C   UNL     1       0.584  12.353  20.590  0.00  0.00    +0.000 C 
ATOM     12  C   UNL     1      -0.398  13.384  21.184  0.00  0.00    +0.000 C 
ATOM     13  O   UNL     1      -1.565  12.789  21.779  0.00  0.00    +0.000 OA
ENDROOT
BRANCH   6  14
ATOM     14  N   UNL     1       2.409   6.889  19.006  0.00  0.00    +0.000 N 
ATOM     15  C   UNL     1       3.570   6.571  18.323  0.00  0.00    +0.000 C 
ATOM     16  O   UNL     1       4.316   7.400  17.814  0.00  0.00    +0.000 OA
ATOM     17  N   UNL     1       3.782   5.196  18.254  0.00  0.00    +0.000 N 
ATOM     18  H   UNL     1       2.122   6.231  19.716  0.00  0.00    +0.000 HD
ATOM     19  H   UNL     1       2.934   4.655  18.164  0.00  0.00    +0.000 HD
BRANCH  17  20
ATOM     20  C   UNL     1       4.905   4.722  17.529  0.00  0.00    +0.000 A 
ATOM     21  C   UNL     1       6.200   4.864  18.043  0.00  0.00    +0.000 A 
ATOM     22  C   UNL     1       7.310   4.569  17.252  0.00  0.00    +0.000 A 
ATOM     23  C   UNL     1       7.129   4.124  15.946  0.00  0.00    +0.000 A 
ATOM     24  C   UNL     1       5.839   3.925  15.450  0.00  0.00    +0.000 A 
ATOM     25  C   UNL     1       4.724   4.195  16.249  0.00  0.00    +0.000 A 
ENDBRANCH  17  20
ENDBRANCH   6  14
BRANCH   1  26
ATOM     26  C   UNL     1      -2.490  11.439  23.562  0.00  0.00    +0.000 C 
BRANCH  26  28
ATOM     27  O   UNL     1      -3.468  13.380  24.596  0.00  0.00    +0.000 OA
ATOM     28  C   UNL     1      -3.489  12.581  23.672  0.00  0.00    +0.000 C 
ATOM     29  N   UNL     1      -4.435  12.592  22.670  0.00  0.00    +0.000 N 
ATOM     30  H   UNL     1      -4.231  12.023  21.850  0.00  0.00    +0.000 HD
BRANCH  29  31
ATOM     31  C   UNL     1      -5.505  13.567  22.595  0.00  0.00    +0.000 C 
ATOM     32  C   UNL     1      -5.989  13.813  21.169  0.00  0.00    +0.000 C 
ATOM     33  C   UNL     1      -7.395  14.382  21.337  0.00  0.00    +0.000 C 
ATOM     34  C   UNL     1      -7.911  13.860  22.676  0.00  0.00    +0.000 C 
ATOM     35  C   UNL     1      -6.764  13.077  23.304  0.00  0.00    +0.000 C 
ENDBRANCH  29  31
ENDBRANCH  26  28
ENDBRANCH   1  26
BRANCH  12  36
ATOM     36  C   UNL     1      -0.860  14.399  20.121  0.00  0.00    +0.000 C 
BRANCH  36  37
ATOM     37  O   UNL     1      -1.915  13.886  19.306  0.00  0.00    +0.000 OA
ATOM     38  H   UNL     1      -2.489  13.343  19.867  0.00  0.00    +0.000 HD
ENDBRANCH  36  37
ENDBRANCH  12  36
TORSDOF 7
ENDMDL
MODEL 7
REMARK VINA RESULT:      -7.6      7.901     11.556
REMARK  Name = 
REMARK  7 active torsions:
REMARK  status: ('A' for Active; 'I' for Inactive)
REMARK    1  A    between atoms: C_2  and  C_3
REMARK    2  A    between atoms: C_3  and  C_4
REMARK    3  A    between atoms: C_9  and  N_10
REMARK    4  A    between atoms: N_13  and  C_14
REMARK    5  A    between atoms: C_25  and  C_26
REMARK    6  A    between atoms: C_26  and  O_27
REMARK    7  A    between atoms: N_29  and  C_30
REMARK                            x       y       z     vdW  Elec       q    Type
REMARK                         _______ _______ _______ _____ _____    ______ ____
ROOT
ATOM      1  C   UNL     1      10.528  13.685  19.310  0.00  0.00    +0.000 C 
ATOM      2  C   UNL     1       9.012  13.679  19.098  0.00  0.00    +0.000 C 
ATOM      3  C   UNL     1       8.627  14.701  18.022  0.00  0.00    +0.000 C 
ATOM      4  C   UNL     1       7.207  15.143  18.117  0.00  0.00    +0.000 A 
ATOM      5  C   UNL     1       6.036  14.497  17.752  0.00  0.00    +0.000 A 
ATOM      6  C   UNL     1       4.799  15.126  17.990  0.00  0.00    +0.000 A 
ATOM      7  C   UNL     1       4.775  16.409  18.569  0.00  0.00    +0.000 A 
ATOM      8  C   UNL     1       5.965  17.045  18.944  0.00  0.00    +0.000 A 
ATOM      9  C   UNL     1       7.158  16.396  18.700  0.00  0.00    +0.000 A 
ATOM     10  O   UNL     1       8.395  16.897  19.010  0.00  0.00    +0.000 OA
ATOM     11  C   UNL     1       9.301  16.075  18.219  0.00  0.00    +0.000 C 
ATOM     12  C   UNL     1      10.713  16.015  18.835  0.00  0.00    +0.000 C 
ATOM     13  O   UNL     1      10.865  14.982  19.825  0.00  0.00    +0.000 OA
ENDROOT
BRANCH   6  14
ATOM     14  N   UNL     1       3.560  14.521  17.656  0.00  0.00    +0.000 N 
ATOM     15  C   UNL     1       2.837  13.719  18.522  0.00  0.00    +0.000 C 
ATOM     16  O   UNL     1       3.123  13.552  19.703  0.00  0.00    +0.000 OA
ATOM     17  N   UNL     1       1.762  13.096  17.892  0.00  0.00    +0.000 N 
ATOM     18  H   UNL     1       3.038  14.921  16.889  0.00  0.00    +0.000 HD
ATOM     19  H   UNL     1       1.944  12.834  16.933  0.00  0.00    +0.000 HD
BRANCH  17  20
ATOM     20  C   UNL     1       0.969  12.194  18.646  0.00  0.00    +0.000 A 
ATOM     21  C   UNL     1       1.296  10.834  18.707  0.00  0.00    +0.000 A 
ATOM     22  C   UNL     1       0.417   9.922  19.291  0.00  0.00    +0.000 A 
ATOM     23  C   UNL     1      -0.790  10.367  19.820  0.00  0.00    +0.000 A 
ATOM     24  C   UNL     1      -1.094  11.730  19.813  0.00  0.00    +0.000 A 
ATOM     25  C   UNL     1      -0.203  12.650  19.252  0.00  0.00    +0.000 A 
ENDBRANCH  17  20
ENDBRANCH   6  14
BRANCH   1  26
ATOM     26  C   UNL     1      10.959  12.613  20.311  0.00  0.00    +0.000 C 
BRANCH  26  28
ATOM     27  O   UNL     1       9.412  10.773  20.440  0.00  0.00    +0.000 OA
ATOM     28  C   UNL     1       9.782  11.845  20.895  0.00  0.00    +0.000 C 
ATOM     29  N   UNL     1       9.156  12.494  21.937  0.00  0.00    +0.000 N 
ATOM     30  H   UNL     1       9.671  13.261  22.367  0.00  0.00    +0.000 HD
BRANCH  29  31
ATOM     31  C   UNL     1       7.992  11.966  22.620  0.00  0.00    +0.000 C 
ATOM     32  C   UNL     1       8.265  11.609  24.077  0.00  0.00    +0.000 C 
ATOM     33  C   UNL     1       6.890  11.621  24.737  0.00  0.00    +0.000 C 
ATOM     34  C   UNL     1       6.023  12.563  23.904  0.00  0.00    +0.000 C 
ATOM     35  C   UNL     1       6.880  13.007  22.725  0.00  0.00    +0.000 C 
ENDBRANCH  29  31
ENDBRANCH  26  28
ENDBRANCH   1  26
BRANCH  12  36
ATOM     36  C   UNL     1      11.107  17.361  19.476  0.00  0.00    +0.000 C 
BRANCH  36  37
ATOM     37  O   UNL     1      10.590  17.500  20.800  0.00  0.00    +0.000 OA
ATOM     38  H   UNL     1       9.632  17.368  20.763  0.00  0.00    +0.000 HD
ENDBRANCH  36  37
ENDBRANCH  12  36
TORSDOF 7
ENDMDL
MODEL 8
REMARK VINA RESULT:      -7.6      7.582      9.601
REMARK  Name = 
REMARK  7 active torsions:
REMARK  status: ('A' for Active; 'I' for Inactive)
REMARK    1  A    between atoms: C_2  and  C_3
REMARK    2  A    between atoms: C_3  and  C_4
REMARK    3  A    between atoms: C_9  and  N_10
REMARK    4  A    between atoms: N_13  and  C_14
REMARK    5  A    between atoms: C_25  and  C_26
REMARK    6  A    between atoms: C_26  and  O_27
REMARK    7  A    between atoms: N_29  and  C_30
REMARK                            x       y       z     vdW  Elec       q    Type
REMARK                         _______ _______ _______ _____ _____    ______ ____
ROOT
ATOM      1  C   UNL     1       7.627  14.982  22.644  0.00  0.00    +0.000 C 
ATOM      2  C   UNL     1       7.732  13.624  21.945  0.00  0.00    +0.000 C 
ATOM      3  C   UNL     1       9.183  13.355  21.533  0.00  0.00    +0.000 C 
ATOM      4  C   UNL     1       9.302  12.365  20.424  0.00  0.00    +0.000 A 
ATOM      5  C   UNL     1       9.174  10.985  20.431  0.00  0.00    +0.000 A 
ATOM      6  C   UNL     1       9.293  10.276  19.221  0.00  0.00    +0.000 A 
ATOM      7  C   UNL     1       9.566  10.978  18.031  0.00  0.00    +0.000 A 
ATOM      8  C   UNL     1       9.681  12.374  18.037  0.00  0.00    +0.000 A 
ATOM      9  C   UNL     1       9.553  13.036  19.241  0.00  0.00    +0.000 A 
ATOM     10  O   UNL     1       9.644  14.395  19.397  0.00  0.00    +0.000 OA
ATOM     11  C   UNL     1       9.849  14.557  20.830  0.00  0.00    +0.000 C 
ATOM     12  C   UNL     1       9.373  15.936  21.329  0.00  0.00    +0.000 C 
ATOM     13  O   UNL     1       7.975  15.975  21.666  0.00  0.00    +0.000 OA
ENDROOT
BRANCH   6  14
ATOM     14  N   UNL     1       9.161   8.866  19.147  0.00  0.00    +0.000 N 
ATOM     15  C   UNL     1       8.178   8.222  18.415  0.00  0.00    +0.000 C 
ATOM     16  O   UNL     1       7.404   8.793  17.655  0.00  0.00    +0.000 OA
ATOM     17  N   UNL     1       8.148   6.851  18.663  0.00  0.00    +0.000 N 
ATOM     18  H   UNL     1       9.971   8.309  19.379  0.00  0.00    +0.000 HD
ATOM     19  H   UNL     1       8.364   6.603  19.618  0.00  0.00    +0.000 HD
BRANCH  17  20
ATOM     20  C   UNL     1       7.148   6.073  18.026  0.00  0.00    +0.000 A 
ATOM     21  C   UNL     1       7.185   5.854  16.644  0.00  0.00    +0.000 A 
ATOM     22  C   UNL     1       6.108   5.249  15.995  0.00  0.00    +0.000 A 
ATOM     23  C   UNL     1       4.992   4.857  16.729  0.00  0.00    +0.000 A 
ATOM     24  C   UNL     1       4.976   5.020  18.115  0.00  0.00    +0.000 A 
ATOM     25  C   UNL     1       6.065   5.602  18.771  0.00  0.00    +0.000 A 
ENDBRANCH  17  20
ENDBRANCH   6  14
BRANCH   1  26
ATOM     26  C   UNL     1       6.209  15.245  23.152  0.00  0.00    +0.000 C 
BRANCH  26  28
ATOM     27  O   UNL     1       4.439  13.883  22.253  0.00  0.00    +0.000 OA
ATOM     28  C   UNL     1       5.141  14.876  22.132  0.00  0.00    +0.000 C 
ATOM     29  N   UNL     1       5.082  15.731  21.053  0.00  0.00    +0.000 N 
ATOM     30  H   UNL     1       5.554  16.628  21.160  0.00  0.00    +0.000 HD
BRANCH  29  31
ATOM     31  C   UNL     1       4.166  15.552  19.944  0.00  0.00    +0.000 C 
ATOM     32  C   UNL     1       3.554  16.862  19.458  0.00  0.00    +0.000 C 
ATOM     33  C   UNL     1       3.108  16.568  18.029  0.00  0.00    +0.000 C 
ATOM     34  C   UNL     1       3.999  15.434  17.527  0.00  0.00    +0.000 C 
ATOM     35  C   UNL     1       4.881  15.027  18.702  0.00  0.00    +0.000 C 
ENDBRANCH  29  31
ENDBRANCH  26  28
ENDBRANCH   1  26
BRANCH  12  36
ATOM     36  C   UNL     1       9.650  17.038  20.287  0.00  0.00    +0.000 C 
BRANCH  36  37
ATOM     37  O   UNL     1      11.006  17.030  19.839  0.00  0.00    +0.000 OA
ATOM     38  H   UNL     1      11.358  16.136  19.968  0.00  0.00    +0.000 HD
ENDBRANCH  36  37
ENDBRANCH  12  36
TORSDOF 7
ENDMDL
MODEL 9
REMARK VINA RESULT:      -7.6      1.837      2.113
REMARK  Name = 
REMARK  7 active torsions:
REMARK  status: ('A' for Active; 'I' for Inactive)
REMARK    1  A    between atoms: C_2  and  C_3
REMARK    2  A    between atoms: C_3  and  C_4
REMARK    3  A    between atoms: C_9  and  N_10
REMARK    4  A    between atoms: N_13  and  C_14
REMARK    5  A    between atoms: C_25  and  C_26
REMARK    6  A    between atoms: C_26  and  O_27
REMARK    7  A    between atoms: N_29  and  C_30
REMARK                            x       y       z     vdW  Elec       q    Type
REMARK                         _______ _______ _______ _____ _____    ______ ____
ROOT
ATOM      1  C   UNL     1      -1.927  13.596  22.208  0.00  0.00    +0.000 C 
ATOM      2  C   UNL     1      -1.406  12.168  22.031  0.00  0.00    +0.000 C 
ATOM      3  C   UNL     1       0.097  12.189  21.734  0.00  0.00    +0.000 C 
ATOM      4  C   UNL     1       0.573  10.956  21.043  0.00  0.00    +0.000 A 
ATOM      5  C   UNL     1       0.810   9.682  21.535  0.00  0.00    +0.000 A 
ATOM      6  C   UNL     1       1.223   8.667  20.651  0.00  0.00    +0.000 A 
ATOM      7  C   UNL     1       1.413   8.971  19.289  0.00  0.00    +0.000 A 
ATOM      8  C   UNL     1       1.158  10.260  18.803  0.00  0.00    +0.000 A 
ATOM      9  C   UNL     1       0.750  11.227  19.698  0.00  0.00    +0.000 A 
ATOM     10  O   UNL     1       0.469  12.527  19.367  0.00  0.00    +0.000 OA
ATOM     11  C   UNL     1       0.488  13.215  20.650  0.00  0.00    +0.000 C 
ATOM     12  C   UNL     1      -0.375  14.493  20.633  0.00  0.00    +0.000 C 
ATOM     13  O   UNL     1      -1.760  14.254  20.942  0.00  0.00    +0.000 OA
ENDROOT
BRANCH   6  14
ATOM     14  N   UNL     1       1.471   7.338  21.079  0.00  0.00    +0.000 N 
ATOM     15  C   UNL     1       1.899   6.326  20.237  0.00  0.00    +0.000 C 
ATOM     16  O   UNL     1       2.232   6.499  19.069  0.00  0.00    +0.000 OA
ATOM     17  N   UNL     1       1.882   5.079  20.858  0.00  0.00    +0.000 N 
ATOM     18  H   UNL     1       1.635   7.188  22.064  0.00  0.00    +0.000 HD
ATOM     19  H   UNL     1       1.120   4.957  21.510  0.00  0.00    +0.000 HD
BRANCH  17  20
ATOM     20  C   UNL     1       2.238   3.939  20.093  0.00  0.00    +0.000 A 
ATOM     21  C   UNL     1       3.581   3.580  19.928  0.00  0.00    +0.000 A 
ATOM     22  C   UNL     1       3.939   2.576  19.029  0.00  0.00    +0.000 A 
ATOM     23  C   UNL     1       2.953   1.923  18.296  0.00  0.00    +0.000 A 
ATOM     24  C   UNL     1       1.609   2.237  18.500  0.00  0.00    +0.000 A 
ATOM     25  C   UNL     1       1.245   3.225  19.420  0.00  0.00    +0.000 A 
ENDBRANCH  17  20
ENDBRANCH   6  14
BRANCH   1  26
ATOM     26  C   UNL     1      -3.406  13.612  22.597  0.00  0.00    +0.000 C 
BRANCH  26  28
ATOM     27  O   UNL     1      -5.228  12.122  22.092  0.00  0.00    +0.000 OA
ATOM     28  C   UNL     1      -4.263  12.750  21.682  0.00  0.00    +0.000 C 
ATOM     29  N   UNL     1      -3.820  12.709  20.378  0.00  0.00    +0.000 N 
ATOM     30  H   UNL     1      -3.150  13.427  20.106  0.00  0.00    +0.000 HD
BRANCH  29  31
ATOM     31  C   UNL     1      -4.461  11.923  19.343  0.00  0.00    +0.000 C 
ATOM     32  C   UNL     1      -5.622  12.652  18.673  0.00  0.00    +0.000 C 
ATOM     33  C   UNL     1      -5.783  11.956  17.325  0.00  0.00    +0.000 C 
ATOM     34  C   UNL     1      -4.417  11.366  16.982  0.00  0.00    +0.000 C 
ATOM     35  C   UNL     1      -3.514  11.647  18.178  0.00  0.00    +0.000 C 
ENDBRANCH  29  31
ENDBRANCH  26  28
ENDBRANCH   1  26
BRANCH  12  36
ATOM     36  C   UNL     1      -0.299  15.207  19.270  0.00  0.00    +0.000 C 
BRANCH  36  37
ATOM     37  O   UNL     1      -0.860  14.421  18.217  0.00  0.00    +0.000 OA
ATOM     38  H   UNL     1      -0.571  13.505  18.342  0.00  0.00    +0.000 HD
ENDBRANCH  36  37
ENDBRANCH  12  36
TORSDOF 7
ENDMDL
