MODEL 1
REMARK VINA RESULT:      -8.4      0.000      0.000
REMARK  Name = 
REMARK  9 active torsions:
REMARK  status: ('A' for Active; 'I' for Inactive)
REMARK    1  A    between atoms: C_1  and  O_2
REMARK    2  A    between atoms: O_2  and  C_3
REMARK    3  A    between atoms: C_6  and  S_7
REMARK    4  A    between atoms: S_7  and  N_8
REMARK    5  A    between atoms: C_12  and  C_13
REMARK    6  A    between atoms: N_15  and  C_16
REMARK    7  A    between atoms: C_16  and  C_17
REMARK    8  A    between atoms: N_21  and  C_22
REMARK    9  A    between atoms: C_22  and  C_23
REMARK                            x       y       z     vdW  Elec       q    Type
REMARK                         _______ _______ _______ _____ _____    ______ ____
ROOT
ATOM      1  C   UNL     1       2.726   7.496  18.196  0.00  0.00    +0.000 C 
ATOM      2  O   UNL     1       2.713   8.177  17.171  0.00  0.00    +0.000 OA
ATOM      3  N   UNL     1       2.093   7.913  19.351  0.00  0.00    +0.000 N 
ATOM      4  H   UNL     1       2.077   7.282  20.147  0.00  0.00    +0.000 HD
ENDROOT
BRANCH   1  10
ATOM      5  C   UNL     1       3.052   4.999  18.806  0.00  0.00    +0.000 A 
ATOM      6  C   UNL     1       3.877   3.858  18.748  0.00  0.00    +0.000 A 
ATOM      7  C   UNL     1       5.067   3.862  18.027  0.00  0.00    +0.000 A 
ATOM      8  C   UNL     1       5.464   5.023  17.378  0.00  0.00    +0.000 A 
ATOM      9  C   UNL     1       4.698   6.189  17.478  0.00  0.00    +0.000 A 
ATOM     10  C   UNL     1       3.479   6.195  18.194  0.00  0.00    +0.000 A 
BRANCH   8  11
ATOM     11  S   UNL     1       6.975   5.002  16.463  0.00  0.00    +0.000 S 
ATOM     12  O   UNL     1       6.826   4.157  15.306  0.00  0.00    +0.000 OA
ATOM     13  O   UNL     1       7.493   6.351  16.379  0.00  0.00    +0.000 OA
BRANCH  11  14
ATOM     14  N   UNL     1       7.992   4.184  17.516  0.00  0.00    +0.000 NA
ATOM     15  H   UNL     1       7.850   4.526  18.467  0.00  0.00    +0.000 HD
ATOM     16  H   UNL     1       7.864   3.176  17.417  0.00  0.00    +0.000 HD
ENDBRANCH  11  14
ENDBRANCH   8  11
BRANCH   5  18
ATOM     17  C   UNL     1       1.920   4.538  20.820  0.00  0.00    +0.000 C 
ATOM     18  O   UNL     1       1.841   4.965  19.456  0.00  0.00    +0.000 OA
ENDBRANCH   5  18
ENDBRANCH   1  10
BRANCH   3  19
ATOM     19  C   UNL     1       1.280   9.125  19.378  0.00  0.00    +0.000 C 
BRANCH  19  20
ATOM     20  C   UNL     1       0.977   9.715  20.785  0.00  0.00    +0.000 C 
ATOM     21  C   UNL     1       0.058   8.748  21.549  0.00  0.00    +0.000 C 
ATOM     22  C   UNL     1      -0.607   9.604  22.600  0.00  0.00    +0.000 C 
ATOM     23  C   UNL     1      -0.774  10.933  21.894  0.00  0.00    +0.000 C 
ATOM     24  N   UNL     1       0.364  11.058  20.967  0.00  0.00    +0.000 NA
BRANCH  24  25
ATOM     25  C   UNL     1       0.013  11.765  19.725  0.00  0.00    +0.000 C 
BRANCH  25  26
ATOM     26  C   UNL     1      -1.370  11.453  19.173  0.00  0.00    +0.000 A 
ATOM     27  C   UNL     1      -1.596  10.357  18.324  0.00  0.00    +0.000 A 
ATOM     28  C   UNL     1      -2.865  10.129  17.787  0.00  0.00    +0.000 A 
ATOM     29  C   UNL     1      -3.914  10.977  18.121  0.00  0.00    +0.000 A 
ATOM     30  F   UNL     1      -5.124  10.779  17.580  0.00  0.00    +0.000 F 
ATOM     31  C   UNL     1      -3.728  12.031  19.007  0.00  0.00    +0.000 A 
ATOM     32  C   UNL     1      -2.459  12.263  19.541  0.00  0.00    +0.000 A 
ENDBRANCH  25  26
ENDBRANCH  24  25
ENDBRANCH  19  20
ENDBRANCH   3  19
TORSDOF 8
ENDMDL
MODEL 2
REMARK VINA RESULT:      -8.2      2.793      3.722
REMARK  Name = 
REMARK  9 active torsions:
REMARK  status: ('A' for Active; 'I' for Inactive)
REMARK    1  A    between atoms: C_1  and  O_2
REMARK    2  A    between atoms: O_2  and  C_3
REMARK    3  A    between atoms: C_6  and  S_7
REMARK    4  A    between atoms: S_7  and  N_8
REMARK    5  A    between atoms: C_12  and  C_13
REMARK    6  A    between atoms: N_15  and  C_16
REMARK    7  A    between atoms: C_16  and  C_17
REMARK    8  A    between atoms: N_21  and  C_22
REMARK    9  A    between atoms: C_22  and  C_23
REMARK                            x       y       z     vdW  Elec       q    Type
REMARK                         _______ _______ _______ _____ _____    ______ ____
ROOT
ATOM      1  C   UNL     1       2.593   7.693  18.322  0.00  0.00    +0.000 C 
ATOM      2  O   UNL     1       2.488   8.443  17.352  0.00  0.00    +0.000 OA
ATOM      3  N   UNL     1       2.016   7.997  19.539  0.00  0.00    +0.000 N 
ATOM      4  H   UNL     1       2.075   7.312  20.286  0.00  0.00    +0.000 HD
ENDROOT
BRANCH   1  10
ATOM      5  C   UNL     1       2.995   5.149  18.608  0.00  0.00    +0.000 A 
ATOM      6  C   UNL     1       3.867   4.056  18.435  0.00  0.00    +0.000 A 
ATOM      7  C   UNL     1       5.082   4.197  17.773  0.00  0.00    +0.000 A 
ATOM      8  C   UNL     1       5.457   5.449  17.302  0.00  0.00    +0.000 A 
ATOM      9  C   UNL     1       4.642   6.563  17.523  0.00  0.00    +0.000 A 
ATOM     10  C   UNL     1       3.397   6.430  18.179  0.00  0.00    +0.000 A 
BRANCH   8  11
ATOM     11  S   UNL     1       7.002   5.603  16.459  0.00  0.00    +0.000 S 
ATOM     12  O   UNL     1       7.534   6.926  16.664  0.00  0.00    +0.000 OA
ATOM     13  O   UNL     1       7.784   4.407  16.687  0.00  0.00    +0.000 OA
BRANCH  11  14
ATOM     14  N   UNL     1       6.516   5.535  14.855  0.00  0.00    +0.000 NA
ATOM     15  H   UNL     1       6.639   6.450  14.420  0.00  0.00    +0.000 HD
ATOM     16  H   UNL     1       7.003   4.780  14.371  0.00  0.00    +0.000 HD
ENDBRANCH  11  14
ENDBRANCH   8  11
BRANCH   5  18
ATOM     17  C   UNL     1       1.815   4.557  20.559  0.00  0.00    +0.000 C 
ATOM     18  O   UNL     1       1.762   4.986  19.194  0.00  0.00    +0.000 OA
ENDBRANCH   5  18
ENDBRANCH   1  10
BRANCH   3  19
ATOM     19  C   UNL     1       1.157   9.166  19.703  0.00  0.00    +0.000 C 
BRANCH  19  20
ATOM     20  C   UNL     1       0.980   9.688  21.157  0.00  0.00    +0.000 C 
ATOM     21  C   UNL     1      -0.115   8.866  21.857  0.00  0.00    +0.000 C 
ATOM     22  C   UNL     1      -0.592   9.750  22.985  0.00  0.00    +0.000 C 
ATOM     23  C   UNL     1      -0.488  11.138  22.390  0.00  0.00    +0.000 C 
ATOM     24  N   UNL     1       0.652  11.107  21.457  0.00  0.00    +0.000 NA
BRANCH  24  25
ATOM     25  C   UNL     1       0.449  11.969  20.282  0.00  0.00    +0.000 C 
BRANCH  25  26
ATOM     26  C   UNL     1       1.633  12.853  19.917  0.00  0.00    +0.000 A 
ATOM     27  C   UNL     1       2.300  13.628  20.879  0.00  0.00    +0.000 A 
ATOM     28  C   UNL     1       3.347  14.473  20.505  0.00  0.00    +0.000 A 
ATOM     29  C   UNL     1       3.747  14.522  19.175  0.00  0.00    +0.000 A 
ATOM     30  F   UNL     1       4.729  15.357  18.809  0.00  0.00    +0.000 F 
ATOM     31  C   UNL     1       3.142  13.718  18.216  0.00  0.00    +0.000 A 
ATOM     32  C   UNL     1       2.093  12.877  18.588  0.00  0.00    +0.000 A 
ENDBRANCH  25  26
ENDBRANCH  24  25
ENDBRANCH  19  20
ENDBRANCH   3  19
TORSDOF 8
ENDMDL
MODEL 3
REMARK VINA RESULT:      -8.2      0.929      1.327
REMARK  Name = 
REMARK  9 active torsions:
REMARK  status: ('A' for Active; 'I' for Inactive)
REMARK    1  A    between atoms: C_1  and  O_2
REMARK    2  A    between atoms: O_2  and  C_3
REMARK    3  A    between atoms: C_6  and  S_7
REMARK    4  A    between atoms: S_7  and  N_8
REMARK    5  A    between atoms: C_12  and  C_13
REMARK    6  A    between atoms: N_15  and  C_16
REMARK    7  A    between atoms: C_16  and  C_17
REMARK    8  A    between atoms: N_21  and  C_22
REMARK    9  A    between atoms: C_22  and  C_23
REMARK                            x       y       z     vdW  Elec       q    Type
REMARK                         _______ _______ _______ _____ _____    ______ ____
ROOT
ATOM      1  C   UNL     1       2.570   7.571  18.452  0.00  0.00    +0.000 C 
ATOM      2  O   UNL     1       2.385   8.257  17.447  0.00  0.00    +0.000 OA
ATOM      3  N   UNL     1       2.053   7.931  19.681  0.00  0.00    +0.000 N 
ATOM      4  H   UNL     1       2.178   7.294  20.462  0.00  0.00    +0.000 HD
ENDROOT
BRANCH   1  10
ATOM      5  C   UNL     1       3.104   5.078  18.913  0.00  0.00    +0.000 A 
ATOM      6  C   UNL     1       3.999   4.002  18.747  0.00  0.00    +0.000 A 
ATOM      7  C   UNL     1       5.136   4.124  17.954  0.00  0.00    +0.000 A 
ATOM      8  C   UNL     1       5.410   5.340  17.341  0.00  0.00    +0.000 A 
ATOM      9  C   UNL     1       4.575   6.442  17.547  0.00  0.00    +0.000 A 
ATOM     10  C   UNL     1       3.408   6.328  18.337  0.00  0.00    +0.000 A 
BRANCH   8  11
ATOM     11  S   UNL     1       6.856   5.468  16.334  0.00  0.00    +0.000 S 
ATOM     12  O   UNL     1       7.820   4.479  16.745  0.00  0.00    +0.000 OA
ATOM     13  O   UNL     1       6.455   5.636  14.954  0.00  0.00    +0.000 OA
BRANCH  11  14
ATOM     14  N   UNL     1       7.469   6.952  16.817  0.00  0.00    +0.000 NA
ATOM     15  H   UNL     1       8.130   6.818  17.584  0.00  0.00    +0.000 HD
ATOM     16  H   UNL     1       7.863   7.449  16.016  0.00  0.00    +0.000 HD
ENDBRANCH  11  14
ENDBRANCH   8  11
BRANCH   5  18
ATOM     17  C   UNL     1       2.131   4.361  20.935  0.00  0.00    +0.000 C 
ATOM     18  O   UNL     1       1.943   4.928  19.634  0.00  0.00    +0.000 OA
ENDBRANCH   5  18
ENDBRANCH   1  10
BRANCH   3  19
ATOM     19  C   UNL     1       1.164   9.080  19.826  0.00  0.00    +0.000 C 
BRANCH  19  20
ATOM     20  C   UNL     1       0.962   9.611  21.274  0.00  0.00    +0.000 C 
ATOM     21  C   UNL     1      -0.120   8.769  21.971  0.00  0.00    +0.000 C 
ATOM     22  C   UNL     1      -0.629   9.652  23.086  0.00  0.00    +0.000 C 
ATOM     23  C   UNL     1      -0.552  11.036  22.480  0.00  0.00    +0.000 C 
ATOM     24  N   UNL     1       0.597  11.024  21.557  0.00  0.00    +0.000 NA
BRANCH  24  25
ATOM     25  C   UNL     1       0.385  11.871  20.372  0.00  0.00    +0.000 C 
BRANCH  25  26
ATOM     26  C   UNL     1      -1.048  11.925  19.864  0.00  0.00    +0.000 A 
ATOM     27  C   UNL     1      -1.995  12.801  20.419  0.00  0.00    +0.000 A 
ATOM     28  C   UNL     1      -3.318  12.789  19.970  0.00  0.00    +0.000 A 
ATOM     29  C   UNL     1      -3.687  11.923  18.948  0.00  0.00    +0.000 A 
ATOM     30  F   UNL     1      -4.963  11.887  18.540  0.00  0.00    +0.000 F 
ATOM     31  C   UNL     1      -2.753  11.091  18.343  0.00  0.00    +0.000 A 
ATOM     32  C   UNL     1      -1.433  11.099  18.793  0.00  0.00    +0.000 A 
ENDBRANCH  25  26
ENDBRANCH  24  25
ENDBRANCH  19  20
ENDBRANCH   3  19
TORSDOF 8
ENDMDL
MODEL 4
REMARK VINA RESULT:      -8.2      2.365      3.178
REMARK  Name = 
REMARK  9 active torsions:
REMARK  status: ('A' for Active; 'I' for Inactive)
REMARK    1  A    between atoms: C_1  and  O_2
REMARK    2  A    between atoms: O_2  and  C_3
REMARK    3  A    between atoms: C_6  and  S_7
REMARK    4  A    between atoms: S_7  and  N_8
REMARK    5  A    between atoms: C_12  and  C_13
REMARK    6  A    between atoms: N_15  and  C_16
REMARK    7  A    between atoms: C_16  and  C_17
REMARK    8  A    between atoms: N_21  and  C_22
REMARK    9  A    between atoms: C_22  and  C_23
REMARK                            x       y       z     vdW  Elec       q    Type
REMARK                         _______ _______ _______ _____ _____    ______ ____
ROOT
ATOM      1  C   UNL     1       2.658   7.537  18.493  0.00  0.00    +0.000 C 
ATOM      2  O   UNL     1       2.624   8.243  17.487  0.00  0.00    +0.000 OA
ATOM      3  N   UNL     1       1.988   7.888  19.649  0.00  0.00    +0.000 N 
ATOM      4  H   UNL     1       1.994   7.236  20.427  0.00  0.00    +0.000 HD
ENDROOT
BRANCH   1  10
ATOM      5  C   UNL     1       3.169   5.083  19.153  0.00  0.00    +0.000 A 
ATOM      6  C   UNL     1       4.045   3.984  19.061  0.00  0.00    +0.000 A 
ATOM      7  C   UNL     1       5.167   4.022  18.238  0.00  0.00    +0.000 A 
ATOM      8  C   UNL     1       5.445   5.177  17.520  0.00  0.00    +0.000 A 
ATOM      9  C   UNL     1       4.629   6.305  17.649  0.00  0.00    +0.000 A 
ATOM     10  C   UNL     1       3.477   6.276  18.468  0.00  0.00    +0.000 A 
BRANCH   8  11
ATOM     11  S   UNL     1       6.870   5.198  16.477  0.00  0.00    +0.000 S 
ATOM     12  O   UNL     1       6.587   4.487  15.257  0.00  0.00    +0.000 OA
ATOM     13  O   UNL     1       7.441   6.528  16.488  0.00  0.00    +0.000 OA
BRANCH  11  14
ATOM     14  N   UNL     1       7.934   4.236  17.346  0.00  0.00    +0.000 NA
ATOM     15  H   UNL     1       8.713   4.803  17.684  0.00  0.00    +0.000 HD
ATOM     16  H   UNL     1       7.436   3.738  18.085  0.00  0.00    +0.000 HD
ENDBRANCH  11  14
ENDBRANCH   8  11
BRANCH   5  18
ATOM     17  C   UNL     1       2.170   4.288  21.133  0.00  0.00    +0.000 C 
ATOM     18  O   UNL     1       2.021   5.012  19.907  0.00  0.00    +0.000 OA
ENDBRANCH   5  18
ENDBRANCH   1  10
BRANCH   3  19
ATOM     19  C   UNL     1       1.114   9.056  19.696  0.00  0.00    +0.000 C 
BRANCH  19  20
ATOM     20  C   UNL     1       0.985   9.760  21.077  0.00  0.00    +0.000 C 
ATOM     21  C   UNL     1       0.137   8.882  22.012  0.00  0.00    +0.000 C 
ATOM     22  C   UNL     1      -0.386   9.835  23.060  0.00  0.00    +0.000 C 
ATOM     23  C   UNL     1      -0.603  11.111  22.274  0.00  0.00    +0.000 C 
ATOM     24  N   UNL     1       0.426  11.131  21.220  0.00  0.00    +0.000 NA
BRANCH  24  25
ATOM     25  C   UNL     1      -0.048  11.752  19.973  0.00  0.00    +0.000 C 
BRANCH  25  26
ATOM     26  C   UNL     1       0.844  12.855  19.421  0.00  0.00    +0.000 A 
ATOM     27  C   UNL     1       0.512  14.212  19.561  0.00  0.00    +0.000 A 
ATOM     28  C   UNL     1       1.320  15.200  18.994  0.00  0.00    +0.000 A 
ATOM     29  C   UNL     1       2.475  14.833  18.313  0.00  0.00    +0.000 A 
ATOM     30  F   UNL     1       3.233  15.778  17.740  0.00  0.00    +0.000 F 
ATOM     31  C   UNL     1       2.855  13.501  18.214  0.00  0.00    +0.000 A 
ATOM     32  C   UNL     1       2.046  12.513  18.776  0.00  0.00    +0.000 A 
ENDBRANCH  25  26
ENDBRANCH  24  25
ENDBRANCH  19  20
ENDBRANCH   3  19
TORSDOF 8
ENDMDL
MODEL 5
REMARK VINA RESULT:      -8.1      2.493      3.168
REMARK  Name = 
REMARK  9 active torsions:
REMARK  status: ('A' for Active; 'I' for Inactive)
REMARK    1  A    between atoms: C_1  and  O_2
REMARK    2  A    between atoms: O_2  and  C_3
REMARK    3  A    between atoms: C_6  and  S_7
REMARK    4  A    between atoms: S_7  and  N_8
REMARK    5  A    between atoms: C_12  and  C_13
REMARK    6  A    between atoms: N_15  and  C_16
REMARK    7  A    between atoms: C_16  and  C_17
REMARK    8  A    between atoms: N_21  and  C_22
REMARK    9  A    between atoms: C_22  and  C_23
REMARK                            x       y       z     vdW  Elec       q    Type
REMARK                         _______ _______ _______ _____ _____    ______ ____
ROOT
ATOM      1  C   UNL     1       2.589   7.601  18.579  0.00  0.00    +0.000 C 
ATOM      2  O   UNL     1       2.423   8.226  17.532  0.00  0.00    +0.000 OA
ATOM      3  N   UNL     1       1.967   7.975  19.754  0.00  0.00    +0.000 N 
ATOM      4  H   UNL     1       2.085   7.384  20.571  0.00  0.00    +0.000 HD
ENDROOT
BRANCH   1  10
ATOM      5  C   UNL     1       3.386   5.269  19.383  0.00  0.00    +0.000 A 
ATOM      6  C   UNL     1       4.352   4.248  19.298  0.00  0.00    +0.000 A 
ATOM      7  C   UNL     1       5.390   4.309  18.373  0.00  0.00    +0.000 A 
ATOM      8  C   UNL     1       5.493   5.416  17.541  0.00  0.00    +0.000 A 
ATOM      9  C   UNL     1       4.588   6.475  17.655  0.00  0.00    +0.000 A 
ATOM     10  C   UNL     1       3.519   6.419  18.578  0.00  0.00    +0.000 A 
BRANCH   8  11
ATOM     11  S   UNL     1       6.815   5.469  16.371  0.00  0.00    +0.000 S 
ATOM     12  O   UNL     1       7.764   4.426  16.667  0.00  0.00    +0.000 OA
ATOM     13  O   UNL     1       6.265   5.666  15.048  0.00  0.00    +0.000 OA
BRANCH  11  14
ATOM     14  N   UNL     1       7.563   6.914  16.777  0.00  0.00    +0.000 NA
ATOM     15  H   UNL     1       7.772   7.443  15.929  0.00  0.00    +0.000 HD
ATOM     16  H   UNL     1       6.995   7.427  17.453  0.00  0.00    +0.000 HD
ENDBRANCH  11  14
ENDBRANCH   8  11
BRANCH   5  18
ATOM     17  C   UNL     1       2.297   3.954  21.006  0.00  0.00    +0.000 C 
ATOM     18  O   UNL     1       2.319   5.166  20.245  0.00  0.00    +0.000 OA
ENDBRANCH   5  18
ENDBRANCH   1  10
BRANCH   3  19
ATOM     19  C   UNL     1       0.992   9.061  19.786  0.00  0.00    +0.000 C 
BRANCH  19  20
ATOM     20  C   UNL     1       0.852   9.816  21.138  0.00  0.00    +0.000 C 
ATOM     21  C   UNL     1      -0.032   8.989  22.086  0.00  0.00    +0.000 C 
ATOM     22  C   UNL     1      -0.554   9.990  23.090  0.00  0.00    +0.000 C 
ATOM     23  C   UNL     1      -0.729  11.241  22.256  0.00  0.00    +0.000 C 
ATOM     24  N   UNL     1       0.320  11.202  21.223  0.00  0.00    +0.000 NA
BRANCH  24  25
ATOM     25  C   UNL     1      -0.116  11.788  19.946  0.00  0.00    +0.000 C 
BRANCH  25  26
ATOM     26  C   UNL     1       0.821  12.834  19.360  0.00  0.00    +0.000 A 
ATOM     27  C   UNL     1       2.000  12.475  18.686  0.00  0.00    +0.000 A 
ATOM     28  C   UNL     1       2.869  13.458  18.209  0.00  0.00    +0.000 A 
ATOM     29  C   UNL     1       2.547  14.799  18.378  0.00  0.00    +0.000 A 
ATOM     30  F   UNL     1       3.397  15.742  17.950  0.00  0.00    +0.000 F 
ATOM     31  C   UNL     1       1.357  15.178  18.987  0.00  0.00    +0.000 A 
ATOM     32  C   UNL     1       0.490  14.197  19.468  0.00  0.00    +0.000 A 
ENDBRANCH  25  26
ENDBRANCH  24  25
ENDBRANCH  19  20
ENDBRANCH   3  19
TORSDOF 8
ENDMDL
MODEL 6
REMARK VINA RESULT:      -8.1      4.396      9.080
REMARK  Name = 
REMARK  9 active torsions:
REMARK  status: ('A' for Active; 'I' for Inactive)
REMARK    1  A    between atoms: C_1  and  O_2
REMARK    2  A    between atoms: O_2  and  C_3
REMARK    3  A    between atoms: C_6  and  S_7
REMARK    4  A    between atoms: S_7  and  N_8
REMARK    5  A    between atoms: C_12  and  C_13
REMARK    6  A    between atoms: N_15  and  C_16
REMARK    7  A    between atoms: C_16  and  C_17
REMARK    8  A    between atoms: N_21  and  C_22
REMARK    9  A    between atoms: C_22  and  C_23
REMARK                            x       y       z     vdW  Elec       q    Type
REMARK                         _______ _______ _______ _____ _____    ______ ____
ROOT
ATOM      1  C   UNL     1       1.407   9.193  18.464  0.00  0.00    +0.000 C 
ATOM      2  O   UNL     1       2.087   9.154  17.439  0.00  0.00    +0.000 OA
ATOM      3  N   UNL     1       1.585   8.283  19.488  0.00  0.00    +0.000 N 
ATOM      4  H   UNL     1       1.044   8.402  20.339  0.00  0.00    +0.000 HD
ENDROOT
BRANCH   1  10
ATOM      5  C   UNL     1       0.395  11.385  19.405  0.00  0.00    +0.000 A 
ATOM      6  C   UNL     1      -0.700  12.271  19.440  0.00  0.00    +0.000 A 
ATOM      7  C   UNL     1      -1.806  12.086  18.617  0.00  0.00    +0.000 A 
ATOM      8  C   UNL     1      -1.845  10.988  17.767  0.00  0.00    +0.000 A 
ATOM      9  C   UNL     1      -0.802  10.057  17.765  0.00  0.00    +0.000 A 
ATOM     10  C   UNL     1       0.335  10.241  18.584  0.00  0.00    +0.000 A 
BRANCH   8  11
ATOM     11  S   UNL     1      -3.256  10.778  16.727  0.00  0.00    +0.000 S 
ATOM     12  O   UNL     1      -2.885  11.018  15.356  0.00  0.00    +0.000 OA
ATOM     13  O   UNL     1      -3.974   9.592  17.141  0.00  0.00    +0.000 OA
BRANCH  11  14
ATOM     14  N   UNL     1      -4.210  12.077  17.190  0.00  0.00    +0.000 NA
ATOM     15  H   UNL     1      -5.177  11.770  17.306  0.00  0.00    +0.000 HD
ATOM     16  H   UNL     1      -3.818  12.524  18.021  0.00  0.00    +0.000 HD
ENDBRANCH  11  14
ENDBRANCH   8  11
BRANCH   5  18
ATOM     17  C   UNL     1       1.999  12.964  20.104  0.00  0.00    +0.000 C 
ATOM     18  O   UNL     1       1.518  11.616  20.165  0.00  0.00    +0.000 OA
ENDBRANCH   5  18
ENDBRANCH   1  10
BRANCH   3  19
ATOM     19  C   UNL     1       2.666   7.303  19.454  0.00  0.00    +0.000 C 
BRANCH  19  20
ATOM     20  C   UNL     1       2.235   5.810  19.383  0.00  0.00    +0.000 C 
ATOM     21  C   UNL     1       1.387   5.472  20.619  0.00  0.00    +0.000 C 
ATOM     22  C   UNL     1       1.490   3.972  20.754  0.00  0.00    +0.000 C 
ATOM     23  C   UNL     1       2.906   3.691  20.298  0.00  0.00    +0.000 C 
ATOM     24  N   UNL     1       3.223   4.703  19.275  0.00  0.00    +0.000 NA
BRANCH  24  25
ATOM     25  C   UNL     1       4.635   5.114  19.298  0.00  0.00    +0.000 C 
BRANCH  25  26
ATOM     26  C   UNL     1       5.389   4.913  17.992  0.00  0.00    +0.000 A 
ATOM     27  C   UNL     1       6.785   4.767  17.960  0.00  0.00    +0.000 A 
ATOM     28  C   UNL     1       7.455   4.642  16.740  0.00  0.00    +0.000 A 
ATOM     29  C   UNL     1       6.728   4.633  15.556  0.00  0.00    +0.000 A 
ATOM     30  F   UNL     1       7.373   4.547  14.385  0.00  0.00    +0.000 F 
ATOM     31  C   UNL     1       5.341   4.715  15.567  0.00  0.00    +0.000 A 
ATOM     32  C   UNL     1       4.671   4.845  16.784  0.00  0.00    +0.000 A 
ENDBRANCH  25  26
ENDBRANCH  24  25
ENDBRANCH  19  20
ENDBRANCH   3  19
TORSDOF 8
ENDMDL
MODEL 7
REMARK VINA RESULT:      -8.1      4.181      8.895
REMARK  Name = 
REMARK  9 active torsions:
REMARK  status: ('A' for Active; 'I' for Inactive)
REMARK    1  A    between atoms: C_1  and  O_2
REMARK    2  A    between atoms: O_2  and  C_3
REMARK    3  A    between atoms: C_6  and  S_7
REMARK    4  A    between atoms: S_7  and  N_8
REMARK    5  A    between atoms: C_12  and  C_13
REMARK    6  A    between atoms: N_15  and  C_16
REMARK    7  A    between atoms: C_16  and  C_17
REMARK    8  A    between atoms: N_21  and  C_22
REMARK    9  A    between atoms: C_22  and  C_23
REMARK                            x       y       z     vdW  Elec       q    Type
REMARK                         _______ _______ _______ _____ _____    ______ ____
ROOT
ATOM      1  C   UNL     1       1.866   8.288  19.188  0.00  0.00    +0.000 C 
ATOM      2  O   UNL     1       2.388   8.429  18.082  0.00  0.00    +0.000 OA
ATOM      3  N   UNL     1       2.184   7.224  20.009  0.00  0.00    +0.000 N 
ATOM      4  H   UNL     1       1.776   7.193  20.938  0.00  0.00    +0.000 HD
ENDROOT
BRANCH   1  10
ATOM      5  C   UNL     1       0.676   9.767  20.952  0.00  0.00    +0.000 A 
ATOM      6  C   UNL     1      -0.356  10.683  21.235  0.00  0.00    +0.000 A 
ATOM      7  C   UNL     1      -1.170  11.190  20.226  0.00  0.00    +0.000 A 
ATOM      8  C   UNL     1      -0.980  10.759  18.920  0.00  0.00    +0.000 A 
ATOM      9  C   UNL     1      -0.009   9.798  18.624  0.00  0.00    +0.000 A 
ATOM     10  C   UNL     1       0.835   9.287  19.636  0.00  0.00    +0.000 A 
BRANCH   8  11
ATOM     11  S   UNL     1      -2.021  11.422  17.656  0.00  0.00    +0.000 S 
ATOM     12  O   UNL     1      -1.988  10.559  16.502  0.00  0.00    +0.000 OA
ATOM     13  O   UNL     1      -3.258  11.875  18.254  0.00  0.00    +0.000 OA
BRANCH  11  14
ATOM     14  N   UNL     1      -1.183  12.811  17.228  0.00  0.00    +0.000 NA
ATOM     15  H   UNL     1      -1.306  12.993  16.230  0.00  0.00    +0.000 HD
ATOM     16  H   UNL     1      -1.463  13.590  17.826  0.00  0.00    +0.000 HD
ENDBRANCH  11  14
ENDBRANCH   8  11
BRANCH   5  18
ATOM     17  C   UNL     1       0.929   9.269  23.241  0.00  0.00    +0.000 C 
ATOM     18  O   UNL     1       1.525   9.328  21.940  0.00  0.00    +0.000 OA
ENDBRANCH   5  18
ENDBRANCH   1  10
BRANCH   3  19
ATOM     19  C   UNL     1       3.238   6.278  19.655  0.00  0.00    +0.000 C 
BRANCH  19  20
ATOM     20  C   UNL     1       2.809   4.788  19.536  0.00  0.00    +0.000 C 
ATOM     21  C   UNL     1       2.114   4.360  20.839  0.00  0.00    +0.000 C 
ATOM     22  C   UNL     1       2.240   2.855  20.862  0.00  0.00    +0.000 C 
ATOM     23  C   UNL     1       3.594   2.622  20.226  0.00  0.00    +0.000 C 
ATOM     24  N   UNL     1       3.783   3.703  19.242  0.00  0.00    +0.000 NA
BRANCH  24  25
ATOM     25  C   UNL     1       5.187   4.129  19.127  0.00  0.00    +0.000 C 
BRANCH  25  26
ATOM     26  C   UNL     1       5.696   4.299  17.703  0.00  0.00    +0.000 A 
ATOM     27  C   UNL     1       7.036   4.623  17.432  0.00  0.00    +0.000 A 
ATOM     28  C   UNL     1       7.461   4.829  16.118  0.00  0.00    +0.000 A 
ATOM     29  C   UNL     1       6.557   4.682  15.073  0.00  0.00    +0.000 A 
ATOM     30  F   UNL     1       6.957   4.913  13.815  0.00  0.00    +0.000 F 
ATOM     31  C   UNL     1       5.242   4.303  15.313  0.00  0.00    +0.000 A 
ATOM     32  C   UNL     1       4.814   4.101  16.626  0.00  0.00    +0.000 A 
ENDBRANCH  25  26
ENDBRANCH  24  25
ENDBRANCH  19  20
ENDBRANCH   3  19
TORSDOF 8
ENDMDL
MODEL 8
REMARK VINA RESULT:      -8.1      3.906      8.441
REMARK  Name = 
REMARK  9 active torsions:
REMARK  status: ('A' for Active; 'I' for Inactive)
REMARK    1  A    between atoms: C_1  and  O_2
REMARK    2  A    between atoms: O_2  and  C_3
REMARK    3  A    between atoms: C_6  and  S_7
REMARK    4  A    between atoms: S_7  and  N_8
REMARK    5  A    between atoms: C_12  and  C_13
REMARK    6  A    between atoms: N_15  and  C_16
REMARK    7  A    between atoms: C_16  and  C_17
REMARK    8  A    between atoms: N_21  and  C_22
REMARK    9  A    between atoms: C_22  and  C_23
REMARK                            x       y       z     vdW  Elec       q    Type
REMARK                         _______ _______ _______ _____ _____    ______ ____
ROOT
ATOM      1  C   UNL     1       2.140   8.708  18.036  0.00  0.00    +0.000 C 
ATOM      2  O   UNL     1       2.532   9.417  17.110  0.00  0.00    +0.000 OA
ATOM      3  N   UNL     1       2.533   7.389  18.157  0.00  0.00    +0.000 N 
ATOM      4  H   UNL     1       2.235   6.870  18.977  0.00  0.00    +0.000 HD
ENDROOT
BRANCH   1  10
ATOM      5  C   UNL     1       1.073   8.898  20.390  0.00  0.00    +0.000 A 
ATOM      6  C   UNL     1       0.109   9.513  21.213  0.00  0.00    +0.000 A 
ATOM      7  C   UNL     1      -0.680  10.559  20.745  0.00  0.00    +0.000 A 
ATOM      8  C   UNL     1      -0.535  10.984  19.431  0.00  0.00    +0.000 A 
ATOM      9  C   UNL     1       0.365  10.344  18.574  0.00  0.00    +0.000 A 
ATOM     10  C   UNL     1       1.184   9.290  19.041  0.00  0.00    +0.000 A 
BRANCH   8  11
ATOM     11  S   UNL     1      -1.543  12.318  18.862  0.00  0.00    +0.000 S 
ATOM     12  O   UNL     1      -2.869  12.190  19.410  0.00  0.00    +0.000 OA
ATOM     13  O   UNL     1      -0.784  13.548  18.941  0.00  0.00    +0.000 OA
BRANCH  11  14
ATOM     14  N   UNL     1      -1.674  11.965  17.228  0.00  0.00    +0.000 NA
ATOM     15  H   UNL     1      -2.646  11.755  16.998  0.00  0.00    +0.000 HD
ATOM     16  H   UNL     1      -1.273  12.720  16.670  0.00  0.00    +0.000 HD
ENDBRANCH  11  14
ENDBRANCH   8  11
BRANCH   5  18
ATOM     17  C   UNL     1       1.253   6.660  21.105  0.00  0.00    +0.000 C 
ATOM     18  O   UNL     1       1.902   7.917  20.881  0.00  0.00    +0.000 OA
ENDBRANCH   5  18
ENDBRANCH   1  10
BRANCH   3  19
ATOM     19  C   UNL     1       3.524   6.806  17.258  0.00  0.00    +0.000 C 
BRANCH  19  20
ATOM     20  C   UNL     1       4.868   6.373  17.908  0.00  0.00    +0.000 C 
ATOM     21  C   UNL     1       6.032   6.853  17.025  0.00  0.00    +0.000 C 
ATOM     22  C   UNL     1       7.188   5.956  17.397  0.00  0.00    +0.000 C 
ATOM     23  C   UNL     1       6.510   4.632  17.675  0.00  0.00    +0.000 C 
ATOM     24  N   UNL     1       5.179   4.952  18.220  0.00  0.00    +0.000 NA
BRANCH  24  25
ATOM     25  C   UNL     1       4.150   3.980  17.818  0.00  0.00    +0.000 C 
BRANCH  25  26
ATOM     26  C   UNL     1       3.213   3.532  18.931  0.00  0.00    +0.000 A 
ATOM     27  C   UNL     1       1.817   3.608  18.796  0.00  0.00    +0.000 A 
ATOM     28  C   UNL     1       0.984   3.243  19.856  0.00  0.00    +0.000 A 
ATOM     29  C   UNL     1       1.543   2.777  21.039  0.00  0.00    +0.000 A 
ATOM     30  F   UNL     1       0.745   2.459  22.067  0.00  0.00    +0.000 F 
ATOM     31  C   UNL     1       2.919   2.636  21.174  0.00  0.00    +0.000 A 
ATOM     32  C   UNL     1       3.753   3.004  20.117  0.00  0.00    +0.000 A 
ENDBRANCH  25  26
ENDBRANCH  24  25
ENDBRANCH  19  20
ENDBRANCH   3  19
TORSDOF 8
ENDMDL
MODEL 9
REMARK VINA RESULT:      -7.9      4.206      8.701
REMARK  Name = 
REMARK  9 active torsions:
REMARK  status: ('A' for Active; 'I' for Inactive)
REMARK    1  A    between atoms: C_1  and  O_2
REMARK    2  A    between atoms: O_2  and  C_3
REMARK    3  A    between atoms: C_6  and  S_7
REMARK    4  A    between atoms: S_7  and  N_8
REMARK    5  A    between atoms: C_12  and  C_13
REMARK    6  A    between atoms: N_15  and  C_16
REMARK    7  A    between atoms: C_16  and  C_17
REMARK    8  A    between atoms: N_21  and  C_22
REMARK    9  A    between atoms: C_22  and  C_23
REMARK                            x       y       z     vdW  Elec       q    Type
REMARK                         _______ _______ _______ _____ _____    ______ ____
ROOT
ATOM      1  C   UNL     1       1.563   8.089  20.122  0.00  0.00    +0.000 C 
ATOM      2  O   UNL     1       2.298   8.106  19.135  0.00  0.00    +0.000 OA
ATOM      3  N   UNL     1       1.486   6.986  20.950  0.00  0.00    +0.000 N 
ATOM      4  H   UNL     1       0.916   7.051  21.788  0.00  0.00    +0.000 HD
ENDROOT
BRANCH   1  10
ATOM      5  C   UNL     1       0.549   9.903  21.671  0.00  0.00    +0.000 A 
ATOM      6  C   UNL     1      -0.311  11.011  21.800  0.00  0.00    +0.000 A 
ATOM      7  C   UNL     1      -0.942  11.570  20.693  0.00  0.00    +0.000 A 
ATOM      8  C   UNL     1      -0.745  11.003  19.441  0.00  0.00    +0.000 A 
ATOM      9  C   UNL     1       0.047   9.860  19.297  0.00  0.00    +0.000 A 
ATOM     10  C   UNL     1       0.708   9.292  20.410  0.00  0.00    +0.000 A 
BRANCH   8  11
ATOM     11  S   UNL     1      -1.552  11.733  18.049  0.00  0.00    +0.000 S 
ATOM     12  O   UNL     1      -0.884  12.959  17.693  0.00  0.00    +0.000 OA
ATOM     13  O   UNL     1      -1.848  10.699  17.081  0.00  0.00    +0.000 OA
BRANCH  11  14
ATOM     14  N   UNL     1      -3.027  12.177  18.712  0.00  0.00    +0.000 NA
ATOM     15  H   UNL     1      -3.755  11.537  18.392  0.00  0.00    +0.000 HD
ATOM     16  H   UNL     1      -2.952  12.239  19.729  0.00  0.00    +0.000 HD
ENDBRANCH  11  14
ENDBRANCH   8  11
BRANCH   5  18
ATOM     17  C   UNL     1       0.435   9.286  23.942  0.00  0.00    +0.000 C 
ATOM     18  O   UNL     1       1.229   9.403  22.756  0.00  0.00    +0.000 OA
ENDBRANCH   5  18
ENDBRANCH   1  10
BRANCH   3  19
ATOM     19  C   UNL     1       2.357   5.830  20.761  0.00  0.00    +0.000 C 
BRANCH  19  20
ATOM     20  C   UNL     1       2.033   4.921  19.541  0.00  0.00    +0.000 C 
ATOM     21  C   UNL     1       0.943   3.913  19.942  0.00  0.00    +0.000 C 
ATOM     22  C   UNL     1       1.091   2.779  18.955  0.00  0.00    +0.000 C 
ATOM     23  C   UNL     1       2.587   2.728  18.726  0.00  0.00    +0.000 C 
ATOM     24  N   UNL     1       3.075   4.112  18.855  0.00  0.00    +0.000 NA
BRANCH  24  25
ATOM     25  C   UNL     1       4.422   4.189  19.443  0.00  0.00    +0.000 C 
BRANCH  25  26
ATOM     26  C   UNL     1       5.359   5.192  18.787  0.00  0.00    +0.000 A 
ATOM     27  C   UNL     1       4.935   6.016  17.732  0.00  0.00    +0.000 A 
ATOM     28  C   UNL     1       5.833   6.888  17.112  0.00  0.00    +0.000 A 
ATOM     29  C   UNL     1       7.145   6.957  17.564  0.00  0.00    +0.000 A 
ATOM     30  F   UNL     1       8.015   7.769  16.948  0.00  0.00    +0.000 F 
ATOM     31  C   UNL     1       7.570   6.196  18.646  0.00  0.00    +0.000 A 
ATOM     32  C   UNL     1       6.675   5.322  19.264  0.00  0.00    +0.000 A 
ENDBRANCH  25  26
ENDBRANCH  24  25
ENDBRANCH  19  20
ENDBRANCH   3  19
TORSDOF 8
ENDMDL
