MODEL 1
REMARK VINA RESULT:      -8.5      0.000      0.000
REMARK  Name = 
REMARK  5 active torsions:
REMARK  status: ('A' for Active; 'I' for Inactive)
REMARK    1  A    between atoms: C_1  and  N_2
REMARK    2  A    between atoms: C_5  and  N_6
REMARK    3  A    between atoms: C_8  and  C_9
REMARK    4  A    between atoms: C_12  and  C_13
REMARK    5  A    between atoms: C_19  and  C_20
REMARK                            x       y       z     vdW  Elec       q    Type
REMARK                         _______ _______ _______ _____ _____    ______ ____
ROOT
ATOM      1  N   UNL     1       2.890   6.487  18.650  0.00  0.00    +0.000 N 
ATOM      2  C   UNL     1       2.928   5.200  19.127  0.00  0.00    +0.000 A 
ATOM      3  C   UNL     1       3.801   4.441  18.355  0.00  0.00    +0.000 A 
ATOM      4  C   UNL     1       4.360   5.333  17.369  0.00  0.00    +0.000 A 
ATOM      5  C   UNL     1       3.680   6.528  17.520  0.00  0.00    +0.000 A 
ENDROOT
BRANCH   1  10
ATOM      6  C   UNL     1       0.012  11.822  18.853  0.00  0.00    +0.000 C 
ATOM      7  N   UNL     1       0.794  10.808  18.163  0.00  0.00    +0.000 N 
ATOM      8  C   UNL     1       1.156   9.712  18.967  0.00  0.00    +0.000 A 
ATOM      9  C   UNL     1       1.872   8.687  18.383  0.00  0.00    +0.000 A 
ATOM     10  C   UNL     1       2.187   7.607  19.185  0.00  0.00    +0.000 A 
ATOM     11  N   UNL     1       1.828   7.542  20.484  0.00  0.00    +0.000 NA
ATOM     12  C   UNL     1       1.127   8.579  20.949  0.00  0.00    +0.000 A 
ATOM     13  N   UNL     1       0.768   9.662  20.250  0.00  0.00    +0.000 NA
ATOM     14  H   UNL     1       1.626  11.200  17.728  0.00  0.00    +0.000 HD
ENDBRANCH   1  10
BRANCH   4  15
ATOM     15  C   UNL     1       5.349   5.112  16.301  0.00  0.00    +0.000 A 
ATOM     16  C   UNL     1       4.907   4.538  15.096  0.00  0.00    +0.000 A 
ATOM     17  C   UNL     1       5.801   4.232  14.069  0.00  0.00    +0.000 A 
ATOM     18 CL   UNL     1       5.231   3.468  12.635  0.00  0.00    +0.000 Cl
ATOM     19  C   UNL     1       7.149   4.528  14.197  0.00  0.00    +0.000 A 
ATOM     20  C   UNL     1       7.608   5.132  15.365  0.00  0.00    +0.000 A 
ATOM     21  C   UNL     1       6.729   5.421  16.431  0.00  0.00    +0.000 A 
ATOM     22  C   UNL     1       7.342   6.044  17.660  0.00  0.00    +0.000 C 
ENDBRANCH   4  15
BRANCH   3  23
ATOM     23  C   UNL     1       4.064   3.026  18.597  0.00  0.00    +0.000 C 
ATOM     24  N   UNL     1       5.016   2.773  19.549  0.00  0.00    +0.000 N 
ATOM     25  O   UNL     1       3.474   2.101  18.052  0.00  0.00    +0.000 OA
ATOM     26  H   UNL     1       5.343   3.495  20.173  0.00  0.00    +0.000 HD
ATOM     27  H   UNL     1       5.116   1.809  19.837  0.00  0.00    +0.000 HD
ENDBRANCH   3  23
TORSDOF 3
ENDMDL
MODEL 2
REMARK VINA RESULT:      -8.5      1.504      2.108
REMARK  Name = 
REMARK  5 active torsions:
REMARK  status: ('A' for Active; 'I' for Inactive)
REMARK    1  A    between atoms: C_1  and  N_2
REMARK    2  A    between atoms: C_5  and  N_6
REMARK    3  A    between atoms: C_8  and  C_9
REMARK    4  A    between atoms: C_12  and  C_13
REMARK    5  A    between atoms: C_19  and  C_20
REMARK                            x       y       z     vdW  Elec       q    Type
REMARK                         _______ _______ _______ _____ _____    ______ ____
ROOT
ATOM      1  N   UNL     1       2.465   6.694  19.541  0.00  0.00    +0.000 N 
ATOM      2  C   UNL     1       2.439   5.444  20.109  0.00  0.00    +0.000 A 
ATOM      3  C   UNL     1       3.386   4.632  19.494  0.00  0.00    +0.000 A 
ATOM      4  C   UNL     1       4.059   5.452  18.517  0.00  0.00    +0.000 A 
ATOM      5  C   UNL     1       3.376   6.654  18.506  0.00  0.00    +0.000 A 
ENDROOT
BRANCH   1  10
ATOM      6  C   UNL     1      -0.736  10.521  22.988  0.00  0.00    +0.000 C 
ATOM      7  N   UNL     1      -0.077   9.246  22.754  0.00  0.00    +0.000 N 
ATOM      8  C   UNL     1       0.478   9.111  21.468  0.00  0.00    +0.000 A 
ATOM      9  C   UNL     1       1.153   7.945  21.173  0.00  0.00    +0.000 A 
ATOM     10  C   UNL     1       1.717   7.850  19.914  0.00  0.00    +0.000 A 
ATOM     11  N   UNL     1       1.616   8.838  19.001  0.00  0.00    +0.000 NA
ATOM     12  C   UNL     1       0.955   9.930  19.391  0.00  0.00    +0.000 A 
ATOM     13  N   UNL     1       0.384  10.117  20.586  0.00  0.00    +0.000 NA
ATOM     14  H   UNL     1      -0.693   8.459  22.943  0.00  0.00    +0.000 HD
ENDBRANCH   1  10
BRANCH   4  15
ATOM     15  C   UNL     1       5.159   5.155  17.584  0.00  0.00    +0.000 A 
ATOM     16  C   UNL     1       4.832   4.822  16.257  0.00  0.00    +0.000 A 
ATOM     17  C   UNL     1       5.818   4.458  15.338  0.00  0.00    +0.000 A 
ATOM     18 CL   UNL     1       5.371   3.993  13.741  0.00  0.00    +0.000 Cl
ATOM     19  C   UNL     1       7.155   4.457  15.703  0.00  0.00    +0.000 A 
ATOM     20  C   UNL     1       7.509   4.820  17.000  0.00  0.00    +0.000 A 
ATOM     21  C   UNL     1       6.529   5.160  17.957  0.00  0.00    +0.000 A 
ATOM     22  C   UNL     1       7.026   5.502  19.339  0.00  0.00    +0.000 C 
ENDBRANCH   4  15
BRANCH   3  23
ATOM     23  C   UNL     1       3.609   3.237  19.863  0.00  0.00    +0.000 C 
ATOM     24  N   UNL     1       2.469   2.490  19.998  0.00  0.00    +0.000 N 
ATOM     25  O   UNL     1       4.708   2.718  20.005  0.00  0.00    +0.000 OA
ATOM     26  H   UNL     1       1.577   2.822  19.662  0.00  0.00    +0.000 HD
ATOM     27  H   UNL     1       2.597   1.494  20.113  0.00  0.00    +0.000 HD
ENDBRANCH   3  23
TORSDOF 3
ENDMDL
MODEL 3
REMARK VINA RESULT:      -8.3      1.121      1.211
REMARK  Name = 
REMARK  5 active torsions:
REMARK  status: ('A' for Active; 'I' for Inactive)
REMARK    1  A    between atoms: C_1  and  N_2
REMARK    2  A    between atoms: C_5  and  N_6
REMARK    3  A    between atoms: C_8  and  C_9
REMARK    4  A    between atoms: C_12  and  C_13
REMARK    5  A    between atoms: C_19  and  C_20
REMARK                            x       y       z     vdW  Elec       q    Type
REMARK                         _______ _______ _______ _____ _____    ______ ____
ROOT
ATOM      1  N   UNL     1       2.532   6.785  19.368  0.00  0.00    +0.000 N 
ATOM      2  C   UNL     1       2.505   5.553  19.973  0.00  0.00    +0.000 A 
ATOM      3  C   UNL     1       3.438   4.716  19.371  0.00  0.00    +0.000 A 
ATOM      4  C   UNL     1       4.103   5.501  18.360  0.00  0.00    +0.000 A 
ATOM      5  C   UNL     1       3.428   6.708  18.322  0.00  0.00    +0.000 A 
ENDROOT
BRANCH   1  10
ATOM      6  C   UNL     1      -0.279  12.123  18.750  0.00  0.00    +0.000 C 
ATOM      7  N   UNL     1       0.551  11.041  18.245  0.00  0.00    +0.000 N 
ATOM      8  C   UNL     1       0.820  10.032  19.188  0.00  0.00    +0.000 A 
ATOM      9  C   UNL     1       1.574   8.950  18.782  0.00  0.00    +0.000 A 
ATOM     10  C   UNL     1       1.797   7.957  19.717  0.00  0.00    +0.000 A 
ATOM     11  N   UNL     1       1.315   8.027  20.975  0.00  0.00    +0.000 NA
ATOM     12  C   UNL     1       0.587   9.109  21.263  0.00  0.00    +0.000 A 
ATOM     13  N   UNL     1       0.311  10.115  20.426  0.00  0.00    +0.000 NA
ATOM     14  H   UNL     1       1.426  11.384  17.855  0.00  0.00    +0.000 HD
ENDBRANCH   1  10
BRANCH   4  15
ATOM     15  C   UNL     1       5.187   5.168  17.422  0.00  0.00    +0.000 A 
ATOM     16  C   UNL     1       4.842   4.821  16.103  0.00  0.00    +0.000 A 
ATOM     17  C   UNL     1       5.811   4.423  15.181  0.00  0.00    +0.000 A 
ATOM     18 CL   UNL     1       5.340   3.941  13.596  0.00  0.00    +0.000 Cl
ATOM     19  C   UNL     1       7.151   4.401  15.533  0.00  0.00    +0.000 A 
ATOM     20  C   UNL     1       7.525   4.778  16.821  0.00  0.00    +0.000 A 
ATOM     21  C   UNL     1       6.561   5.153  17.781  0.00  0.00    +0.000 A 
ATOM     22  C   UNL     1       7.078   5.507  19.153  0.00  0.00    +0.000 C 
ENDBRANCH   4  15
BRANCH   3  23
ATOM     23  C   UNL     1       3.656   3.331  19.778  0.00  0.00    +0.000 C 
ATOM     24  N   UNL     1       2.512   2.602  19.970  0.00  0.00    +0.000 N 
ATOM     25  O   UNL     1       4.753   2.803  19.906  0.00  0.00    +0.000 OA
ATOM     26  H   UNL     1       1.615   2.933  19.648  0.00  0.00    +0.000 HD
ATOM     27  H   UNL     1       2.633   1.609  20.112  0.00  0.00    +0.000 HD
ENDBRANCH   3  23
TORSDOF 3
ENDMDL
MODEL 4
REMARK VINA RESULT:      -8.1      4.130      7.568
REMARK  Name = 
REMARK  5 active torsions:
REMARK  status: ('A' for Active; 'I' for Inactive)
REMARK    1  A    between atoms: C_1  and  N_2
REMARK    2  A    between atoms: C_5  and  N_6
REMARK    3  A    between atoms: C_8  and  C_9
REMARK    4  A    between atoms: C_12  and  C_13
REMARK    5  A    between atoms: C_19  and  C_20
REMARK                            x       y       z     vdW  Elec       q    Type
REMARK                         _______ _______ _______ _____ _____    ______ ____
ROOT
ATOM      1  N   UNL     1       6.520   4.994  15.849  0.00  0.00    +0.000 N 
ATOM      2  C   UNL     1       7.443   5.298  16.819  0.00  0.00    +0.000 A 
ATOM      3  C   UNL     1       6.794   5.515  18.029  0.00  0.00    +0.000 A 
ATOM      4  C   UNL     1       5.390   5.290  17.789  0.00  0.00    +0.000 A 
ATOM      5  C   UNL     1       5.272   5.098  16.425  0.00  0.00    +0.000 A 
ENDROOT
BRANCH   1  10
ATOM      6  C   UNL     1       6.074   1.946  10.624  0.00  0.00    +0.000 C 
ATOM      7  N   UNL     1       5.786   2.121  12.039  0.00  0.00    +0.000 N 
ATOM      8  C   UNL     1       6.407   3.243  12.619  0.00  0.00    +0.000 A 
ATOM      9  C   UNL     1       6.160   3.504  13.952  0.00  0.00    +0.000 A 
ATOM     10  C   UNL     1       6.755   4.629  14.490  0.00  0.00    +0.000 A 
ATOM     11  N   UNL     1       7.550   5.443  13.764  0.00  0.00    +0.000 NA
ATOM     12  C   UNL     1       7.713   5.110  12.482  0.00  0.00    +0.000 A 
ATOM     13  N   UNL     1       7.174   4.049  11.871  0.00  0.00    +0.000 NA
ATOM     14  H   UNL     1       6.013   1.290  12.579  0.00  0.00    +0.000 HD
ENDBRANCH   1  10
BRANCH   4  15
ATOM     15  C   UNL     1       4.225   5.348  18.687  0.00  0.00    +0.000 A 
ATOM     16  C   UNL     1       4.007   4.269  19.563  0.00  0.00    +0.000 A 
ATOM     17  C   UNL     1       2.883   4.222  20.389  0.00  0.00    +0.000 A 
ATOM     18 CL   UNL     1       2.618   2.854  21.399  0.00  0.00    +0.000 Cl
ATOM     19  C   UNL     1       1.970   5.265  20.395  0.00  0.00    +0.000 A 
ATOM     20  C   UNL     1       2.181   6.364  19.565  0.00  0.00    +0.000 A 
ATOM     21  C   UNL     1       3.293   6.419  18.697  0.00  0.00    +0.000 A 
ATOM     22  C   UNL     1       3.401   7.641  17.819  0.00  0.00    +0.000 C 
ENDBRANCH   4  15
BRANCH   3  23
ATOM     23  C   UNL     1       7.492   5.864  19.263  0.00  0.00    +0.000 C 
ATOM     24  N   UNL     1       8.339   6.936  19.160  0.00  0.00    +0.000 N 
ATOM     25  O   UNL     1       7.331   5.305  20.341  0.00  0.00    +0.000 OA
ATOM     26  H   UNL     1       8.315   7.553  18.363  0.00  0.00    +0.000 HD
ATOM     27  H   UNL     1       8.725   7.286  20.026  0.00  0.00    +0.000 HD
ENDBRANCH   3  23
TORSDOF 3
ENDMDL
MODEL 5
REMARK VINA RESULT:      -8.1      2.629      3.772
REMARK  Name = 
REMARK  5 active torsions:
REMARK  status: ('A' for Active; 'I' for Inactive)
REMARK    1  A    between atoms: C_1  and  N_2
REMARK    2  A    between atoms: C_5  and  N_6
REMARK    3  A    between atoms: C_8  and  C_9
REMARK    4  A    between atoms: C_12  and  C_13
REMARK    5  A    between atoms: C_19  and  C_20
REMARK                            x       y       z     vdW  Elec       q    Type
REMARK                         _______ _______ _______ _____ _____    ______ ____
ROOT
ATOM      1  N   UNL     1       1.468   7.445  20.431  0.00  0.00    +0.000 N 
ATOM      2  C   UNL     1       1.147   6.296  21.109  0.00  0.00    +0.000 A 
ATOM      3  C   UNL     1       1.946   5.250  20.661  0.00  0.00    +0.000 A 
ATOM      4  C   UNL     1       2.838   5.808  19.674  0.00  0.00    +0.000 A 
ATOM      5  C   UNL     1       2.419   7.113  19.489  0.00  0.00    +0.000 A 
ENDROOT
BRANCH   1  10
ATOM      6  C   UNL     1      -1.343  12.107  23.106  0.00  0.00    +0.000 C 
ATOM      7  N   UNL     1      -0.962  10.705  23.034  0.00  0.00    +0.000 N 
ATOM      8  C   UNL     1      -0.228  10.365  21.882  0.00  0.00    +0.000 A 
ATOM      9  C   UNL     1       0.203   9.061  21.749  0.00  0.00    +0.000 A 
ATOM     10  C   UNL     1       0.950   8.760  20.626  0.00  0.00    +0.000 A 
ATOM     11  N   UNL     1       1.247   9.682  19.687  0.00  0.00    +0.000 NA
ATOM     12  C   UNL     1       0.794  10.917  19.917  0.00  0.00    +0.000 A 
ATOM     13  N   UNL     1       0.073  11.306  20.975  0.00  0.00    +0.000 NA
ATOM     14  H   UNL     1      -1.766  10.087  23.119  0.00  0.00    +0.000 HD
ENDBRANCH   1  10
BRANCH   4  15
ATOM     15  C   UNL     1       3.913   5.199  18.875  0.00  0.00    +0.000 A 
ATOM     16  C   UNL     1       5.244   5.530  19.189  0.00  0.00    +0.000 A 
ATOM     17  C   UNL     1       6.310   5.049  18.427  0.00  0.00    +0.000 A 
ATOM     18 CL   UNL     1       7.919   5.531  18.804  0.00  0.00    +0.000 Cl
ATOM     19  C   UNL     1       6.083   4.193  17.361  0.00  0.00    +0.000 A 
ATOM     20  C   UNL     1       4.778   3.817  17.051  0.00  0.00    +0.000 A 
ATOM     21  C   UNL     1       3.681   4.317  17.786  0.00  0.00    +0.000 A 
ATOM     22  C   UNL     1       2.312   3.870  17.339  0.00  0.00    +0.000 C 
ENDBRANCH   4  15
BRANCH   3  23
ATOM     23  C   UNL     1       1.852   3.888  21.178  0.00  0.00    +0.000 C 
ATOM     24  N   UNL     1       0.860   3.128  20.617  0.00  0.00    +0.000 N 
ATOM     25  O   UNL     1       2.605   3.402  22.012  0.00  0.00    +0.000 OA
ATOM     26  H   UNL     1       0.385   3.418  19.775  0.00  0.00    +0.000 HD
ATOM     27  H   UNL     1       0.862   2.145  20.851  0.00  0.00    +0.000 HD
ENDBRANCH   3  23
TORSDOF 3
ENDMDL
MODEL 6
REMARK VINA RESULT:      -8.0      2.493      3.386
REMARK  Name = 
REMARK  5 active torsions:
REMARK  status: ('A' for Active; 'I' for Inactive)
REMARK    1  A    between atoms: C_1  and  N_2
REMARK    2  A    between atoms: C_5  and  N_6
REMARK    3  A    between atoms: C_8  and  C_9
REMARK    4  A    between atoms: C_12  and  C_13
REMARK    5  A    between atoms: C_19  and  C_20
REMARK                            x       y       z     vdW  Elec       q    Type
REMARK                         _______ _______ _______ _____ _____    ______ ____
ROOT
ATOM      1  N   UNL     1       1.534   7.675  20.202  0.00  0.00    +0.000 N 
ATOM      2  C   UNL     1       1.158   6.578  20.937  0.00  0.00    +0.000 A 
ATOM      3  C   UNL     1       1.892   5.469  20.530  0.00  0.00    +0.000 A 
ATOM      4  C   UNL     1       2.800   5.929  19.508  0.00  0.00    +0.000 A 
ATOM      5  C   UNL     1       2.452   7.245  19.267  0.00  0.00    +0.000 A 
ENDROOT
BRANCH   1  10
ATOM      6  C   UNL     1      -0.362  13.221  18.644  0.00  0.00    +0.000 C 
ATOM      7  N   UNL     1       0.159  11.902  18.320  0.00  0.00    +0.000 N 
ATOM      8  C   UNL     1       0.414  11.092  19.442  0.00  0.00    +0.000 A 
ATOM      9  C   UNL     1       0.879   9.811  19.224  0.00  0.00    +0.000 A 
ATOM     10  C   UNL     1       1.092   9.024  20.340  0.00  0.00    +0.000 A 
ATOM     11  N   UNL     1       0.868   9.471  21.593  0.00  0.00    +0.000 NA
ATOM     12  C   UNL     1       0.406  10.720  21.694  0.00  0.00    +0.000 A 
ATOM     13  N   UNL     1       0.163  11.553  20.676  0.00  0.00    +0.000 NA
ATOM     14  H   UNL     1       0.994  11.955  17.741  0.00  0.00    +0.000 HD
ENDBRANCH   1  10
BRANCH   4  15
ATOM     15  C   UNL     1       3.829   5.224  18.727  0.00  0.00    +0.000 A 
ATOM     16  C   UNL     1       5.180   5.505  19.001  0.00  0.00    +0.000 A 
ATOM     17  C   UNL     1       6.206   4.930  18.250  0.00  0.00    +0.000 A 
ATOM     18 CL   UNL     1       7.844   5.352  18.573  0.00  0.00    +0.000 Cl
ATOM     19  C   UNL     1       5.918   4.029  17.237  0.00  0.00    +0.000 A 
ATOM     20  C   UNL     1       4.590   3.702  16.971  0.00  0.00    +0.000 A 
ATOM     21  C   UNL     1       3.533   4.295  17.694  0.00  0.00    +0.000 A 
ATOM     22  C   UNL     1       2.136   3.893  17.295  0.00  0.00    +0.000 C 
ENDBRANCH   4  15
BRANCH   3  23
ATOM     23  C   UNL     1       1.729   4.140  21.112  0.00  0.00    +0.000 C 
ATOM     24  N   UNL     1       0.744   3.379  20.539  0.00  0.00    +0.000 N 
ATOM     25  O   UNL     1       2.422   3.678  22.009  0.00  0.00    +0.000 OA
ATOM     26  H   UNL     1       0.323   3.637  19.659  0.00  0.00    +0.000 HD
ATOM     27  H   UNL     1       0.704   2.411  20.825  0.00  0.00    +0.000 HD
ENDBRANCH   3  23
TORSDOF 3
ENDMDL
MODEL 7
REMARK VINA RESULT:      -8.0      4.139      7.581
REMARK  Name = 
REMARK  5 active torsions:
REMARK  status: ('A' for Active; 'I' for Inactive)
REMARK    1  A    between atoms: C_1  and  N_2
REMARK    2  A    between atoms: C_5  and  N_6
REMARK    3  A    between atoms: C_8  and  C_9
REMARK    4  A    between atoms: C_12  and  C_13
REMARK    5  A    between atoms: C_19  and  C_20
REMARK                            x       y       z     vdW  Elec       q    Type
REMARK                         _______ _______ _______ _____ _____    ______ ____
ROOT
ATOM      1  N   UNL     1       6.513   5.007  15.852  0.00  0.00    +0.000 N 
ATOM      2  C   UNL     1       7.437   5.287  16.827  0.00  0.00    +0.000 A 
ATOM      3  C   UNL     1       6.786   5.520  18.034  0.00  0.00    +0.000 A 
ATOM      4  C   UNL     1       5.378   5.329  17.786  0.00  0.00    +0.000 A 
ATOM      5  C   UNL     1       5.264   5.141  16.420  0.00  0.00    +0.000 A 
ENDROOT
BRANCH   1  10
ATOM      6  C   UNL     1       6.059   1.945  10.635  0.00  0.00    +0.000 C 
ATOM      7  N   UNL     1       5.771   2.126  12.050  0.00  0.00    +0.000 N 
ATOM      8  C   UNL     1       6.395   3.247  12.627  0.00  0.00    +0.000 A 
ATOM      9  C   UNL     1       6.149   3.513  13.958  0.00  0.00    +0.000 A 
ATOM     10  C   UNL     1       6.747   4.638  14.494  0.00  0.00    +0.000 A 
ATOM     11  N   UNL     1       7.544   5.448  13.766  0.00  0.00    +0.000 NA
ATOM     12  C   UNL     1       7.707   5.111  12.484  0.00  0.00    +0.000 A 
ATOM     13  N   UNL     1       7.165   4.049  11.876  0.00  0.00    +0.000 NA
ATOM     14  H   UNL     1       5.996   1.295  12.593  0.00  0.00    +0.000 HD
ENDBRANCH   1  10
BRANCH   4  15
ATOM     15  C   UNL     1       4.209   5.415  18.676  0.00  0.00    +0.000 A 
ATOM     16  C   UNL     1       3.499   6.628  18.725  0.00  0.00    +0.000 A 
ATOM     17  C   UNL     1       2.427   6.805  19.600  0.00  0.00    +0.000 A 
ATOM     18 CL   UNL     1       1.626   8.327  19.678  0.00  0.00    +0.000 Cl
ATOM     19  C   UNL     1       2.006   5.767  20.417  0.00  0.00    +0.000 A 
ATOM     20  C   UNL     1       2.666   4.542  20.361  0.00  0.00    +0.000 A 
ATOM     21  C   UNL     1       3.775   4.349  19.508  0.00  0.00    +0.000 A 
ATOM     22  C   UNL     1       4.433   2.994  19.556  0.00  0.00    +0.000 C 
ENDBRANCH   4  15
BRANCH   3  23
ATOM     23  C   UNL     1       7.484   5.851  19.273  0.00  0.00    +0.000 C 
ATOM     24  N   UNL     1       8.359   6.901  19.176  0.00  0.00    +0.000 N 
ATOM     25  O   UNL     1       7.303   5.296  20.349  0.00  0.00    +0.000 OA
ATOM     26  H   UNL     1       8.355   7.519  18.378  0.00  0.00    +0.000 HD
ATOM     27  H   UNL     1       8.748   7.241  20.044  0.00  0.00    +0.000 HD
ENDBRANCH   3  23
TORSDOF 3
ENDMDL
MODEL 8
REMARK VINA RESULT:      -7.8      3.619      7.882
REMARK  Name = 
REMARK  5 active torsions:
REMARK  status: ('A' for Active; 'I' for Inactive)
REMARK    1  A    between atoms: C_1  and  N_2
REMARK    2  A    between atoms: C_5  and  N_6
REMARK    3  A    between atoms: C_8  and  C_9
REMARK    4  A    between atoms: C_12  and  C_13
REMARK    5  A    between atoms: C_19  and  C_20
REMARK                            x       y       z     vdW  Elec       q    Type
REMARK                         _______ _______ _______ _____ _____    ______ ____
ROOT
ATOM      1  N   UNL     1       2.487   7.569  18.682  0.00  0.00    +0.000 N 
ATOM      2  C   UNL     1       2.057   7.533  19.985  0.00  0.00    +0.000 A 
ATOM      3  C   UNL     1       1.358   8.699  20.278  0.00  0.00    +0.000 A 
ATOM      4  C   UNL     1       1.328   9.477  19.064  0.00  0.00    +0.000 A 
ATOM      5  C   UNL     1       2.133   8.798  18.167  0.00  0.00    +0.000 A 
ENDROOT
BRANCH   1  10
ATOM      6  C   UNL     1       6.687   4.937  15.185  0.00  0.00    +0.000 C 
ATOM      7  N   UNL     1       6.072   6.104  15.800  0.00  0.00    +0.000 N 
ATOM      8  C   UNL     1       4.916   5.819  16.549  0.00  0.00    +0.000 A 
ATOM      9  C   UNL     1       4.287   6.864  17.195  0.00  0.00    +0.000 A 
ATOM     10  C   UNL     1       3.173   6.554  17.950  0.00  0.00    +0.000 A 
ATOM     11  N   UNL     1       2.700   5.294  18.058  0.00  0.00    +0.000 NA
ATOM     12  C   UNL     1       3.388   4.354  17.406  0.00  0.00    +0.000 A 
ATOM     13  N   UNL     1       4.480   4.555  16.659  0.00  0.00    +0.000 NA
ATOM     14  H   UNL     1       5.865   6.828  15.117  0.00  0.00    +0.000 HD
ENDBRANCH   1  10
BRANCH   4  15
ATOM     15  C   UNL     1       0.720  10.781  18.755  0.00  0.00    +0.000 A 
ATOM     16  C   UNL     1       1.543  11.921  18.781  0.00  0.00    +0.000 A 
ATOM     17  C   UNL     1       1.020  13.198  18.570  0.00  0.00    +0.000 A 
ATOM     18 CL   UNL     1       2.049  14.574  18.676  0.00  0.00    +0.000 Cl
ATOM     19  C   UNL     1      -0.326  13.369  18.287  0.00  0.00    +0.000 A 
ATOM     20  C   UNL     1      -1.157  12.253  18.216  0.00  0.00    +0.000 A 
ATOM     21  C   UNL     1      -0.658  10.955  18.458  0.00  0.00    +0.000 A 
ATOM     22  C   UNL     1      -1.656   9.827  18.389  0.00  0.00    +0.000 C 
ENDBRANCH   4  15
BRANCH   3  23
ATOM     23  C   UNL     1       0.772   8.977  21.586  0.00  0.00    +0.000 C 
ATOM     24  N   UNL     1      -0.539   8.600  21.719  0.00  0.00    +0.000 N 
ATOM     25  O   UNL     1       1.374   9.463  22.535  0.00  0.00    +0.000 OA
ATOM     26  H   UNL     1      -0.984   7.993  21.047  0.00  0.00    +0.000 HD
ATOM     27  H   UNL     1      -0.926   8.650  22.651  0.00  0.00    +0.000 HD
ENDBRANCH   3  23
TORSDOF 3
ENDMDL
MODEL 9
REMARK VINA RESULT:      -7.6      1.448      1.917
REMARK  Name = 
REMARK  5 active torsions:
REMARK  status: ('A' for Active; 'I' for Inactive)
REMARK    1  A    between atoms: C_1  and  N_2
REMARK    2  A    between atoms: C_5  and  N_6
REMARK    3  A    between atoms: C_8  and  C_9
REMARK    4  A    between atoms: C_12  and  C_13
REMARK    5  A    between atoms: C_19  and  C_20
REMARK                            x       y       z     vdW  Elec       q    Type
REMARK                         _______ _______ _______ _____ _____    ______ ____
ROOT
ATOM      1  N   UNL     1       2.329   7.271  18.508  0.00  0.00    +0.000 N 
ATOM      2  C   UNL     1       1.828   6.011  18.718  0.00  0.00    +0.000 A 
ATOM      3  C   UNL     1       2.728   5.064  18.239  0.00  0.00    +0.000 A 
ATOM      4  C   UNL     1       3.867   5.795  17.742  0.00  0.00    +0.000 A 
ATOM      5  C   UNL     1       3.515   7.131  17.819  0.00  0.00    +0.000 A 
ENDROOT
BRANCH   1  10
ATOM      6  C   UNL     1      -0.364  11.435  22.000  0.00  0.00    +0.000 C 
ATOM      7  N   UNL     1       0.078  10.076  21.728  0.00  0.00    +0.000 N 
ATOM      8  C   UNL     1       0.678   9.907  20.466  0.00  0.00    +0.000 A 
ATOM      9  C   UNL     1       1.157   8.655  20.139  0.00  0.00    +0.000 A 
ATOM     10  C   UNL     1       1.771   8.522  18.908  0.00  0.00    +0.000 A 
ATOM     11  N   UNL     1       1.899   9.554  18.048  0.00  0.00    +0.000 NA
ATOM     12  C   UNL     1       1.414  10.726  18.466  0.00  0.00    +0.000 A 
ATOM     13  N   UNL     1       0.813  10.955  19.639  0.00  0.00    +0.000 NA
ATOM     14  H   UNL     1      -0.675   9.402  21.839  0.00  0.00    +0.000 HD
ENDBRANCH   1  10
BRANCH   4  15
ATOM     15  C   UNL     1       5.132   5.341  17.141  0.00  0.00    +0.000 A 
ATOM     16  C   UNL     1       5.138   5.012  15.774  0.00  0.00    +0.000 A 
ATOM     17  C   UNL     1       6.282   4.505  15.155  0.00  0.00    +0.000 A 
ATOM     18 CL   UNL     1       6.230   4.052  13.495  0.00  0.00    +0.000 Cl
ATOM     19  C   UNL     1       7.460   4.353  15.870  0.00  0.00    +0.000 A 
ATOM     20  C   UNL     1       7.493   4.707  17.216  0.00  0.00    +0.000 A 
ATOM     21  C   UNL     1       6.340   5.191  17.872  0.00  0.00    +0.000 A 
ATOM     22  C   UNL     1       6.484   5.510  19.339  0.00  0.00    +0.000 C 
ENDBRANCH   4  15
BRANCH   3  23
ATOM     23  C   UNL     1       2.492   3.626  18.306  0.00  0.00    +0.000 C 
ATOM     24  N   UNL     1       3.001   3.011  19.420  0.00  0.00    +0.000 N 
ATOM     25  O   UNL     1       1.856   2.981  17.482  0.00  0.00    +0.000 OA
ATOM     26  H   UNL     1       3.316   3.542  20.218  0.00  0.00    +0.000 HD
ATOM     27  H   UNL     1       2.731   2.048  19.561  0.00  0.00    +0.000 HD
ENDBRANCH   3  23
TORSDOF 3
ENDMDL
