MODEL 1
REMARK VINA RESULT:      -8.0      0.000      0.000
REMARK  Name = 
REMARK  3 active torsions:
REMARK  status: ('A' for Active; 'I' for Inactive)
REMARK    1  A    between atoms: C_1  and  C_2
REMARK    2  A    between atoms: N_4  and  C_5
REMARK    3  A    between atoms: N_13  and  C_14
REMARK                            x       y       z     vdW  Elec       q    Type
REMARK                         _______ _______ _______ _____ _____    ______ ____
ROOT
ATOM      1  C   UNL     1       6.233   4.334  16.667  0.00  0.00    +0.000 A 
ATOM      2  C   UNL     1       7.537   4.555  17.129  0.00  0.00    +0.000 A 
ATOM      3  C   UNL     1       7.785   5.080  18.400  0.00  0.00    +0.000 A 
ATOM      4  C   UNL     1       6.729   5.394  19.245  0.00  0.00    +0.000 A 
ATOM      5  C   UNL     1       5.417   5.205  18.804  0.00  0.00    +0.000 A 
ATOM      6  C   UNL     1       5.160   4.694  17.504  0.00  0.00    +0.000 A 
ATOM      7  C   UNL     1       3.691   4.546  17.173  0.00  0.00    +0.000 C 
ATOM      8  C   UNL     1       2.893   5.798  17.594  0.00  0.00    +0.000 C 
ATOM      9  N   UNL     1       3.280   6.313  18.915  0.00  0.00    +0.000 N 
ATOM     10  C   UNL     1       4.236   5.534  19.695  0.00  0.00    +0.000 C 
ENDROOT
BRANCH   9  11
ATOM     11  C   UNL     1       2.366   7.118  19.582  0.00  0.00    +0.000 A 
ATOM     12  N   UNL     1       1.761   6.645  20.705  0.00  0.00    +0.000 NA
ATOM     13  C   UNL     1       0.863   7.409  21.346  0.00  0.00    +0.000 A 
ATOM     14  N   UNL     1       0.452   8.633  21.016  0.00  0.00    +0.000 NA
ATOM     15  C   UNL     1       1.026   9.069  19.883  0.00  0.00    +0.000 A 
ATOM     16  S   UNL     1       0.609  10.595  19.243  0.00  0.00    +0.000 S 
ATOM     17  C   UNL     1       1.632  10.376  17.895  0.00  0.00    +0.000 A 
ATOM     18  C   UNL     1       2.277   9.160  17.937  0.00  0.00    +0.000 A 
ATOM     19  C   UNL     1       1.962   8.395  19.115  0.00  0.00    +0.000 A 
ENDBRANCH   9  11
BRANCH   1  23
ATOM     20  C   UNL     1       5.873   3.573  12.986  0.00  0.00    +0.000 C 
ATOM     21  C   UNL     1       6.424   4.323  14.170  0.00  0.00    +0.000 C 
ATOM     22  O   UNL     1       7.183   5.272  14.005  0.00  0.00    +0.000 OA
ATOM     23  N   UNL     1       5.994   3.796  15.379  0.00  0.00    +0.000 N 
ATOM     24  H   UNL     1       5.532   2.900  15.329  0.00  0.00    +0.000 HD
ENDBRANCH   1  23
TORSDOF 2
ENDMDL
MODEL 2
REMARK VINA RESULT:      -7.7      3.725      5.818
REMARK  Name = 
REMARK  3 active torsions:
REMARK  status: ('A' for Active; 'I' for Inactive)
REMARK    1  A    between atoms: C_1  and  C_2
REMARK    2  A    between atoms: N_4  and  C_5
REMARK    3  A    between atoms: N_13  and  C_14
REMARK                            x       y       z     vdW  Elec       q    Type
REMARK                         _______ _______ _______ _____ _____    ______ ____
ROOT
ATOM      1  C   UNL     1       2.639   6.497  19.602  0.00  0.00    +0.000 A 
ATOM      2  C   UNL     1       3.266   6.352  18.357  0.00  0.00    +0.000 A 
ATOM      3  C   UNL     1       3.246   7.371  17.403  0.00  0.00    +0.000 A 
ATOM      4  C   UNL     1       2.598   8.569  17.674  0.00  0.00    +0.000 A 
ATOM      5  C   UNL     1       1.945   8.736  18.897  0.00  0.00    +0.000 A 
ATOM      6  C   UNL     1       1.944   7.693  19.862  0.00  0.00    +0.000 A 
ATOM      7  C   UNL     1       1.195   8.024  21.135  0.00  0.00    +0.000 C 
ATOM      8  C   UNL     1      -0.164   8.687  20.830  0.00  0.00    +0.000 C 
ATOM      9  N   UNL     1      -0.090   9.693  19.762  0.00  0.00    +0.000 N 
ATOM     10  C   UNL     1       1.228  10.028  19.234  0.00  0.00    +0.000 C 
ENDROOT
BRANCH   9  11
ATOM     11  C   UNL     1      -1.098  10.647  19.710  0.00  0.00    +0.000 A 
ATOM     12  N   UNL     1      -1.209  11.550  20.723  0.00  0.00    +0.000 NA
ATOM     13  C   UNL     1      -2.191  12.464  20.690  0.00  0.00    +0.000 A 
ATOM     14  N   UNL     1      -3.129  12.619  19.756  0.00  0.00    +0.000 NA
ATOM     15  C   UNL     1      -3.031  11.697  18.785  0.00  0.00    +0.000 A 
ATOM     16  S   UNL     1      -4.162  11.673  17.508  0.00  0.00    +0.000 S 
ATOM     17  C   UNL     1      -3.439  10.292  16.814  0.00  0.00    +0.000 A 
ATOM     18  C   UNL     1      -2.356   9.861  17.547  0.00  0.00    +0.000 A 
ATOM     19  C   UNL     1      -2.079  10.695  18.687  0.00  0.00    +0.000 A 
ENDBRANCH   9  11
BRANCH   1  23
ATOM     20  C   UNL     1       2.100   3.472  21.798  0.00  0.00    +0.000 C 
ATOM     21  C   UNL     1       1.920   4.292  20.547  0.00  0.00    +0.000 C 
ATOM     22  O   UNL     1       1.190   3.896  19.646  0.00  0.00    +0.000 OA
ATOM     23  N   UNL     1       2.672   5.458  20.564  0.00  0.00    +0.000 N 
ATOM     24  H   UNL     1       3.361   5.527  21.298  0.00  0.00    +0.000 HD
ENDBRANCH   1  23
TORSDOF 2
ENDMDL
MODEL 3
REMARK VINA RESULT:      -7.6      3.663      7.606
REMARK  Name = 
REMARK  3 active torsions:
REMARK  status: ('A' for Active; 'I' for Inactive)
REMARK    1  A    between atoms: C_1  and  C_2
REMARK    2  A    between atoms: N_4  and  C_5
REMARK    3  A    between atoms: N_13  and  C_14
REMARK                            x       y       z     vdW  Elec       q    Type
REMARK                         _______ _______ _______ _____ _____    ______ ____
ROOT
ATOM      1  C   UNL     1       0.123  10.239  19.860  0.00  0.00    +0.000 A 
ATOM      2  C   UNL     1      -0.609   9.942  21.018  0.00  0.00    +0.000 A 
ATOM      3  C   UNL     1      -0.310   8.830  21.809  0.00  0.00    +0.000 A 
ATOM      4  C   UNL     1       0.736   7.986  21.461  0.00  0.00    +0.000 A 
ATOM      5  C   UNL     1       1.469   8.242  20.300  0.00  0.00    +0.000 A 
ATOM      6  C   UNL     1       1.154   9.359  19.481  0.00  0.00    +0.000 A 
ATOM      7  C   UNL     1       2.036   9.504  18.260  0.00  0.00    +0.000 C 
ATOM      8  C   UNL     1       2.228   8.151  17.543  0.00  0.00    +0.000 C 
ATOM      9  N   UNL     1       2.464   7.034  18.469  0.00  0.00    +0.000 N 
ATOM     10  C   UNL     1       2.619   7.347  19.885  0.00  0.00    +0.000 C 
ENDROOT
BRANCH   9  11
ATOM     11  C   UNL     1       3.083   5.900  17.959  0.00  0.00    +0.000 A 
ATOM     12  N   UNL     1       4.185   6.041  17.173  0.00  0.00    +0.000 NA
ATOM     13  C   UNL     1       4.779   4.952  16.662  0.00  0.00    +0.000 A 
ATOM     14  N   UNL     1       4.417   3.679  16.818  0.00  0.00    +0.000 NA
ATOM     15  C   UNL     1       3.305   3.558  17.561  0.00  0.00    +0.000 A 
ATOM     16  S   UNL     1       2.630   2.017  17.850  0.00  0.00    +0.000 S 
ATOM     17  C   UNL     1       1.329   2.686  18.728  0.00  0.00    +0.000 A 
ATOM     18  C   UNL     1       1.412   4.059  18.797  0.00  0.00    +0.000 A 
ATOM     19  C   UNL     1       2.585   4.585  18.148  0.00  0.00    +0.000 A 
ENDBRANCH   9  11
BRANCH   1  23
ATOM     20  C   UNL     1      -0.317  13.648  18.298  0.00  0.00    +0.000 C 
ATOM     21  C   UNL     1       0.334  12.651  19.220  0.00  0.00    +0.000 C 
ATOM     22  O   UNL     1       1.233  13.000  19.976  0.00  0.00    +0.000 OA
ATOM     23  N   UNL     1      -0.185  11.372  19.070  0.00  0.00    +0.000 N 
ATOM     24  H   UNL     1      -0.782  11.230  18.268  0.00  0.00    +0.000 HD
ENDBRANCH   1  23
TORSDOF 2
ENDMDL
MODEL 4
REMARK VINA RESULT:      -7.4      2.123      3.247
REMARK  Name = 
REMARK  3 active torsions:
REMARK  status: ('A' for Active; 'I' for Inactive)
REMARK    1  A    between atoms: C_1  and  C_2
REMARK    2  A    between atoms: N_4  and  C_5
REMARK    3  A    between atoms: N_13  and  C_14
REMARK                            x       y       z     vdW  Elec       q    Type
REMARK                         _______ _______ _______ _____ _____    ______ ____
ROOT
ATOM      1  C   UNL     1       3.771   3.909  18.890  0.00  0.00    +0.000 A 
ATOM      2  C   UNL     1       3.847   2.869  19.826  0.00  0.00    +0.000 A 
ATOM      3  C   UNL     1       3.036   2.846  20.964  0.00  0.00    +0.000 A 
ATOM      4  C   UNL     1       2.121   3.866  21.190  0.00  0.00    +0.000 A 
ATOM      5  C   UNL     1       2.039   4.928  20.287  0.00  0.00    +0.000 A 
ATOM      6  C   UNL     1       2.878   4.967  19.141  0.00  0.00    +0.000 A 
ATOM      7  C   UNL     1       2.671   6.179  18.259  0.00  0.00    +0.000 C 
ATOM      8  C   UNL     1       2.580   7.472  19.095  0.00  0.00    +0.000 C 
ATOM      9  N   UNL     1       1.763   7.321  20.307  0.00  0.00    +0.000 N 
ATOM     10  C   UNL     1       1.054   6.061  20.496  0.00  0.00    +0.000 C 
ENDROOT
BRANCH   9  11
ATOM     11  C   UNL     1       1.245   8.477  20.878  0.00  0.00    +0.000 A 
ATOM     12  N   UNL     1       1.236   8.601  22.233  0.00  0.00    +0.000 NA
ATOM     13  C   UNL     1       0.721   9.706  22.794  0.00  0.00    +0.000 A 
ATOM     14  N   UNL     1       0.181  10.756  22.177  0.00  0.00    +0.000 NA
ATOM     15  C   UNL     1       0.159  10.601  20.843  0.00  0.00    +0.000 A 
ATOM     16  S   UNL     1      -0.534  11.804  19.851  0.00  0.00    +0.000 S 
ATOM     17  C   UNL     1      -0.245  10.891  18.439  0.00  0.00    +0.000 A 
ATOM     18  C   UNL     1       0.369   9.692  18.724  0.00  0.00    +0.000 A 
ATOM     19  C   UNL     1       0.647   9.521  20.126  0.00  0.00    +0.000 A 
ENDBRANCH   9  11
BRANCH   1  23
ATOM     20  C   UNL     1       6.458   4.320  16.268  0.00  0.00    +0.000 C 
ATOM     21  C   UNL     1       5.928   4.297  17.678  0.00  0.00    +0.000 C 
ATOM     22  O   UNL     1       6.662   4.573  18.620  0.00  0.00    +0.000 OA
ATOM     23  N   UNL     1       4.595   3.918  17.738  0.00  0.00    +0.000 N 
ATOM     24  H   UNL     1       4.205   3.541  16.887  0.00  0.00    +0.000 HD
ENDBRANCH   1  23
TORSDOF 2
ENDMDL
MODEL 5
REMARK VINA RESULT:      -7.4      3.861      6.102
REMARK  Name = 
REMARK  3 active torsions:
REMARK  status: ('A' for Active; 'I' for Inactive)
REMARK    1  A    between atoms: C_1  and  C_2
REMARK    2  A    between atoms: N_4  and  C_5
REMARK    3  A    between atoms: N_13  and  C_14
REMARK                            x       y       z     vdW  Elec       q    Type
REMARK                         _______ _______ _______ _____ _____    ______ ____
ROOT
ATOM      1  C   UNL     1       2.470   6.653  19.680  0.00  0.00    +0.000 A 
ATOM      2  C   UNL     1       3.043   6.535  18.407  0.00  0.00    +0.000 A 
ATOM      3  C   UNL     1       2.996   7.581  17.481  0.00  0.00    +0.000 A 
ATOM      4  C   UNL     1       2.376   8.778  17.812  0.00  0.00    +0.000 A 
ATOM      5  C   UNL     1       1.776   8.919  19.065  0.00  0.00    +0.000 A 
ATOM      6  C   UNL     1       1.801   7.850  20.000  0.00  0.00    +0.000 A 
ATOM      7  C   UNL     1       1.110   8.154  21.311  0.00  0.00    +0.000 C 
ATOM      8  C   UNL     1      -0.253   8.840  21.081  0.00  0.00    +0.000 C 
ATOM      9  N   UNL     1      -0.210   9.875  20.038  0.00  0.00    +0.000 N 
ATOM     10  C   UNL     1       1.089  10.209  19.466  0.00  0.00    +0.000 C 
ENDROOT
BRANCH   9  11
ATOM     11  C   UNL     1      -1.207  10.842  20.054  0.00  0.00    +0.000 A 
ATOM     12  N   UNL     1      -2.009  10.986  18.964  0.00  0.00    +0.000 NA
ATOM     13  C   UNL     1      -2.963  11.929  18.964  0.00  0.00    +0.000 A 
ATOM     14  N   UNL     1      -3.250  12.798  19.932  0.00  0.00    +0.000 NA
ATOM     15  C   UNL     1      -2.424  12.671  20.984  0.00  0.00    +0.000 A 
ATOM     16  S   UNL     1      -2.575  13.716  22.324  0.00  0.00    +0.000 S 
ATOM     17  C   UNL     1      -1.240  13.000  23.109  0.00  0.00    +0.000 A 
ATOM     18  C   UNL     1      -0.693  11.984  22.359  0.00  0.00    +0.000 A 
ATOM     19  C   UNL     1      -1.397  11.752  21.125  0.00  0.00    +0.000 A 
ENDBRANCH   9  11
BRANCH   1  23
ATOM     20  C   UNL     1       2.053   3.519  21.744  0.00  0.00    +0.000 C 
ATOM     21  C   UNL     1       1.886   4.363  20.508  0.00  0.00    +0.000 C 
ATOM     22  O   UNL     1       1.257   3.937  19.546  0.00  0.00    +0.000 OA
ATOM     23  N   UNL     1       2.529   5.588  20.612  0.00  0.00    +0.000 N 
ATOM     24  H   UNL     1       3.158   5.691  21.394  0.00  0.00    +0.000 HD
ENDBRANCH   1  23
TORSDOF 2
ENDMDL
MODEL 6
REMARK VINA RESULT:      -7.4      3.591      7.479
REMARK  Name = 
REMARK  3 active torsions:
REMARK  status: ('A' for Active; 'I' for Inactive)
REMARK    1  A    between atoms: C_1  and  C_2
REMARK    2  A    between atoms: N_4  and  C_5
REMARK    3  A    between atoms: N_13  and  C_14
REMARK                            x       y       z     vdW  Elec       q    Type
REMARK                         _______ _______ _______ _____ _____    ______ ____
ROOT
ATOM      1  C   UNL     1       0.160  10.317  19.924  0.00  0.00    +0.000 A 
ATOM      2  C   UNL     1      -0.526  10.065  21.120  0.00  0.00    +0.000 A 
ATOM      3  C   UNL     1      -0.241   8.947  21.907  0.00  0.00    +0.000 A 
ATOM      4  C   UNL     1       0.746   8.051  21.518  0.00  0.00    +0.000 A 
ATOM      5  C   UNL     1       1.432   8.263  20.320  0.00  0.00    +0.000 A 
ATOM      6  C   UNL     1       1.129   9.386  19.505  0.00  0.00    +0.000 A 
ATOM      7  C   UNL     1       1.956   9.478  18.241  0.00  0.00    +0.000 C 
ATOM      8  C   UNL     1       2.048   8.112  17.530  0.00  0.00    +0.000 C 
ATOM      9  N   UNL     1       2.278   6.993  18.455  0.00  0.00    +0.000 N 
ATOM     10  C   UNL     1       2.517   7.311  19.859  0.00  0.00    +0.000 C 
ENDROOT
BRANCH   9  11
ATOM     11  C   UNL     1       2.816   5.826  17.928  0.00  0.00    +0.000 A 
ATOM     12  N   UNL     1       2.072   4.687  17.941  0.00  0.00    +0.000 NA
ATOM     13  C   UNL     1       2.590   3.551  17.450  0.00  0.00    +0.000 A 
ATOM     14  N   UNL     1       3.802   3.368  16.927  0.00  0.00    +0.000 NA
ATOM     15  C   UNL     1       4.539   4.491  16.959  0.00  0.00    +0.000 A 
ATOM     16  S   UNL     1       6.147   4.478  16.386  0.00  0.00    +0.000 S 
ATOM     17  C   UNL     1       6.373   6.117  16.805  0.00  0.00    +0.000 A 
ATOM     18  C   UNL     1       5.241   6.659  17.371  0.00  0.00    +0.000 A 
ATOM     19  C   UNL     1       4.143   5.730  17.436  0.00  0.00    +0.000 A 
ENDBRANCH   9  11
BRANCH   1  23
ATOM     20  C   UNL     1      -0.237  13.737  18.373  0.00  0.00    +0.000 C 
ATOM     21  C   UNL     1       0.401  12.728  19.293  0.00  0.00    +0.000 C 
ATOM     22  O   UNL     1       1.303  13.064  20.051  0.00  0.00    +0.000 OA
ATOM     23  N   UNL     1      -0.133  11.457  19.137  0.00  0.00    +0.000 N 
ATOM     24  H   UNL     1      -0.730  11.325  18.335  0.00  0.00    +0.000 HD
ENDBRANCH   1  23
TORSDOF 2
ENDMDL
MODEL 7
REMARK VINA RESULT:      -7.3      2.424      3.542
REMARK  Name = 
REMARK  3 active torsions:
REMARK  status: ('A' for Active; 'I' for Inactive)
REMARK    1  A    between atoms: C_1  and  C_2
REMARK    2  A    between atoms: N_4  and  C_5
REMARK    3  A    between atoms: N_13  and  C_14
REMARK                            x       y       z     vdW  Elec       q    Type
REMARK                         _______ _______ _______ _____ _____    ______ ____
ROOT
ATOM      1  C   UNL     1       4.706   4.300  17.312  0.00  0.00    +0.000 A 
ATOM      2  C   UNL     1       5.263   4.453  16.036  0.00  0.00    +0.000 A 
ATOM      3  C   UNL     1       5.330   5.700  15.409  0.00  0.00    +0.000 A 
ATOM      4  C   UNL     1       4.842   6.831  16.051  0.00  0.00    +0.000 A 
ATOM      5  C   UNL     1       4.260   6.707  17.314  0.00  0.00    +0.000 A 
ATOM      6  C   UNL     1       4.170   5.437  17.945  0.00  0.00    +0.000 A 
ATOM      7  C   UNL     1       3.515   5.465  19.309  0.00  0.00    +0.000 C 
ATOM      8  C   UNL     1       2.235   6.326  19.299  0.00  0.00    +0.000 C 
ATOM      9  N   UNL     1       2.389   7.583  18.553  0.00  0.00    +0.000 N 
ATOM     10  C   UNL     1       3.717   7.916  18.049  0.00  0.00    +0.000 C 
ENDROOT
BRANCH   9  11
ATOM     11  C   UNL     1       1.502   8.612  18.843  0.00  0.00    +0.000 A 
ATOM     12  N   UNL     1       1.015   9.374  17.825  0.00  0.00    +0.000 NA
ATOM     13  C   UNL     1       0.171  10.381  18.098  0.00  0.00    +0.000 A 
ATOM     14  N   UNL     1      -0.278  10.768  19.291  0.00  0.00    +0.000 NA
ATOM     15  C   UNL     1       0.243  10.034  20.288  0.00  0.00    +0.000 A 
ATOM     16  S   UNL     1      -0.154  10.385  21.909  0.00  0.00    +0.000 S 
ATOM     17  C   UNL     1       0.878   9.156  22.491  0.00  0.00    +0.000 A 
ATOM     18  C   UNL     1       1.512   8.494  21.463  0.00  0.00    +0.000 A 
ATOM     19  C   UNL     1       1.124   8.971  20.162  0.00  0.00    +0.000 A 
ENDBRANCH   9  11
BRANCH   1  23
ATOM     20  C   UNL     1       3.797   0.979  18.864  0.00  0.00    +0.000 C 
ATOM     21  C   UNL     1       3.551   2.186  17.997  0.00  0.00    +0.000 C 
ATOM     22  O   UNL     1       2.479   2.325  17.418  0.00  0.00    +0.000 OA
ATOM     23  N   UNL     1       4.650   3.032  17.940  0.00  0.00    +0.000 N 
ATOM     24  H   UNL     1       5.509   2.663  18.319  0.00  0.00    +0.000 HD
ENDBRANCH   1  23
TORSDOF 2
ENDMDL
MODEL 8
REMARK VINA RESULT:      -7.2      4.070      7.892
REMARK  Name = 
REMARK  3 active torsions:
REMARK  status: ('A' for Active; 'I' for Inactive)
REMARK    1  A    between atoms: C_1  and  C_2
REMARK    2  A    between atoms: N_4  and  C_5
REMARK    3  A    between atoms: N_13  and  C_14
REMARK                            x       y       z     vdW  Elec       q    Type
REMARK                         _______ _______ _______ _____ _____    ______ ____
ROOT
ATOM      1  C   UNL     1       0.762  10.580  20.297  0.00  0.00    +0.000 A 
ATOM      2  C   UNL     1       1.184  11.604  19.440  0.00  0.00    +0.000 A 
ATOM      3  C   UNL     1       1.865  11.331  18.251  0.00  0.00    +0.000 A 
ATOM      4  C   UNL     1       2.136  10.019  17.887  0.00  0.00    +0.000 A 
ATOM      5  C   UNL     1       1.748   8.977  18.732  0.00  0.00    +0.000 A 
ATOM      6  C   UNL     1       1.076   9.252  19.953  0.00  0.00    +0.000 A 
ATOM      7  C   UNL     1       0.721   8.021  20.759  0.00  0.00    +0.000 C 
ATOM      8  C   UNL     1       1.904   7.034  20.827  0.00  0.00    +0.000 C 
ATOM      9  N   UNL     1       2.598   6.872  19.541  0.00  0.00    +0.000 N 
ATOM     10  C   UNL     1       2.023   7.531  18.373  0.00  0.00    +0.000 C 
ENDROOT
BRANCH   9  11
ATOM     11  C   UNL     1       3.353   5.721  19.361  0.00  0.00    +0.000 A 
ATOM     12  N   UNL     1       4.711   5.808  19.382  0.00  0.00    +0.000 NA
ATOM     13  C   UNL     1       5.448   4.703  19.192  0.00  0.00    +0.000 A 
ATOM     14  N   UNL     1       5.015   3.464  18.965  0.00  0.00    +0.000 NA
ATOM     15  C   UNL     1       3.675   3.401  18.906  0.00  0.00    +0.000 A 
ATOM     16  S   UNL     1       2.900   1.917  18.575  0.00  0.00    +0.000 S 
ATOM     17  C   UNL     1       1.358   2.648  18.605  0.00  0.00    +0.000 A 
ATOM     18  C   UNL     1       1.438   3.998  18.863  0.00  0.00    +0.000 A 
ATOM     19  C   UNL     1       2.788   4.451  19.078  0.00  0.00    +0.000 A 
ENDBRANCH   9  11
BRANCH   1  23
ATOM     20  C   UNL     1      -1.516  11.809  23.048  0.00  0.00    +0.000 C 
ATOM     21  C   UNL     1      -1.132  11.558  21.613  0.00  0.00    +0.000 C 
ATOM     22  O   UNL     1      -1.862  11.929  20.702  0.00  0.00    +0.000 OA
ATOM     23  N   UNL     1       0.067  10.869  21.497  0.00  0.00    +0.000 N 
ATOM     24  H   UNL     1       0.433  10.475  22.351  0.00  0.00    +0.000 HD
ENDBRANCH   1  23
TORSDOF 2
ENDMDL
MODEL 9
REMARK VINA RESULT:      -7.1      3.642      7.530
REMARK  Name = 
REMARK  3 active torsions:
REMARK  status: ('A' for Active; 'I' for Inactive)
REMARK    1  A    between atoms: C_1  and  C_2
REMARK    2  A    between atoms: N_4  and  C_5
REMARK    3  A    between atoms: N_13  and  C_14
REMARK                            x       y       z     vdW  Elec       q    Type
REMARK                         _______ _______ _______ _____ _____    ______ ____
ROOT
ATOM      1  C   UNL     1      -0.061   9.976  19.941  0.00  0.00    +0.000 A 
ATOM      2  C   UNL     1      -0.583   9.722  21.216  0.00  0.00    +0.000 A 
ATOM      3  C   UNL     1      -0.041   8.738  22.047  0.00  0.00    +0.000 A 
ATOM      4  C   UNL     1       1.045   7.984  21.621  0.00  0.00    +0.000 A 
ATOM      5  C   UNL     1       1.572   8.199  20.346  0.00  0.00    +0.000 A 
ATOM      6  C   UNL     1       1.010   9.182  19.489  0.00  0.00    +0.000 A 
ATOM      7  C   UNL     1       1.690   9.296  18.142  0.00  0.00    +0.000 C 
ATOM      8  C   UNL     1       1.949   7.906  17.525  0.00  0.00    +0.000 C 
ATOM      9  N   UNL     1       2.449   6.925  18.499  0.00  0.00    +0.000 N 
ATOM     10  C   UNL     1       2.757   7.399  19.844  0.00  0.00    +0.000 C 
ENDROOT
BRANCH   9  11
ATOM     11  C   UNL     1       3.128   5.820  18.003  0.00  0.00    +0.000 A 
ATOM     12  N   UNL     1       4.215   6.011  17.206  0.00  0.00    +0.000 NA
ATOM     13  C   UNL     1       4.867   4.949  16.708  0.00  0.00    +0.000 A 
ATOM     14  N   UNL     1       4.581   3.660  16.888  0.00  0.00    +0.000 NA
ATOM     15  C   UNL     1       3.483   3.488  17.642  0.00  0.00    +0.000 A 
ATOM     16  S   UNL     1       2.901   1.916  17.963  0.00  0.00    +0.000 S 
ATOM     17  C   UNL     1       1.570   2.523  18.841  0.00  0.00    +0.000 A 
ATOM     18  C   UNL     1       1.574   3.900  18.886  0.00  0.00    +0.000 A 
ATOM     19  C   UNL     1       2.709   4.482  18.219  0.00  0.00    +0.000 A 
ENDBRANCH   9  11
BRANCH   1  23
ATOM     20  C   UNL     1      -1.907  12.063  17.392  0.00  0.00    +0.000 C 
ATOM     21  C   UNL     1      -1.667  10.826  18.217  0.00  0.00    +0.000 C 
ATOM     22  O   UNL     1      -2.379   9.838  18.075  0.00  0.00    +0.000 OA
ATOM     23  N   UNL     1      -0.616  10.980  19.109  0.00  0.00    +0.000 N 
ATOM     24  H   UNL     1      -0.270  11.921  19.225  0.00  0.00    +0.000 HD
ENDBRANCH   1  23
TORSDOF 2
ENDMDL
