MODEL 1
REMARK VINA RESULT:      -7.4      0.000      0.000
REMARK  Name = 
REMARK  6 active torsions:
REMARK  status: ('A' for Active; 'I' for Inactive)
REMARK    1  A    between atoms: C_1  and  C_2
REMARK    2  A    between atoms: C_10  and  C_11
REMARK    3  A    between atoms: C_11  and  O_12
REMARK    4  A    between atoms: C_14  and  N_15
REMARK    5  A    between atoms: C_19  and  C_20
REMARK    6  A    between atoms: C_20  and  O_21
REMARK                            x       y       z     vdW  Elec       q    Type
REMARK                         _______ _______ _______ _____ _____    ______ ____
ROOT
ATOM      1  C   UNL     1       6.603   5.227  19.226  0.00  0.00    +0.000 C 
ATOM      2  C   UNL     1       6.408   4.841  17.795  0.00  0.00    +0.000 A 
ATOM      3  C   UNL     1       7.456   5.062  16.920  0.00  0.00    +0.000 A 
ATOM      4  N   UNL     1       7.403   4.837  15.599  0.00  0.00    +0.000 NA
ATOM      5  C   UNL     1       6.247   4.408  15.104  0.00  0.00    +0.000 A 
ATOM      6  N   UNL     1       6.159   4.260  13.739  0.00  0.00    +0.000 N 
ATOM      7  C   UNL     1       5.023   3.643  13.088  0.00  0.00    +0.000 C 
ATOM      8  C   UNL     1       5.664   2.759  12.019  0.00  0.00    +0.000 C 
ATOM      9  C   UNL     1       6.920   3.520  11.619  0.00  0.00    +0.000 C 
ATOM     10  C   UNL     1       7.366   4.225  12.915  0.00  0.00    +0.000 C 
ATOM     11  N   UNL     1       5.179   4.170  15.883  0.00  0.00    +0.000 NA
ATOM     12  C   UNL     1       5.246   4.328  17.232  0.00  0.00    +0.000 A 
ENDROOT
BRANCH  12  13
ATOM     13  N   UNL     1       4.091   4.086  17.974  0.00  0.00    +0.000 N 
ATOM     14  C   UNL     1       3.625   2.727  18.252  0.00  0.00    +0.000 C 
ATOM     15  C   UNL     1       2.173   2.700  17.799  0.00  0.00    +0.000 C 
ATOM     16  C   UNL     1       1.689   4.106  18.071  0.00  0.00    +0.000 C 
ATOM     17  C   UNL     1       2.921   4.995  17.815  0.00  0.00    +0.000 C 
BRANCH  17  18
ATOM     18  C   UNL     1       2.964   6.119  18.869  0.00  0.00    +0.000 C 
BRANCH  18  19
ATOM     19  O   UNL     1       3.218   5.638  20.184  0.00  0.00    +0.000 OA
ATOM     20  H   UNL     1       3.208   4.663  20.115  0.00  0.00    +0.000 HD
ENDBRANCH  18  19
ENDBRANCH  17  18
ENDBRANCH  12  13
BRANCH  10  21
ATOM     21  C   UNL     1       7.906   5.632  12.604  0.00  0.00    +0.000 C 
BRANCH  21  22
ATOM     22  O   UNL     1       9.019   5.962  13.436  0.00  0.00    +0.000 OA
ATOM     23  H   UNL     1       9.737   5.350  13.195  0.00  0.00    +0.000 HD
ENDBRANCH  21  22
ENDBRANCH  10  21
TORSDOF 5
ENDMDL
MODEL 2
REMARK VINA RESULT:      -7.2      1.321      1.893
REMARK  Name = 
REMARK  6 active torsions:
REMARK  status: ('A' for Active; 'I' for Inactive)
REMARK    1  A    between atoms: C_1  and  C_2
REMARK    2  A    between atoms: C_10  and  C_11
REMARK    3  A    between atoms: C_11  and  O_12
REMARK    4  A    between atoms: C_14  and  N_15
REMARK    5  A    between atoms: C_19  and  C_20
REMARK    6  A    between atoms: C_20  and  O_21
REMARK                            x       y       z     vdW  Elec       q    Type
REMARK                         _______ _______ _______ _____ _____    ______ ____
ROOT
ATOM      1  C   UNL     1       6.377   5.331  19.110  0.00  0.00    +0.000 C 
ATOM      2  C   UNL     1       6.242   4.914  17.680  0.00  0.00    +0.000 A 
ATOM      3  C   UNL     1       7.321   5.130  16.842  0.00  0.00    +0.000 A 
ATOM      4  N   UNL     1       7.322   4.878  15.525  0.00  0.00    +0.000 NA
ATOM      5  C   UNL     1       6.190   4.428  14.993  0.00  0.00    +0.000 A 
ATOM      6  N   UNL     1       6.158   4.252  13.629  0.00  0.00    +0.000 N 
ATOM      7  C   UNL     1       5.054   3.610  12.947  0.00  0.00    +0.000 C 
ATOM      8  C   UNL     1       5.746   2.712  11.922  0.00  0.00    +0.000 C 
ATOM      9  C   UNL     1       7.008   3.479  11.556  0.00  0.00    +0.000 C 
ATOM     10  C   UNL     1       7.396   4.214  12.854  0.00  0.00    +0.000 C 
ATOM     11  N   UNL     1       5.095   4.193  15.735  0.00  0.00    +0.000 NA
ATOM     12  C   UNL     1       5.107   4.378  17.082  0.00  0.00    +0.000 A 
ENDROOT
BRANCH  12  13
ATOM     13  N   UNL     1       3.927   4.139  17.784  0.00  0.00    +0.000 N 
ATOM     14  C   UNL     1       3.017   5.224  18.151  0.00  0.00    +0.000 C 
ATOM     15  C   UNL     1       2.797   5.075  19.648  0.00  0.00    +0.000 C 
ATOM     16  C   UNL     1       2.875   3.582  19.872  0.00  0.00    +0.000 C 
ATOM     17  C   UNL     1       3.911   3.092  18.843  0.00  0.00    +0.000 C 
BRANCH  17  18
ATOM     18  C   UNL     1       3.446   1.743  18.259  0.00  0.00    +0.000 C 
BRANCH  18  19
ATOM     19  O   UNL     1       4.303   0.662  18.605  0.00  0.00    +0.000 OA
ATOM     20  H   UNL     1       3.711  -0.077  18.851  0.00  0.00    +0.000 HD
ENDBRANCH  18  19
ENDBRANCH  17  18
ENDBRANCH  12  13
BRANCH  10  21
ATOM     21  C   UNL     1       7.934   5.620  12.537  0.00  0.00    +0.000 C 
BRANCH  21  22
ATOM     22  O   UNL     1       9.006   5.982  13.409  0.00  0.00    +0.000 OA
ATOM     23  H   UNL     1       9.122   6.944  13.322  0.00  0.00    +0.000 HD
ENDBRANCH  21  22
ENDBRANCH  10  21
TORSDOF 5
ENDMDL
MODEL 3
REMARK VINA RESULT:      -5.8      4.352      7.177
REMARK  Name = 
REMARK  6 active torsions:
REMARK  status: ('A' for Active; 'I' for Inactive)
REMARK    1  A    between atoms: C_1  and  C_2
REMARK    2  A    between atoms: C_10  and  C_11
REMARK    3  A    between atoms: C_11  and  O_12
REMARK    4  A    between atoms: C_14  and  N_15
REMARK    5  A    between atoms: C_19  and  C_20
REMARK    6  A    between atoms: C_20  and  O_21
REMARK                            x       y       z     vdW  Elec       q    Type
REMARK                         _______ _______ _______ _____ _____    ______ ____
ROOT
ATOM      1  C   UNL     1       4.472   5.632  16.967  0.00  0.00    +0.000 C 
ATOM      2  C   UNL     1       3.525   6.551  17.670  0.00  0.00    +0.000 A 
ATOM      3  C   UNL     1       3.310   7.801  17.118  0.00  0.00    +0.000 A 
ATOM      4  N   UNL     1       2.550   8.756  17.673  0.00  0.00    +0.000 NA
ATOM      5  C   UNL     1       2.000   8.484  18.852  0.00  0.00    +0.000 A 
ATOM      6  N   UNL     1       1.292   9.490  19.467  0.00  0.00    +0.000 N 
ATOM      7  C   UNL     1       0.505   9.277  20.663  0.00  0.00    +0.000 C 
ATOM      8  C   UNL     1      -0.774  10.068  20.390  0.00  0.00    +0.000 C 
ATOM      9  C   UNL     1      -0.307  11.239  19.538  0.00  0.00    +0.000 C 
ATOM     10  C   UNL     1       0.861  10.666  18.713  0.00  0.00    +0.000 C 
ATOM     11  N   UNL     1       2.159   7.296  19.458  0.00  0.00    +0.000 NA
ATOM     12  C   UNL     1       2.871   6.298  18.870  0.00  0.00    +0.000 A 
ENDROOT
BRANCH  12  13
ATOM     13  N   UNL     1       3.015   5.101  19.569  0.00  0.00    +0.000 N 
ATOM     14  C   UNL     1       4.331   4.582  19.945  0.00  0.00    +0.000 C 
ATOM     15  C   UNL     1       4.365   3.155  19.420  0.00  0.00    +0.000 C 
ATOM     16  C   UNL     1       2.930   2.698  19.536  0.00  0.00    +0.000 C 
ATOM     17  C   UNL     1       2.098   3.966  19.265  0.00  0.00    +0.000 C 
BRANCH  17  18
ATOM     18  C   UNL     1       0.882   3.988  20.213  0.00  0.00    +0.000 C 
BRANCH  18  19
ATOM     19  O   UNL     1       0.894   2.923  21.156  0.00  0.00    +0.000 OA
ATOM     20  H   UNL     1       1.476   2.237  20.774  0.00  0.00    +0.000 HD
ENDBRANCH  18  19
ENDBRANCH  17  18
ENDBRANCH  12  13
BRANCH  10  21
ATOM     21  C   UNL     1       1.981  11.711  18.564  0.00  0.00    +0.000 C 
BRANCH  21  22
ATOM     22  O   UNL     1       2.546  11.693  17.252  0.00  0.00    +0.000 OA
ATOM     23  H   UNL     1       3.303  11.083  17.285  0.00  0.00    +0.000 HD
ENDBRANCH  21  22
ENDBRANCH  10  21
TORSDOF 5
ENDMDL
MODEL 4
REMARK VINA RESULT:      -5.7      4.989      7.260
REMARK  Name = 
REMARK  6 active torsions:
REMARK  status: ('A' for Active; 'I' for Inactive)
REMARK    1  A    between atoms: C_1  and  C_2
REMARK    2  A    between atoms: C_10  and  C_11
REMARK    3  A    between atoms: C_11  and  O_12
REMARK    4  A    between atoms: C_14  and  N_15
REMARK    5  A    between atoms: C_19  and  C_20
REMARK    6  A    between atoms: C_20  and  O_21
REMARK                            x       y       z     vdW  Elec       q    Type
REMARK                         _______ _______ _______ _____ _____    ______ ____
ROOT
ATOM      1  C   UNL     1       2.194  10.021  17.997  0.00  0.00    +0.000 C 
ATOM      2  C   UNL     1       2.219   8.650  18.594  0.00  0.00    +0.000 A 
ATOM      3  C   UNL     1       2.729   7.622  17.822  0.00  0.00    +0.000 A 
ATOM      4  N   UNL     1       2.748   6.333  18.193  0.00  0.00    +0.000 NA
ATOM      5  C   UNL     1       2.202   6.031  19.366  0.00  0.00    +0.000 A 
ATOM      6  N   UNL     1       2.138   4.701  19.710  0.00  0.00    +0.000 N 
ATOM      7  C   UNL     1       1.728   4.250  21.024  0.00  0.00    +0.000 C 
ATOM      8  C   UNL     1       2.720   3.132  21.340  0.00  0.00    +0.000 C 
ATOM      9  C   UNL     1       3.030   2.522  19.981  0.00  0.00    +0.000 C 
ATOM     10  C   UNL     1       2.945   3.709  19.003  0.00  0.00    +0.000 C 
ATOM     11  N   UNL     1       1.682   6.969  20.175  0.00  0.00    +0.000 NA
ATOM     12  C   UNL     1       1.723   8.286  19.839  0.00  0.00    +0.000 A 
ENDROOT
BRANCH  12  13
ATOM     13  N   UNL     1       1.142   9.200  20.716  0.00  0.00    +0.000 N 
ATOM     14  C   UNL     1       1.639   9.380  22.081  0.00  0.00    +0.000 C 
ATOM     15  C   UNL     1       0.420   9.219  22.977  0.00  0.00    +0.000 C 
ATOM     16  C   UNL     1      -0.713   9.765  22.138  0.00  0.00    +0.000 C 
ATOM     17  C   UNL     1      -0.335   9.394  20.692  0.00  0.00    +0.000 C 
BRANCH  17  18
ATOM     18  C   UNL     1      -0.709  10.560  19.755  0.00  0.00    +0.000 C 
BRANCH  18  19
ATOM     19  O   UNL     1      -1.327  10.128  18.549  0.00  0.00    +0.000 OA
ATOM     20  H   UNL     1      -2.271   9.996  18.768  0.00  0.00    +0.000 HD
ENDBRANCH  18  19
ENDBRANCH  17  18
ENDBRANCH  12  13
BRANCH  10  21
ATOM     21  C   UNL     1       2.303   3.269  17.675  0.00  0.00    +0.000 C 
BRANCH  21  22
ATOM     22  O   UNL     1       1.039   3.901  17.469  0.00  0.00    +0.000 OA
ATOM     23  H   UNL     1       1.220   4.744  17.017  0.00  0.00    +0.000 HD
ENDBRANCH  21  22
ENDBRANCH  10  21
TORSDOF 5
ENDMDL
MODEL 5
REMARK VINA RESULT:      -5.7      4.907      8.224
REMARK  Name = 
REMARK  6 active torsions:
REMARK  status: ('A' for Active; 'I' for Inactive)
REMARK    1  A    between atoms: C_1  and  C_2
REMARK    2  A    between atoms: C_10  and  C_11
REMARK    3  A    between atoms: C_11  and  O_12
REMARK    4  A    between atoms: C_14  and  N_15
REMARK    5  A    between atoms: C_19  and  C_20
REMARK    6  A    between atoms: C_20  and  O_21
REMARK                            x       y       z     vdW  Elec       q    Type
REMARK                         _______ _______ _______ _____ _____    ______ ____
ROOT
ATOM      1  C   UNL     1       3.526   6.648  17.067  0.00  0.00    +0.000 C 
ATOM      2  C   UNL     1       2.781   7.287  18.196  0.00  0.00    +0.000 A 
ATOM      3  C   UNL     1       2.267   8.555  17.992  0.00  0.00    +0.000 A 
ATOM      4  N   UNL     1       1.644   9.282  18.931  0.00  0.00    +0.000 NA
ATOM      5  C   UNL     1       1.554   8.752  20.146  0.00  0.00    +0.000 A 
ATOM      6  N   UNL     1       0.995   9.528  21.135  0.00  0.00    +0.000 N 
ATOM      7  C   UNL     1       0.682   9.015  22.452  0.00  0.00    +0.000 C 
ATOM      8  C   UNL     1      -0.688   9.622  22.752  0.00  0.00    +0.000 C 
ATOM      9  C   UNL     1      -0.657  10.967  22.041  0.00  0.00    +0.000 C 
ATOM     10  C   UNL     1       0.217  10.719  20.797  0.00  0.00    +0.000 C 
ATOM     11  N   UNL     1       2.028   7.528  20.430  0.00  0.00    +0.000 NA
ATOM     12  C   UNL     1       2.598   6.756  19.467  0.00  0.00    +0.000 A 
ENDROOT
BRANCH  12  13
ATOM     13  N   UNL     1       3.090   5.506  19.839  0.00  0.00    +0.000 N 
ATOM     14  C   UNL     1       4.501   5.154  19.674  0.00  0.00    +0.000 C 
ATOM     15  C   UNL     1       4.500   3.845  18.899  0.00  0.00    +0.000 C 
ATOM     16  C   UNL     1       3.242   3.153  19.370  0.00  0.00    +0.000 C 
ATOM     17  C   UNL     1       2.244   4.298  19.626  0.00  0.00    +0.000 C 
BRANCH  17  18
ATOM     18  C   UNL     1       1.425   3.984  20.894  0.00  0.00    +0.000 C 
BRANCH  18  19
ATOM     19  O   UNL     1       2.225   3.505  21.968  0.00  0.00    +0.000 OA
ATOM     20  H   UNL     1       2.916   4.182  22.106  0.00  0.00    +0.000 HD
ENDBRANCH  18  19
ENDBRANCH  17  18
ENDBRANCH  12  13
BRANCH  10  21
ATOM     21  C   UNL     1       1.109  11.941  20.512  0.00  0.00    +0.000 C 
BRANCH  21  22
ATOM     22  O   UNL     1       1.302  12.135  19.110  0.00  0.00    +0.000 OA
ATOM     23  H   UNL     1       1.281  13.096  18.957  0.00  0.00    +0.000 HD
ENDBRANCH  21  22
ENDBRANCH  10  21
TORSDOF 5
ENDMDL
MODEL 6
REMARK VINA RESULT:      -5.6      3.856      7.551
REMARK  Name = 
REMARK  6 active torsions:
REMARK  status: ('A' for Active; 'I' for Inactive)
REMARK    1  A    between atoms: C_1  and  C_2
REMARK    2  A    between atoms: C_10  and  C_11
REMARK    3  A    between atoms: C_11  and  O_12
REMARK    4  A    between atoms: C_14  and  N_15
REMARK    5  A    between atoms: C_19  and  C_20
REMARK    6  A    between atoms: C_20  and  O_21
REMARK                            x       y       z     vdW  Elec       q    Type
REMARK                         _______ _______ _______ _____ _____    ______ ____
ROOT
ATOM      1  C   UNL     1       2.204   4.372  21.215  0.00  0.00    +0.000 C 
ATOM      2  C   UNL     1       2.145   5.723  20.577  0.00  0.00    +0.000 A 
ATOM      3  C   UNL     1       1.286   6.658  21.128  0.00  0.00    +0.000 A 
ATOM      4  N   UNL     1       1.071   7.881  20.622  0.00  0.00    +0.000 NA
ATOM      5  C   UNL     1       1.703   8.191  19.495  0.00  0.00    +0.000 A 
ATOM      6  N   UNL     1       1.418   9.410  18.925  0.00  0.00    +0.000 N 
ATOM      7  C   UNL     1       2.157   9.941  17.799  0.00  0.00    +0.000 C 
ATOM      8  C   UNL     1       2.347  11.414  18.163  0.00  0.00    +0.000 C 
ATOM      9  C   UNL     1       1.097  11.759  18.958  0.00  0.00    +0.000 C 
ATOM     10  C   UNL     1       0.742  10.453  19.695  0.00  0.00    +0.000 C 
ATOM     11  N   UNL     1       2.552   7.342  18.894  0.00  0.00    +0.000 NA
ATOM     12  C   UNL     1       2.830   6.127  19.437  0.00  0.00    +0.000 A 
ENDROOT
BRANCH  12  13
ATOM     13  N   UNL     1       3.702   5.288  18.745  0.00  0.00    +0.000 N 
ATOM     14  C   UNL     1       5.154   5.452  18.824  0.00  0.00    +0.000 C 
ATOM     15  C   UNL     1       5.629   5.531  17.382  0.00  0.00    +0.000 C 
ATOM     16  C   UNL     1       4.662   4.637  16.640  0.00  0.00    +0.000 C 
ATOM     17  C   UNL     1       3.325   4.811  17.385  0.00  0.00    +0.000 C 
BRANCH  17  18
ATOM     18  C   UNL     1       2.611   3.447  17.471  0.00  0.00    +0.000 C 
BRANCH  18  19
ATOM     19  O   UNL     1       1.199   3.566  17.596  0.00  0.00    +0.000 OA
ATOM     20  H   UNL     1       0.833   3.283  16.736  0.00  0.00    +0.000 HD
ENDBRANCH  18  19
ENDBRANCH  17  18
ENDBRANCH  12  13
BRANCH  10  21
ATOM     21  C   UNL     1      -0.783  10.255  19.739  0.00  0.00    +0.000 C 
BRANCH  21  22
ATOM     22  O   UNL     1      -1.334  10.131  18.427  0.00  0.00    +0.000 OA
ATOM     23  H   UNL     1      -1.411   9.177  18.247  0.00  0.00    +0.000 HD
ENDBRANCH  21  22
ENDBRANCH  10  21
TORSDOF 5
ENDMDL
MODEL 7
REMARK VINA RESULT:      -5.6      3.919      7.538
REMARK  Name = 
REMARK  6 active torsions:
REMARK  status: ('A' for Active; 'I' for Inactive)
REMARK    1  A    between atoms: C_1  and  C_2
REMARK    2  A    between atoms: C_10  and  C_11
REMARK    3  A    between atoms: C_11  and  O_12
REMARK    4  A    between atoms: C_14  and  N_15
REMARK    5  A    between atoms: C_19  and  C_20
REMARK    6  A    between atoms: C_20  and  O_21
REMARK                            x       y       z     vdW  Elec       q    Type
REMARK                         _______ _______ _______ _____ _____    ______ ____
ROOT
ATOM      1  C   UNL     1       2.127   4.142  21.054  0.00  0.00    +0.000 C 
ATOM      2  C   UNL     1       2.067   5.510  20.454  0.00  0.00    +0.000 A 
ATOM      3  C   UNL     1       1.498   6.520  21.211  0.00  0.00    +0.000 A 
ATOM      4  N   UNL     1       1.308   7.776  20.779  0.00  0.00    +0.000 NA
ATOM      5  C   UNL     1       1.658   8.046  19.527  0.00  0.00    +0.000 A 
ATOM      6  N   UNL     1       1.383   9.307  19.052  0.00  0.00    +0.000 N 
ATOM      7  C   UNL     1       1.863   9.785  17.772  0.00  0.00    +0.000 C 
ATOM      8  C   UNL     1       2.316  11.213  18.074  0.00  0.00    +0.000 C 
ATOM      9  C   UNL     1       1.365  11.675  19.168  0.00  0.00    +0.000 C 
ATOM     10  C   UNL     1       1.060  10.396  19.972  0.00  0.00    +0.000 C 
ATOM     11  N   UNL     1       2.214   7.124  18.724  0.00  0.00    +0.000 NA
ATOM     12  C   UNL     1       2.476   5.868  19.175  0.00  0.00    +0.000 A 
ENDROOT
BRANCH  12  13
ATOM     13  N   UNL     1       3.032   4.956  18.280  0.00  0.00    +0.000 N 
ATOM     14  C   UNL     1       2.198   4.119  17.416  0.00  0.00    +0.000 C 
ATOM     15  C   UNL     1       2.671   2.695  17.658  0.00  0.00    +0.000 C 
ATOM     16  C   UNL     1       4.148   2.854  17.941  0.00  0.00    +0.000 C 
ATOM     17  C   UNL     1       4.257   4.205  18.673  0.00  0.00    +0.000 C 
BRANCH  17  18
ATOM     18  C   UNL     1       5.520   4.944  18.189  0.00  0.00    +0.000 C 
BRANCH  18  19
ATOM     19  O   UNL     1       6.706   4.171  18.335  0.00  0.00    +0.000 OA
ATOM     20  H   UNL     1       7.158   4.214  17.469  0.00  0.00    +0.000 HD
ENDBRANCH  18  19
ENDBRANCH  17  18
ENDBRANCH  12  13
BRANCH  10  21
ATOM     21  C   UNL     1      -0.414  10.374  20.412  0.00  0.00    +0.000 C 
BRANCH  21  22
ATOM     22  O   UNL     1      -0.554   9.917  21.758  0.00  0.00    +0.000 OA
ATOM     23  H   UNL     1      -1.451   9.548  21.834  0.00  0.00    +0.000 HD
ENDBRANCH  21  22
ENDBRANCH  10  21
TORSDOF 5
ENDMDL
MODEL 8
REMARK VINA RESULT:      -5.5      4.048      7.767
REMARK  Name = 
REMARK  6 active torsions:
REMARK  status: ('A' for Active; 'I' for Inactive)
REMARK    1  A    between atoms: C_1  and  C_2
REMARK    2  A    between atoms: C_10  and  C_11
REMARK    3  A    between atoms: C_11  and  O_12
REMARK    4  A    between atoms: C_14  and  N_15
REMARK    5  A    between atoms: C_19  and  C_20
REMARK    6  A    between atoms: C_20  and  O_21
REMARK                            x       y       z     vdW  Elec       q    Type
REMARK                         _______ _______ _______ _____ _____    ______ ____
ROOT
ATOM      1  C   UNL     1       2.057   4.611  20.922  0.00  0.00    +0.000 C 
ATOM      2  C   UNL     1       2.007   6.000  20.371  0.00  0.00    +0.000 A 
ATOM      3  C   UNL     1       1.426   6.982  21.153  0.00  0.00    +0.000 A 
ATOM      4  N   UNL     1       1.243   8.253  20.763  0.00  0.00    +0.000 NA
ATOM      5  C   UNL     1       1.615   8.567  19.528  0.00  0.00    +0.000 A 
ATOM      6  N   UNL     1       1.348   9.845  19.093  0.00  0.00    +0.000 N 
ATOM      7  C   UNL     1       1.851  10.368  17.840  0.00  0.00    +0.000 C 
ATOM      8  C   UNL     1       2.298  11.784  18.200  0.00  0.00    +0.000 C 
ATOM      9  C   UNL     1       1.328  12.207  19.294  0.00  0.00    +0.000 C 
ATOM     10  C   UNL     1       1.009  10.900  20.046  0.00  0.00    +0.000 C 
ATOM     11  N   UNL     1       2.185   7.674  18.703  0.00  0.00    +0.000 NA
ATOM     12  C   UNL     1       2.439   6.403  19.113  0.00  0.00    +0.000 A 
ENDROOT
BRANCH  12  13
ATOM     13  N   UNL     1       3.010   5.523  18.195  0.00  0.00    +0.000 N 
ATOM     14  C   UNL     1       2.233   4.454  17.567  0.00  0.00    +0.000 C 
ATOM     15  C   UNL     1       3.027   3.181  17.815  0.00  0.00    +0.000 C 
ATOM     16  C   UNL     1       4.464   3.650  17.801  0.00  0.00    +0.000 C 
ATOM     17  C   UNL     1       4.414   5.067  18.401  0.00  0.00    +0.000 C 
BRANCH  17  18
ATOM     18  C   UNL     1       5.394   5.978  17.636  0.00  0.00    +0.000 C 
BRANCH  18  19
ATOM     19  O   UNL     1       4.736   6.949  16.829  0.00  0.00    +0.000 OA
ATOM     20  H   UNL     1       4.718   6.574  15.927  0.00  0.00    +0.000 HD
ENDBRANCH  18  19
ENDBRANCH  17  18
ENDBRANCH  12  13
BRANCH  10  21
ATOM     21  C   UNL     1      -0.473  10.864  20.459  0.00  0.00    +0.000 C 
BRANCH  21  22
ATOM     22  O   UNL     1      -0.634  10.375  21.791  0.00  0.00    +0.000 OA
ATOM     23  H   UNL     1      -0.164   9.523  21.833  0.00  0.00    +0.000 HD
ENDBRANCH  21  22
ENDBRANCH  10  21
TORSDOF 5
ENDMDL
MODEL 9
REMARK VINA RESULT:      -5.5      4.543      7.161
REMARK  Name = 
REMARK  6 active torsions:
REMARK  status: ('A' for Active; 'I' for Inactive)
REMARK    1  A    between atoms: C_1  and  C_2
REMARK    2  A    between atoms: C_10  and  C_11
REMARK    3  A    between atoms: C_11  and  O_12
REMARK    4  A    between atoms: C_14  and  N_15
REMARK    5  A    between atoms: C_19  and  C_20
REMARK    6  A    between atoms: C_20  and  O_21
REMARK                            x       y       z     vdW  Elec       q    Type
REMARK                         _______ _______ _______ _____ _____    ______ ____
ROOT
ATOM      1  C   UNL     1       2.197  10.124  17.847  0.00  0.00    +0.000 C 
ATOM      2  C   UNL     1       2.217   8.764  18.467  0.00  0.00    +0.000 A 
ATOM      3  C   UNL     1       3.010   7.798  17.874  0.00  0.00    +0.000 A 
ATOM      4  N   UNL     1       3.071   6.518  18.271  0.00  0.00    +0.000 NA
ATOM      5  C   UNL     1       2.285   6.158  19.279  0.00  0.00    +0.000 A 
ATOM      6  N   UNL     1       2.279   4.828  19.633  0.00  0.00    +0.000 N 
ATOM      7  C   UNL     1       1.604   4.334  20.815  0.00  0.00    +0.000 C 
ATOM      8  C   UNL     1       2.599   3.331  21.397  0.00  0.00    +0.000 C 
ATOM      9  C   UNL     1       3.301   2.759  20.174  0.00  0.00    +0.000 C 
ATOM     10  C   UNL     1       3.337   3.931  19.174  0.00  0.00    +0.000 C 
ATOM     11  N   UNL     1       1.484   7.032  19.910  0.00  0.00    +0.000 NA
ATOM     12  C   UNL     1       1.468   8.346  19.560  0.00  0.00    +0.000 A 
ENDROOT
BRANCH  12  13
ATOM     13  N   UNL     1       0.594   9.191  20.242  0.00  0.00    +0.000 N 
ATOM     14  C   UNL     1      -0.483   9.903  19.552  0.00  0.00    +0.000 C 
ATOM     15  C   UNL     1      -0.311  11.364  19.937  0.00  0.00    +0.000 C 
ATOM     16  C   UNL     1       0.240  11.299  21.343  0.00  0.00    +0.000 C 
ATOM     17  C   UNL     1       1.115  10.031  21.357  0.00  0.00    +0.000 C 
BRANCH  17  18
ATOM     18  C   UNL     1       0.937   9.305  22.705  0.00  0.00    +0.000 C 
BRANCH  18  19
ATOM     19  O   UNL     1       0.084  10.005  23.604  0.00  0.00    +0.000 OA
ATOM     20  H   UNL     1       0.446  10.911  23.660  0.00  0.00    +0.000 HD
ENDBRANCH  18  19
ENDBRANCH  17  18
ENDBRANCH  12  13
BRANCH  10  21
ATOM     21  C   UNL     1       3.096   3.424  17.741  0.00  0.00    +0.000 C 
BRANCH  21  22
ATOM     22  O   UNL     1       4.005   4.019  16.814  0.00  0.00    +0.000 OA
ATOM     23  H   UNL     1       4.287   4.865  17.205  0.00  0.00    +0.000 HD
ENDBRANCH  21  22
ENDBRANCH  10  21
TORSDOF 5
ENDMDL
