MODEL 1
REMARK VINA RESULT:      -7.4      0.000      0.000
REMARK  Name = 
REMARK  6 active torsions:
REMARK  status: ('A' for Active; 'I' for Inactive)
REMARK    1  A    between atoms: C_2  and  O_3
REMARK    2  A    between atoms: C_2  and  C_4
REMARK    3  A    between atoms: C_5  and  C_6
REMARK    4  A    between atoms: C_6  and  O_8
REMARK    5  A    between atoms: O_8  and  C_9
REMARK    6  A    between atoms: C_9  and  C_10
REMARK                            x       y       z     vdW  Elec       q    Type
REMARK                         _______ _______ _______ _____ _____    ______ ____
ROOT
ATOM      1  C   UNL     1       2.627   2.835  19.985  0.00  0.00    +0.000 C 
ATOM      2  C   UNL     1       3.242   4.205  19.629  0.00  0.00    +0.000 C 
ATOM      3  C   UNL     1       2.605   4.479  18.265  0.00  0.00    +0.000 C 
ATOM      4  C   UNL     1       3.118   3.563  17.152  0.00  0.00    +0.000 C 
ATOM      5  C   UNL     1       2.542   2.206  17.554  0.00  0.00    +0.000 C 
ATOM      6  C   UNL     1       1.718   2.560  18.789  0.00  0.00    +0.000 C 
ATOM      7  O   UNL     1       1.281   3.914  18.481  0.00  0.00    +0.000 OA
ENDROOT
BRANCH   1   9
ATOM      8  O   UNL     1       2.300   2.962  22.367  0.00  0.00    +0.000 OA
ATOM      9  C   UNL     1       1.807   2.909  21.251  0.00  0.00    +0.000 C 
BRANCH   9  10
ATOM     10  O   UNL     1       0.469   2.930  21.053  0.00  0.00    +0.000 OA
ATOM     11  H   UNL     1       0.116   3.823  20.834  0.00  0.00    +0.000 HD
ENDBRANCH   9  10
ENDBRANCH   1   9
BRANCH   2  12
ATOM     12  C   UNL     1       4.745   4.204  19.568  0.00  0.00    +0.000 C 
ATOM     13  O   UNL     1       5.436   3.195  19.607  0.00  0.00    +0.000 OA
BRANCH  12  14
ATOM     14  O   UNL     1       5.207   5.475  19.454  0.00  0.00    +0.000 OA
BRANCH  14  15
ATOM     15  C   UNL     1       6.494   5.622  18.834  0.00  0.00    +0.000 C 
BRANCH  15  16
ATOM     16  C   UNL     1       6.319   5.480  17.345  0.00  0.00    +0.000 A 
ATOM     17  C   UNL     1       5.445   6.321  16.641  0.00  0.00    +0.000 A 
ATOM     18  C   UNL     1       5.264   6.159  15.266  0.00  0.00    +0.000 A 
ATOM     19  C   UNL     1       5.950   5.155  14.585  0.00  0.00    +0.000 A 
ATOM     20  C   UNL     1       6.823   4.315  15.274  0.00  0.00    +0.000 A 
ATOM     21  C   UNL     1       7.006   4.477  16.648  0.00  0.00    +0.000 A 
ENDBRANCH  15  16
ENDBRANCH  14  15
ENDBRANCH  12  14
ENDBRANCH   2  12
TORSDOF 6
ENDMDL
MODEL 2
REMARK VINA RESULT:      -7.3      1.519      2.978
REMARK  Name = 
REMARK  6 active torsions:
REMARK  status: ('A' for Active; 'I' for Inactive)
REMARK    1  A    between atoms: C_2  and  O_3
REMARK    2  A    between atoms: C_2  and  C_4
REMARK    3  A    between atoms: C_5  and  C_6
REMARK    4  A    between atoms: C_6  and  O_8
REMARK    5  A    between atoms: O_8  and  C_9
REMARK    6  A    between atoms: C_9  and  C_10
REMARK                            x       y       z     vdW  Elec       q    Type
REMARK                         _______ _______ _______ _____ _____    ______ ____
ROOT
ATOM      1  C   UNL     1       3.422   3.624  19.306  0.00  0.00    +0.000 C 
ATOM      2  C   UNL     1       3.059   4.788  20.251  0.00  0.00    +0.000 C 
ATOM      3  C   UNL     1       1.952   4.157  21.099  0.00  0.00    +0.000 C 
ATOM      4  C   UNL     1       0.653   3.910  20.329  0.00  0.00    +0.000 C 
ATOM      5  C   UNL     1       1.052   2.795  19.365  0.00  0.00    +0.000 C 
ATOM      6  C   UNL     1       2.492   2.510  19.780  0.00  0.00    +0.000 C 
ATOM      7  O   UNL     1       2.455   2.795  21.207  0.00  0.00    +0.000 OA
ENDROOT
BRANCH   1   9
ATOM      8  O   UNL     1       5.805   3.968  19.344  0.00  0.00    +0.000 OA
ATOM      9  C   UNL     1       4.862   3.202  19.475  0.00  0.00    +0.000 C 
BRANCH   9  10
ATOM     10  O   UNL     1       5.031   1.901  19.804  0.00  0.00    +0.000 OA
ATOM     11  H   UNL     1       5.710   1.756  20.504  0.00  0.00    +0.000 HD
ENDBRANCH   9  10
ENDBRANCH   1   9
BRANCH   2  12
ATOM     12  C   UNL     1       2.598   6.031  19.543  0.00  0.00    +0.000 C 
ATOM     13  O   UNL     1       2.155   7.022  20.107  0.00  0.00    +0.000 OA
BRANCH  12  14
ATOM     14  O   UNL     1       2.757   5.890  18.203  0.00  0.00    +0.000 OA
BRANCH  14  15
ATOM     15  C   UNL     1       3.552   6.895  17.554  0.00  0.00    +0.000 C 
BRANCH  15  16
ATOM     16  C   UNL     1       4.814   6.245  17.050  0.00  0.00    +0.000 A 
ATOM     17  C   UNL     1       6.072   6.779  17.364  0.00  0.00    +0.000 A 
ATOM     18  C   UNL     1       7.234   6.190  16.863  0.00  0.00    +0.000 A 
ATOM     19  C   UNL     1       7.149   5.067  16.041  0.00  0.00    +0.000 A 
ATOM     20  C   UNL     1       5.904   4.526  15.725  0.00  0.00    +0.000 A 
ATOM     21  C   UNL     1       4.742   5.113  16.227  0.00  0.00    +0.000 A 
ENDBRANCH  15  16
ENDBRANCH  14  15
ENDBRANCH  12  14
ENDBRANCH   2  12
TORSDOF 6
ENDMDL
MODEL 3
REMARK VINA RESULT:      -7.3      1.382      2.249
REMARK  Name = 
REMARK  6 active torsions:
REMARK  status: ('A' for Active; 'I' for Inactive)
REMARK    1  A    between atoms: C_2  and  O_3
REMARK    2  A    between atoms: C_2  and  C_4
REMARK    3  A    between atoms: C_5  and  C_6
REMARK    4  A    between atoms: C_6  and  O_8
REMARK    5  A    between atoms: O_8  and  C_9
REMARK    6  A    between atoms: C_9  and  C_10
REMARK                            x       y       z     vdW  Elec       q    Type
REMARK                         _______ _______ _______ _____ _____    ______ ____
ROOT
ATOM      1  C   UNL     1       3.547   3.223  19.611  0.00  0.00    +0.000 C 
ATOM      2  C   UNL     1       2.436   4.200  20.050  0.00  0.00    +0.000 C 
ATOM      3  C   UNL     1       1.276   3.765  19.151  0.00  0.00    +0.000 C 
ATOM      4  C   UNL     1       1.482   4.106  17.674  0.00  0.00    +0.000 C 
ATOM      5  C   UNL     1       2.620   3.167  17.278  0.00  0.00    +0.000 C 
ATOM      6  C   UNL     1       2.841   2.370  18.560  0.00  0.00    +0.000 C 
ATOM      7  O   UNL     1       1.498   2.327  19.122  0.00  0.00    +0.000 OA
ENDROOT
BRANCH   1   9
ATOM      8  O   UNL     1       5.061   1.741  20.756  0.00  0.00    +0.000 OA
ATOM      9  C   UNL     1       4.004   2.354  20.759  0.00  0.00    +0.000 C 
BRANCH   9  10
ATOM     10  O   UNL     1       3.154   2.318  21.810  0.00  0.00    +0.000 OA
ATOM     11  H   UNL     1       2.229   2.087  21.561  0.00  0.00    +0.000 HD
ENDBRANCH   9  10
ENDBRANCH   1   9
BRANCH   2  12
ATOM     12  C   UNL     1       2.789   5.650  19.866  0.00  0.00    +0.000 C 
ATOM     13  O   UNL     1       2.039   6.581  20.126  0.00  0.00    +0.000 OA
BRANCH  12  14
ATOM     14  O   UNL     1       4.053   5.764  19.386  0.00  0.00    +0.000 OA
BRANCH  14  15
ATOM     15  C   UNL     1       4.199   6.519  18.173  0.00  0.00    +0.000 C 
BRANCH  15  16
ATOM     16  C   UNL     1       5.200   5.814  17.296  0.00  0.00    +0.000 A 
ATOM     17  C   UNL     1       6.315   5.170  17.853  0.00  0.00    +0.000 A 
ATOM     18  C   UNL     1       7.255   4.549  17.028  0.00  0.00    +0.000 A 
ATOM     19  C   UNL     1       7.093   4.570  15.644  0.00  0.00    +0.000 A 
ATOM     20  C   UNL     1       5.988   5.204  15.081  0.00  0.00    +0.000 A 
ATOM     21  C   UNL     1       5.046   5.823  15.903  0.00  0.00    +0.000 A 
ENDBRANCH  15  16
ENDBRANCH  14  15
ENDBRANCH  12  14
ENDBRANCH   2  12
TORSDOF 6
ENDMDL
MODEL 4
REMARK VINA RESULT:      -7.3      1.813      3.305
REMARK  Name = 
REMARK  6 active torsions:
REMARK  status: ('A' for Active; 'I' for Inactive)
REMARK    1  A    between atoms: C_2  and  O_3
REMARK    2  A    between atoms: C_2  and  C_4
REMARK    3  A    between atoms: C_5  and  C_6
REMARK    4  A    between atoms: C_6  and  O_8
REMARK    5  A    between atoms: O_8  and  C_9
REMARK    6  A    between atoms: C_9  and  C_10
REMARK                            x       y       z     vdW  Elec       q    Type
REMARK                         _______ _______ _______ _____ _____    ______ ____
ROOT
ATOM      1  C   UNL     1       2.779   5.113  19.714  0.00  0.00    +0.000 C 
ATOM      2  C   UNL     1       1.967   4.349  18.648  0.00  0.00    +0.000 C 
ATOM      3  C   UNL     1       0.990   3.557  19.520  0.00  0.00    +0.000 C 
ATOM      4  C   UNL     1       1.653   2.438  20.326  0.00  0.00    +0.000 C 
ATOM      5  C   UNL     1       2.492   3.218  21.337  0.00  0.00    +0.000 C 
ATOM      6  C   UNL     1       2.122   4.663  21.016  0.00  0.00    +0.000 C 
ATOM      7  O   UNL     1       0.740   4.529  20.575  0.00  0.00    +0.000 OA
ENDROOT
BRANCH   1   9
ATOM      8  O   UNL     1       2.890   7.197  18.513  0.00  0.00    +0.000 OA
ATOM      9  C   UNL     1       2.635   6.608  19.553  0.00  0.00    +0.000 C 
BRANCH   9  10
ATOM     10  O   UNL     1       2.181   7.251  20.653  0.00  0.00    +0.000 OA
ATOM     11  H   UNL     1       2.786   7.960  20.972  0.00  0.00    +0.000 HD
ENDBRANCH   9  10
ENDBRANCH   1   9
BRANCH   2  12
ATOM     12  C   UNL     1       2.798   3.458  17.767  0.00  0.00    +0.000 C 
ATOM     13  O   UNL     1       2.342   2.585  17.042  0.00  0.00    +0.000 OA
BRANCH  12  14
ATOM     14  O   UNL     1       4.112   3.776  17.890  0.00  0.00    +0.000 OA
BRANCH  14  15
ATOM     15  C   UNL     1       4.676   4.543  16.816  0.00  0.00    +0.000 C 
BRANCH  15  16
ATOM     16  C   UNL     1       5.790   5.389  17.376  0.00  0.00    +0.000 A 
ATOM     17  C   UNL     1       6.061   6.660  16.849  0.00  0.00    +0.000 A 
ATOM     18  C   UNL     1       7.118   7.421  17.352  0.00  0.00    +0.000 A 
ATOM     19  C   UNL     1       7.915   6.918  18.379  0.00  0.00    +0.000 A 
ATOM     20  C   UNL     1       7.654   5.657  18.911  0.00  0.00    +0.000 A 
ATOM     21  C   UNL     1       6.596   4.896  18.411  0.00  0.00    +0.000 A 
ENDBRANCH  15  16
ENDBRANCH  14  15
ENDBRANCH  12  14
ENDBRANCH   2  12
TORSDOF 6
ENDMDL
MODEL 5
REMARK VINA RESULT:      -7.2      2.119      5.238
REMARK  Name = 
REMARK  6 active torsions:
REMARK  status: ('A' for Active; 'I' for Inactive)
REMARK    1  A    between atoms: C_2  and  O_3
REMARK    2  A    between atoms: C_2  and  C_4
REMARK    3  A    between atoms: C_5  and  C_6
REMARK    4  A    between atoms: C_6  and  O_8
REMARK    5  A    between atoms: O_8  and  C_9
REMARK    6  A    between atoms: C_9  and  C_10
REMARK                            x       y       z     vdW  Elec       q    Type
REMARK                         _______ _______ _______ _____ _____    ______ ____
ROOT
ATOM      1  C   UNL     1       5.685   4.929  18.452  0.00  0.00    +0.000 C 
ATOM      2  C   UNL     1       5.477   5.398  16.998  0.00  0.00    +0.000 C 
ATOM      3  C   UNL     1       6.921   5.629  16.544  0.00  0.00    +0.000 C 
ATOM      4  C   UNL     1       7.590   6.833  17.210  0.00  0.00    +0.000 C 
ATOM      5  C   UNL     1       7.735   6.366  18.658  0.00  0.00    +0.000 C 
ATOM      6  C   UNL     1       7.205   4.936  18.589  0.00  0.00    +0.000 C 
ATOM      7  O   UNL     1       7.587   4.539  17.242  0.00  0.00    +0.000 OA
ENDROOT
BRANCH   1   9
ATOM      8  O   UNL     1       5.019   3.025  19.768  0.00  0.00    +0.000 OA
ATOM      9  C   UNL     1       5.154   3.531  18.664  0.00  0.00    +0.000 C 
BRANCH   9  10
ATOM     10  O   UNL     1       4.821   2.878  17.527  0.00  0.00    +0.000 OA
ATOM     11  H   UNL     1       5.469   3.005  16.795  0.00  0.00    +0.000 HD
ENDBRANCH   9  10
ENDBRANCH   1   9
BRANCH   2  12
ATOM     12  C   UNL     1       4.633   6.636  16.868  0.00  0.00    +0.000 C 
ATOM     13  O   UNL     1       4.509   7.281  15.837  0.00  0.00    +0.000 OA
BRANCH  12  14
ATOM     14  O   UNL     1       4.030   6.914  18.052  0.00  0.00    +0.000 OA
BRANCH  14  15
ATOM     15  C   UNL     1       2.595   6.917  18.041  0.00  0.00    +0.000 C 
BRANCH  15  16
ATOM     16  C   UNL     1       2.116   5.628  18.656  0.00  0.00    +0.000 A 
ATOM     17  C   UNL     1       2.079   5.466  20.048  0.00  0.00    +0.000 A 
ATOM     18  C   UNL     1       1.666   4.255  20.607  0.00  0.00    +0.000 A 
ATOM     19  C   UNL     1       1.292   3.196  19.781  0.00  0.00    +0.000 A 
ATOM     20  C   UNL     1       1.322   3.347  18.396  0.00  0.00    +0.000 A 
ATOM     21  C   UNL     1       1.732   4.558  17.836  0.00  0.00    +0.000 A 
ENDBRANCH  15  16
ENDBRANCH  14  15
ENDBRANCH  12  14
ENDBRANCH   2  12
TORSDOF 6
ENDMDL
MODEL 6
REMARK VINA RESULT:      -7.2      1.789      3.432
REMARK  Name = 
REMARK  6 active torsions:
REMARK  status: ('A' for Active; 'I' for Inactive)
REMARK    1  A    between atoms: C_2  and  O_3
REMARK    2  A    between atoms: C_2  and  C_4
REMARK    3  A    between atoms: C_5  and  C_6
REMARK    4  A    between atoms: C_6  and  O_8
REMARK    5  A    between atoms: O_8  and  C_9
REMARK    6  A    between atoms: C_9  and  C_10
REMARK                            x       y       z     vdW  Elec       q    Type
REMARK                         _______ _______ _______ _____ _____    ______ ____
ROOT
ATOM      1  C   UNL     1       2.805   5.117  19.691  0.00  0.00    +0.000 C 
ATOM      2  C   UNL     1       1.968   4.359  18.640  0.00  0.00    +0.000 C 
ATOM      3  C   UNL     1       0.989   3.588  19.529  0.00  0.00    +0.000 C 
ATOM      4  C   UNL     1       1.644   2.465  20.334  0.00  0.00    +0.000 C 
ATOM      5  C   UNL     1       2.507   3.238  21.330  0.00  0.00    +0.000 C 
ATOM      6  C   UNL     1       2.156   4.686  21.004  0.00  0.00    +0.000 C 
ATOM      7  O   UNL     1       0.768   4.571  20.580  0.00  0.00    +0.000 OA
ENDROOT
BRANCH   1   9
ATOM      8  O   UNL     1       2.984   7.198  18.492  0.00  0.00    +0.000 OA
ATOM      9  C   UNL     1       2.682   6.613  19.521  0.00  0.00    +0.000 C 
BRANCH   9  10
ATOM     10  O   UNL     1       2.192   7.263  20.601  0.00  0.00    +0.000 OA
ATOM     11  H   UNL     1       1.349   7.742  20.424  0.00  0.00    +0.000 HD
ENDBRANCH   9  10
ENDBRANCH   1   9
BRANCH   2  12
ATOM     12  C   UNL     1       2.774   3.449  17.755  0.00  0.00    +0.000 C 
ATOM     13  O   UNL     1       2.292   2.619  16.997  0.00  0.00    +0.000 OA
BRANCH  12  14
ATOM     14  O   UNL     1       4.099   3.696  17.918  0.00  0.00    +0.000 OA
BRANCH  14  15
ATOM     15  C   UNL     1       4.746   4.389  16.839  0.00  0.00    +0.000 C 
BRANCH  15  16
ATOM     16  C   UNL     1       5.863   5.219  17.415  0.00  0.00    +0.000 A 
ATOM     17  C   UNL     1       6.448   4.883  18.644  0.00  0.00    +0.000 A 
ATOM     18  C   UNL     1       7.460   5.679  19.186  0.00  0.00    +0.000 A 
ATOM     19  C   UNL     1       7.891   6.818  18.508  0.00  0.00    +0.000 A 
ATOM     20  C   UNL     1       7.318   7.160  17.284  0.00  0.00    +0.000 A 
ATOM     21  C   UNL     1       6.309   6.364  16.740  0.00  0.00    +0.000 A 
ENDBRANCH  15  16
ENDBRANCH  14  15
ENDBRANCH  12  14
ENDBRANCH   2  12
TORSDOF 6
ENDMDL
MODEL 7
REMARK VINA RESULT:      -7.2      0.973      1.292
REMARK  Name = 
REMARK  6 active torsions:
REMARK  status: ('A' for Active; 'I' for Inactive)
REMARK    1  A    between atoms: C_2  and  O_3
REMARK    2  A    between atoms: C_2  and  C_4
REMARK    3  A    between atoms: C_5  and  C_6
REMARK    4  A    between atoms: C_6  and  O_8
REMARK    5  A    between atoms: O_8  and  C_9
REMARK    6  A    between atoms: C_9  and  C_10
REMARK                            x       y       z     vdW  Elec       q    Type
REMARK                         _______ _______ _______ _____ _____    ______ ____
ROOT
ATOM      1  C   UNL     1       2.698   3.114  19.988  0.00  0.00    +0.000 C 
ATOM      2  C   UNL     1       2.141   4.469  19.504  0.00  0.00    +0.000 C 
ATOM      3  C   UNL     1       1.496   4.074  18.173  0.00  0.00    +0.000 C 
ATOM      4  C   UNL     1       2.506   3.699  17.087  0.00  0.00    +0.000 C 
ATOM      5  C   UNL     1       3.081   2.386  17.615  0.00  0.00    +0.000 C 
ATOM      6  C   UNL     1       2.258   2.160  18.880  0.00  0.00    +0.000 C 
ATOM      7  O   UNL     1       0.980   2.756  18.518  0.00  0.00    +0.000 OA
ENDROOT
BRANCH   1   9
ATOM      8  O   UNL     1       2.732   2.318  22.261  0.00  0.00    +0.000 OA
ATOM      9  C   UNL     1       2.078   2.699  21.302  0.00  0.00    +0.000 C 
BRANCH   9  10
ATOM     10  O   UNL     1       0.730   2.799  21.344  0.00  0.00    +0.000 OA
ATOM     11  H   UNL     1       0.265   1.961  21.113  0.00  0.00    +0.000 HD
ENDBRANCH   9  10
ENDBRANCH   1   9
BRANCH   2  12
ATOM     12  C   UNL     1       3.187   5.535  19.337  0.00  0.00    +0.000 C 
ATOM     13  O   UNL     1       2.943   6.713  19.114  0.00  0.00    +0.000 OA
BRANCH  12  14
ATOM     14  O   UNL     1       4.426   5.000  19.481  0.00  0.00    +0.000 OA
BRANCH  14  15
ATOM     15  C   UNL     1       5.513   5.779  18.958  0.00  0.00    +0.000 C 
BRANCH  15  16
ATOM     16  C   UNL     1       5.654   5.468  17.491  0.00  0.00    +0.000 A 
ATOM     17  C   UNL     1       5.192   6.366  16.519  0.00  0.00    +0.000 A 
ATOM     18  C   UNL     1       5.296   6.052  15.162  0.00  0.00    +0.000 A 
ATOM     19  C   UNL     1       5.857   4.839  14.766  0.00  0.00    +0.000 A 
ATOM     20  C   UNL     1       6.321   3.940  15.724  0.00  0.00    +0.000 A 
ATOM     21  C   UNL     1       6.220   4.253  17.081  0.00  0.00    +0.000 A 
ENDBRANCH  15  16
ENDBRANCH  14  15
ENDBRANCH  12  14
ENDBRANCH   2  12
TORSDOF 6
ENDMDL
MODEL 8
REMARK VINA RESULT:      -7.2      2.427      6.252
REMARK  Name = 
REMARK  6 active torsions:
REMARK  status: ('A' for Active; 'I' for Inactive)
REMARK    1  A    between atoms: C_2  and  O_3
REMARK    2  A    between atoms: C_2  and  C_4
REMARK    3  A    between atoms: C_5  and  C_6
REMARK    4  A    between atoms: C_6  and  O_8
REMARK    5  A    between atoms: O_8  and  C_9
REMARK    6  A    between atoms: C_9  and  C_10
REMARK                            x       y       z     vdW  Elec       q    Type
REMARK                         _______ _______ _______ _____ _____    ______ ____
ROOT
ATOM      1  C   UNL     1       6.076   4.635  15.869  0.00  0.00    +0.000 C 
ATOM      2  C   UNL     1       5.317   5.884  16.361  0.00  0.00    +0.000 C 
ATOM      3  C   UNL     1       6.403   6.602  17.166  0.00  0.00    +0.000 C 
ATOM      4  C   UNL     1       6.782   5.886  18.464  0.00  0.00    +0.000 C 
ATOM      5  C   UNL     1       7.483   4.629  17.950  0.00  0.00    +0.000 C 
ATOM      6  C   UNL     1       7.475   4.851  16.440  0.00  0.00    +0.000 C 
ATOM      7  O   UNL     1       7.570   6.301  16.349  0.00  0.00    +0.000 OA
ENDROOT
BRANCH   1   9
ATOM      8  O   UNL     1       5.269   4.068  13.673  0.00  0.00    +0.000 OA
ATOM      9  C   UNL     1       6.137   4.583  14.361  0.00  0.00    +0.000 C 
BRANCH   9  10
ATOM     10  O   UNL     1       7.229   5.172  13.822  0.00  0.00    +0.000 OA
ATOM     11  H   UNL     1       7.033   6.021  13.363  0.00  0.00    +0.000 HD
ENDBRANCH   9  10
ENDBRANCH   1   9
BRANCH   2  12
ATOM     12  C   UNL     1       4.102   5.574  17.192  0.00  0.00    +0.000 C 
ATOM     13  O   UNL     1       3.425   6.416  17.766  0.00  0.00    +0.000 OA
BRANCH  12  14
ATOM     14  O   UNL     1       3.869   4.237  17.195  0.00  0.00    +0.000 OA
BRANCH  14  15
ATOM     15  C   UNL     1       2.508   3.836  17.417  0.00  0.00    +0.000 C 
BRANCH  15  16
ATOM     16  C   UNL     1       2.369   3.414  18.856  0.00  0.00    +0.000 A 
ATOM     17  C   UNL     1       1.139   3.521  19.520  0.00  0.00    +0.000 A 
ATOM     18  C   UNL     1       1.029   3.158  20.864  0.00  0.00    +0.000 A 
ATOM     19  C   UNL     1       2.145   2.692  21.556  0.00  0.00    +0.000 A 
ATOM     20  C   UNL     1       3.372   2.579  20.905  0.00  0.00    +0.000 A 
ATOM     21  C   UNL     1       3.483   2.939  19.561  0.00  0.00    +0.000 A 
ENDBRANCH  15  16
ENDBRANCH  14  15
ENDBRANCH  12  14
ENDBRANCH   2  12
TORSDOF 6
ENDMDL
MODEL 9
REMARK VINA RESULT:      -7.2      2.061      5.750
REMARK  Name = 
REMARK  6 active torsions:
REMARK  status: ('A' for Active; 'I' for Inactive)
REMARK    1  A    between atoms: C_2  and  O_3
REMARK    2  A    between atoms: C_2  and  C_4
REMARK    3  A    between atoms: C_5  and  C_6
REMARK    4  A    between atoms: C_6  and  O_8
REMARK    5  A    between atoms: O_8  and  C_9
REMARK    6  A    between atoms: C_9  and  C_10
REMARK                            x       y       z     vdW  Elec       q    Type
REMARK                         _______ _______ _______ _____ _____    ______ ____
ROOT
ATOM      1  C   UNL     1       6.554   6.477  17.492  0.00  0.00    +0.000 C 
ATOM      2  C   UNL     1       6.715   5.082  18.130  0.00  0.00    +0.000 C 
ATOM      3  C   UNL     1       6.845   4.194  16.890  0.00  0.00    +0.000 C 
ATOM      4  C   UNL     1       5.550   4.067  16.086  0.00  0.00    +0.000 C 
ATOM      5  C   UNL     1       5.384   5.472  15.510  0.00  0.00    +0.000 C 
ATOM      6  C   UNL     1       6.649   6.172  15.999  0.00  0.00    +0.000 C 
ATOM      7  O   UNL     1       7.609   5.077  16.020  0.00  0.00    +0.000 OA
ENDROOT
BRANCH   1   9
ATOM      8  O   UNL     1       7.918   8.455  17.327  0.00  0.00    +0.000 OA
ATOM      9  C   UNL     1       7.674   7.405  17.901  0.00  0.00    +0.000 C 
BRANCH   9  10
ATOM     10  O   UNL     1       8.385   6.989  18.974  0.00  0.00    +0.000 OA
ATOM     11  H   UNL     1       7.842   6.879  19.788  0.00  0.00    +0.000 HD
ENDBRANCH   9  10
ENDBRANCH   1   9
BRANCH   2  12
ATOM     12  C   UNL     1       5.563   4.673  19.006  0.00  0.00    +0.000 C 
ATOM     13  O   UNL     1       5.352   3.527  19.379  0.00  0.00    +0.000 OA
BRANCH  12  14
ATOM     14  O   UNL     1       4.813   5.758  19.325  0.00  0.00    +0.000 OA
BRANCH  14  15
ATOM     15  C   UNL     1       3.627   5.956  18.539  0.00  0.00    +0.000 C 
BRANCH  15  16
ATOM     16  C   UNL     1       2.601   4.941  18.970  0.00  0.00    +0.000 A 
ATOM     17  C   UNL     1       2.151   4.893  20.297  0.00  0.00    +0.000 A 
ATOM     18  C   UNL     1       1.225   3.926  20.694  0.00  0.00    +0.000 A 
ATOM     19  C   UNL     1       0.746   2.998  19.772  0.00  0.00    +0.000 A 
ATOM     20  C   UNL     1       1.185   3.037  18.450  0.00  0.00    +0.000 A 
ATOM     21  C   UNL     1       2.108   4.005  18.051  0.00  0.00    +0.000 A 
ENDBRANCH  15  16
ENDBRANCH  14  15
ENDBRANCH  12  14
ENDBRANCH   2  12
TORSDOF 6
ENDMDL
