MODEL 1
REMARK VINA RESULT:      -8.3      0.000      0.000
REMARK  Name = 
REMARK  9 active torsions:
REMARK  status: ('A' for Active; 'I' for Inactive)
REMARK    1  A    between atoms: C_1  and  C_2
REMARK    2  A    between atoms: C_5  and  N_6
REMARK    3  A    between atoms: C_7  and  C_9
REMARK    4  A    between atoms: C_9  and  C_10
REMARK    5  A    between atoms: C_9  and  O_16
REMARK    6  A    between atoms: C_10  and  O_11
REMARK    7  A    between atoms: O_11  and  C_12
REMARK    8  A    between atoms: O_16  and  C_17
REMARK    9  A    between atoms: N_25  and  C_26
REMARK                            x       y       z     vdW  Elec       q    Type
REMARK                         _______ _______ _______ _____ _____    ______ ____
ROOT
ATOM      1  C   UNL     1       2.329   7.014  19.757  0.00  0.00    +0.000 C 
ENDROOT
BRANCH   1   3
ATOM      2  N   UNL     1       4.140   6.178  18.297  0.00  0.00    +0.000 N 
ATOM      3  C   UNL     1       2.778   6.229  18.495  0.00  0.00    +0.000 C 
ATOM      4  O   UNL     1       1.947   5.658  17.786  0.00  0.00    +0.000 OA
ATOM      5  H   UNL     1       4.725   6.457  19.077  0.00  0.00    +0.000 HD
BRANCH   2  10
ATOM      6  C   UNL     1       6.696   4.183  13.731  0.00  0.00    +0.000 C 
ATOM      7  C   UNL     1       5.992   4.714  14.938  0.00  0.00    +0.000 A 
ATOM      8  C   UNL     1       5.595   3.868  15.962  0.00  0.00    +0.000 A 
ATOM      9  N   UNL     1       4.975   4.311  17.079  0.00  0.00    +0.000 NA
ATOM     10  C   UNL     1       4.762   5.635  17.168  0.00  0.00    +0.000 A 
ATOM     11  C   UNL     1       5.138   6.480  16.128  0.00  0.00    +0.000 A 
ATOM     12  N   UNL     1       5.761   6.048  15.000  0.00  0.00    +0.000 NA
ENDBRANCH   2  10
ENDBRANCH   1   3
BRANCH   1  13
ATOM     13  C   UNL     1       1.498   6.009  20.574  0.00  0.00    +0.000 C 
BRANCH  13  14
ATOM     14  O   UNL     1       2.311   5.094  21.317  0.00  0.00    +0.000 OA
BRANCH  14  15
ATOM     15  C   UNL     1       1.977   3.705  21.088  0.00  0.00    +0.000 C 
ATOM     16  C   UNL     1       0.819   3.434  20.103  0.00  0.00    +0.000 C 
ATOM     17  C   UNL     1       1.618   2.212  19.605  0.00  0.00    +0.000 C 
ATOM     18  C   UNL     1       2.886   2.929  20.101  0.00  0.00    +0.000 C 
ENDBRANCH  14  15
ENDBRANCH  13  14
ENDBRANCH   1  13
BRANCH   1  19
ATOM     19  O   UNL     1       1.527   8.177  19.509  0.00  0.00    +0.000 OA
BRANCH  19  20
ATOM     20  C   UNL     1       1.078   8.799  20.657  0.00  0.00    +0.000 A 
ATOM     21  N   UNL     1       1.672   8.493  21.838  0.00  0.00    +0.000 NA
ATOM     22  C   UNL     1       1.265   9.150  22.940  0.00  0.00    +0.000 A 
ATOM     23  N   UNL     1       0.390  10.158  23.010  0.00  0.00    +0.000 NA
ATOM     24  C   UNL     1      -0.139  10.468  21.807  0.00  0.00    +0.000 A 
ATOM     25  C   UNL     1       0.140   9.824  20.612  0.00  0.00    +0.000 A 
ATOM     26  C   UNL     1      -0.677  10.460  19.669  0.00  0.00    +0.000 A 
ATOM     27  N   UNL     1      -1.431  11.426  20.201  0.00  0.00    +0.000 NA
ATOM     28  N   UNL     1      -1.089  11.445  21.521  0.00  0.00    +0.000 N 
BRANCH  28  29
ATOM     29  C   UNL     1      -1.608  12.424  22.413  0.00  0.00    +0.000 A 
ATOM     30  C   UNL     1      -2.857  12.188  23.023  0.00  0.00    +0.000 A 
ATOM     31  C   UNL     1      -3.396  13.106  23.927  0.00  0.00    +0.000 A 
ATOM     32  C   UNL     1      -2.706  14.276  24.222  0.00  0.00    +0.000 A 
ATOM     33  C   UNL     1      -1.474  14.525  23.615  0.00  0.00    +0.000 A 
ATOM     34  C   UNL     1      -0.915  13.605  22.716  0.00  0.00    +0.000 A 
ATOM     35 CL   UNL     1       0.547  14.109  21.938  0.00  0.00    +0.000 Cl
ENDBRANCH  28  29
ENDBRANCH  19  20
ENDBRANCH   1  19
TORSDOF 8
ENDMDL
MODEL 2
REMARK VINA RESULT:      -8.1      2.386      2.989
REMARK  Name = 
REMARK  9 active torsions:
REMARK  status: ('A' for Active; 'I' for Inactive)
REMARK    1  A    between atoms: C_1  and  C_2
REMARK    2  A    between atoms: C_5  and  N_6
REMARK    3  A    between atoms: C_7  and  C_9
REMARK    4  A    between atoms: C_9  and  C_10
REMARK    5  A    between atoms: C_9  and  O_16
REMARK    6  A    between atoms: C_10  and  O_11
REMARK    7  A    between atoms: O_11  and  C_12
REMARK    8  A    between atoms: O_16  and  C_17
REMARK    9  A    between atoms: N_25  and  C_26
REMARK                            x       y       z     vdW  Elec       q    Type
REMARK                         _______ _______ _______ _____ _____    ______ ____
ROOT
ATOM      1  C   UNL     1       2.376   6.313  20.297  0.00  0.00    +0.000 C 
ENDROOT
BRANCH   1   3
ATOM      2  N   UNL     1       4.191   5.583  18.787  0.00  0.00    +0.000 N 
ATOM      3  C   UNL     1       2.874   5.980  18.866  0.00  0.00    +0.000 C 
ATOM      4  O   UNL     1       2.099   6.021  17.909  0.00  0.00    +0.000 OA
ATOM      5  H   UNL     1       4.646   5.339  19.659  0.00  0.00    +0.000 HD
BRANCH   2  10
ATOM      6  C   UNL     1       7.077   4.823  14.047  0.00  0.00    +0.000 C 
ATOM      7  C   UNL     1       6.287   5.035  15.299  0.00  0.00    +0.000 A 
ATOM      8  C   UNL     1       5.538   4.008  15.852  0.00  0.00    +0.000 A 
ATOM      9  N   UNL     1       4.828   4.153  16.993  0.00  0.00    +0.000 NA
ATOM     10  C   UNL     1       4.884   5.354  17.594  0.00  0.00    +0.000 A 
ATOM     11  C   UNL     1       5.616   6.391  17.024  0.00  0.00    +0.000 A 
ATOM     12  N   UNL     1       6.334   6.260  15.877  0.00  0.00    +0.000 NA
ENDBRANCH   2  10
ENDBRANCH   1   3
BRANCH   1  13
ATOM     13  C   UNL     1       2.421   4.974  21.055  0.00  0.00    +0.000 C 
BRANCH  13  14
ATOM     14  O   UNL     1       1.207   4.226  20.928  0.00  0.00    +0.000 OA
BRANCH  14  15
ATOM     15  C   UNL     1       1.392   2.916  20.341  0.00  0.00    +0.000 C 
ATOM     16  C   UNL     1       1.063   2.788  18.837  0.00  0.00    +0.000 C 
ATOM     17  C   UNL     1       2.266   1.830  18.724  0.00  0.00    +0.000 C 
ATOM     18  C   UNL     1       2.845   2.524  19.969  0.00  0.00    +0.000 C 
ENDBRANCH  14  15
ENDBRANCH  13  14
ENDBRANCH   1  13
BRANCH   1  19
ATOM     19  O   UNL     1       1.046   6.842  20.382  0.00  0.00    +0.000 OA
BRANCH  19  20
ATOM     20  C   UNL     1       1.000   8.187  20.693  0.00  0.00    +0.000 A 
ATOM     21  N   UNL     1       1.044   8.556  21.997  0.00  0.00    +0.000 NA
ATOM     22  C   UNL     1       1.058   9.870  22.284  0.00  0.00    +0.000 A 
ATOM     23  N   UNL     1       1.128  10.891  21.423  0.00  0.00    +0.000 NA
ATOM     24  C   UNL     1       1.136  10.481  20.136  0.00  0.00    +0.000 A 
ATOM     25  C   UNL     1       1.053   9.166  19.707  0.00  0.00    +0.000 A 
ATOM     26  C   UNL     1       1.047   9.250  18.309  0.00  0.00    +0.000 A 
ATOM     27  N   UNL     1       1.110  10.508  17.864  0.00  0.00    +0.000 NA
ATOM     28  N   UNL     1       1.181  11.271  18.991  0.00  0.00    +0.000 N 
BRANCH  28  29
ATOM     29  C   UNL     1       1.368  12.680  18.928  0.00  0.00    +0.000 A 
ATOM     30  C   UNL     1       2.662  13.179  18.674  0.00  0.00    +0.000 A 
ATOM     31  C   UNL     1       2.892  14.553  18.576  0.00  0.00    +0.000 A 
ATOM     32  C   UNL     1       1.840  15.446  18.744  0.00  0.00    +0.000 A 
ATOM     33  C   UNL     1       0.557  14.964  19.007  0.00  0.00    +0.000 A 
ATOM     34  C   UNL     1       0.310  13.586  19.095  0.00  0.00    +0.000 A 
ATOM     35 CL   UNL     1      -1.296  13.140  19.561  0.00  0.00    +0.000 Cl
ENDBRANCH  28  29
ENDBRANCH  19  20
ENDBRANCH   1  19
TORSDOF 8
ENDMDL
MODEL 3
REMARK VINA RESULT:      -8.0      2.669      3.301
REMARK  Name = 
REMARK  9 active torsions:
REMARK  status: ('A' for Active; 'I' for Inactive)
REMARK    1  A    between atoms: C_1  and  C_2
REMARK    2  A    between atoms: C_5  and  N_6
REMARK    3  A    between atoms: C_7  and  C_9
REMARK    4  A    between atoms: C_9  and  C_10
REMARK    5  A    between atoms: C_9  and  O_16
REMARK    6  A    between atoms: C_10  and  O_11
REMARK    7  A    between atoms: O_11  and  C_12
REMARK    8  A    between atoms: O_16  and  C_17
REMARK    9  A    between atoms: N_25  and  C_26
REMARK                            x       y       z     vdW  Elec       q    Type
REMARK                         _______ _______ _______ _____ _____    ______ ____
ROOT
ATOM      1  C   UNL     1       3.338   5.707  20.029  0.00  0.00    +0.000 C 
ENDROOT
BRANCH   1   3
ATOM      2  N   UNL     1       4.225   5.732  17.722  0.00  0.00    +0.000 N 
ATOM      3  C   UNL     1       4.504   5.443  19.039  0.00  0.00    +0.000 C 
ATOM      4  O   UNL     1       5.601   5.062  19.454  0.00  0.00    +0.000 OA
ATOM      5  H   UNL     1       3.391   6.278  17.542  0.00  0.00    +0.000 HD
BRANCH   2  10
ATOM      6  C   UNL     1       7.790   4.705  13.526  0.00  0.00    +0.000 C 
ATOM      7  C   UNL     1       6.829   4.999  14.633  0.00  0.00    +0.000 A 
ATOM      8  C   UNL     1       5.597   4.366  14.695  0.00  0.00    +0.000 A 
ATOM      9  N   UNL     1       4.709   4.588  15.691  0.00  0.00    +0.000 NA
ATOM     10  C   UNL     1       5.078   5.457  16.648  0.00  0.00    +0.000 A 
ATOM     11  C   UNL     1       6.304   6.110  16.571  0.00  0.00    +0.000 A 
ATOM     12  N   UNL     1       7.205   5.897  15.576  0.00  0.00    +0.000 NA
ENDBRANCH   2  10
ENDBRANCH   1   3
BRANCH   1  13
ATOM     13  C   UNL     1       3.122   4.367  20.754  0.00  0.00    +0.000 C 
BRANCH  13  14
ATOM     14  O   UNL     1       1.922   3.702  20.343  0.00  0.00    +0.000 OA
BRANCH  14  15
ATOM     15  C   UNL     1       2.159   2.530  19.528  0.00  0.00    +0.000 C 
ATOM     16  C   UNL     1       2.155   2.748  17.999  0.00  0.00    +0.000 C 
ATOM     17  C   UNL     1       3.301   1.719  17.917  0.00  0.00    +0.000 C 
ATOM     18  C   UNL     1       3.635   2.081  19.375  0.00  0.00    +0.000 C 
ENDBRANCH  14  15
ENDBRANCH  13  14
ENDBRANCH   1  13
BRANCH   1  19
ATOM     19  O   UNL     1       2.097   6.108  19.430  0.00  0.00    +0.000 OA
BRANCH  19  20
ATOM     20  C   UNL     1       1.643   7.339  19.860  0.00  0.00    +0.000 A 
ATOM     21  N   UNL     1       1.273   7.479  21.157  0.00  0.00    +0.000 NA
ATOM     22  C   UNL     1       0.889   8.699  21.577  0.00  0.00    +0.000 A 
ATOM     23  N   UNL     1       0.911   9.843  20.886  0.00  0.00    +0.000 NA
ATOM     24  C   UNL     1       1.336   9.670  19.616  0.00  0.00    +0.000 A 
ATOM     25  C   UNL     1       1.691   8.461  19.041  0.00  0.00    +0.000 A 
ATOM     26  C   UNL     1       2.007   8.780  17.714  0.00  0.00    +0.000 A 
ATOM     27  N   UNL     1       1.861  10.080  17.443  0.00  0.00    +0.000 NA
ATOM     28  N   UNL     1       1.462  10.637  18.621  0.00  0.00    +0.000 N 
BRANCH  28  29
ATOM     29  C   UNL     1       1.302  12.043  18.767  0.00  0.00    +0.000 A 
ATOM     30  C   UNL     1       2.455  12.847  18.864  0.00  0.00    +0.000 A 
ATOM     31  C   UNL     1       2.351  14.235  18.980  0.00  0.00    +0.000 A 
ATOM     32  C   UNL     1       1.098  14.836  19.017  0.00  0.00    +0.000 A 
ATOM     33  C   UNL     1      -0.051  14.048  18.933  0.00  0.00    +0.000 A 
ATOM     34  C   UNL     1       0.039  12.655  18.802  0.00  0.00    +0.000 A 
ATOM     35 CL   UNL     1      -1.463  11.797  18.848  0.00  0.00    +0.000 Cl
ENDBRANCH  28  29
ENDBRANCH  19  20
ENDBRANCH   1  19
TORSDOF 8
ENDMDL
MODEL 4
REMARK VINA RESULT:      -7.7      1.363      1.589
REMARK  Name = 
REMARK  9 active torsions:
REMARK  status: ('A' for Active; 'I' for Inactive)
REMARK    1  A    between atoms: C_1  and  C_2
REMARK    2  A    between atoms: C_5  and  N_6
REMARK    3  A    between atoms: C_7  and  C_9
REMARK    4  A    between atoms: C_9  and  C_10
REMARK    5  A    between atoms: C_9  and  O_16
REMARK    6  A    between atoms: C_10  and  O_11
REMARK    7  A    between atoms: O_11  and  C_12
REMARK    8  A    between atoms: O_16  and  C_17
REMARK    9  A    between atoms: N_25  and  C_26
REMARK                            x       y       z     vdW  Elec       q    Type
REMARK                         _______ _______ _______ _____ _____    ______ ____
ROOT
ATOM      1  C   UNL     1       1.962   7.970  19.909  0.00  0.00    +0.000 C 
ENDROOT
BRANCH   1   3
ATOM      2  N   UNL     1       3.675   6.567  18.810  0.00  0.00    +0.000 N 
ATOM      3  C   UNL     1       2.522   7.298  18.626  0.00  0.00    +0.000 C 
ATOM      4  O   UNL     1       1.915   7.387  17.557  0.00  0.00    +0.000 OA
ATOM      5  H   UNL     1       3.932   6.354  19.767  0.00  0.00    +0.000 HD
BRANCH   2  10
ATOM      6  C   UNL     1       6.764   4.390  14.676  0.00  0.00    +0.000 C 
ATOM      7  C   UNL     1       5.920   4.974  15.764  0.00  0.00    +0.000 A 
ATOM      8  C   UNL     1       5.182   4.160  16.610  0.00  0.00    +0.000 A 
ATOM      9  N   UNL     1       4.425   4.648  17.618  0.00  0.00    +0.000 NA
ATOM     10  C   UNL     1       4.420   5.982  17.782  0.00  0.00    +0.000 A 
ATOM     11  C   UNL     1       5.141   6.799  16.916  0.00  0.00    +0.000 A 
ATOM     12  N   UNL     1       5.906   6.323  15.899  0.00  0.00    +0.000 NA
ENDBRANCH   2  10
ENDBRANCH   1   3
BRANCH   1  13
ATOM     13  C   UNL     1       1.149   6.867  20.611  0.00  0.00    +0.000 C 
BRANCH  13  14
ATOM     14  O   UNL     1       1.884   5.649  20.763  0.00  0.00    +0.000 OA
BRANCH  14  15
ATOM     15  C   UNL     1       1.098   4.461  20.504  0.00  0.00    +0.000 C 
ATOM     16  C   UNL     1       1.336   3.767  19.145  0.00  0.00    +0.000 C 
ATOM     17  C   UNL     1       1.162   2.422  19.878  0.00  0.00    +0.000 C 
ATOM     18  C   UNL     1       1.591   3.148  21.164  0.00  0.00    +0.000 C 
ENDBRANCH  14  15
ENDBRANCH  13  14
ENDBRANCH   1  13
BRANCH   1  19
ATOM     19  O   UNL     1       1.107   9.101  19.691  0.00  0.00    +0.000 OA
BRANCH  19  20
ATOM     20  C   UNL     1       0.527   9.590  20.845  0.00  0.00    +0.000 A 
ATOM     21  N   UNL     1       0.855   9.020  22.031  0.00  0.00    +0.000 NA
ATOM     22  C   UNL     1       0.328   9.545  23.153  0.00  0.00    +0.000 A 
ATOM     23  N   UNL     1      -0.428  10.642  23.262  0.00  0.00    +0.000 NA
ATOM     24  C   UNL     1      -0.688  11.210  22.065  0.00  0.00    +0.000 A 
ATOM     25  C   UNL     1      -0.268  10.730  20.835  0.00  0.00    +0.000 A 
ATOM     26  C   UNL     1      -0.822  11.617  19.902  0.00  0.00    +0.000 A 
ATOM     27  N   UNL     1      -1.548  12.583  20.471  0.00  0.00    +0.000 NA
ATOM     28  N   UNL     1      -1.456  12.344  21.809  0.00  0.00    +0.000 N 
BRANCH  28  29
ATOM     29  C   UNL     1      -2.018  13.233  22.767  0.00  0.00    +0.000 A 
ATOM     30  C   UNL     1      -1.150  13.947  23.617  0.00  0.00    +0.000 A 
ATOM     31  C   UNL     1      -1.652  14.852  24.555  0.00  0.00    +0.000 A 
ATOM     32  C   UNL     1      -3.024  15.044  24.668  0.00  0.00    +0.000 A 
ATOM     33  C   UNL     1      -3.893  14.333  23.840  0.00  0.00    +0.000 A 
ATOM     34  C   UNL     1      -3.402  13.432  22.884  0.00  0.00    +0.000 A 
ATOM     35 CL   UNL     1      -4.598  12.523  22.025  0.00  0.00    +0.000 Cl
ENDBRANCH  28  29
ENDBRANCH  19  20
ENDBRANCH   1  19
TORSDOF 8
ENDMDL
MODEL 5
REMARK VINA RESULT:      -7.7      2.538      3.445
REMARK  Name = 
REMARK  9 active torsions:
REMARK  status: ('A' for Active; 'I' for Inactive)
REMARK    1  A    between atoms: C_1  and  C_2
REMARK    2  A    between atoms: C_5  and  N_6
REMARK    3  A    between atoms: C_7  and  C_9
REMARK    4  A    between atoms: C_9  and  C_10
REMARK    5  A    between atoms: C_9  and  O_16
REMARK    6  A    between atoms: C_10  and  O_11
REMARK    7  A    between atoms: O_11  and  C_12
REMARK    8  A    between atoms: O_16  and  C_17
REMARK    9  A    between atoms: N_25  and  C_26
REMARK                            x       y       z     vdW  Elec       q    Type
REMARK                         _______ _______ _______ _____ _____    ______ ____
ROOT
ATOM      1  C   UNL     1       4.300   5.625  19.009  0.00  0.00    +0.000 C 
ENDROOT
BRANCH   1   3
ATOM      2  N   UNL     1       4.854   5.469  16.606  0.00  0.00    +0.000 N 
ATOM      3  C   UNL     1       5.321   5.289  17.889  0.00  0.00    +0.000 C 
ATOM      4  O   UNL     1       6.471   4.949  18.173  0.00  0.00    +0.000 OA
ATOM      5  H   UNL     1       3.994   5.995  16.503  0.00  0.00    +0.000 HD
BRANCH   2  10
ATOM      6  C   UNL     1       7.482   3.977  11.891  0.00  0.00    +0.000 C 
ATOM      7  C   UNL     1       6.791   4.355  13.161  0.00  0.00    +0.000 A 
ATOM      8  C   UNL     1       7.346   5.289  14.024  0.00  0.00    +0.000 A 
ATOM      9  N   UNL     1       6.743   5.673  15.171  0.00  0.00    +0.000 NA
ATOM     10  C   UNL     1       5.552   5.115  15.447  0.00  0.00    +0.000 A 
ATOM     11  C   UNL     1       5.009   4.160  14.593  0.00  0.00    +0.000 A 
ATOM     12  N   UNL     1       5.604   3.763  13.437  0.00  0.00    +0.000 NA
ENDBRANCH   2  10
ENDBRANCH   1   3
BRANCH   1  13
ATOM     13  C   UNL     1       4.379   4.438  19.987  0.00  0.00    +0.000 C 
BRANCH  13  14
ATOM     14  O   UNL     1       3.976   3.202  19.389  0.00  0.00    +0.000 OA
BRANCH  14  15
ATOM     15  C   UNL     1       2.888   2.549  20.086  0.00  0.00    +0.000 C 
ATOM     16  C   UNL     1       2.546   3.101  21.487  0.00  0.00    +0.000 C 
ATOM     17  C   UNL     1       1.062   2.846  21.151  0.00  0.00    +0.000 C 
ATOM     18  C   UNL     1       1.453   2.958  19.667  0.00  0.00    +0.000 C 
ENDBRANCH  14  15
ENDBRANCH  13  14
ENDBRANCH   1  13
BRANCH   1  19
ATOM     19  O   UNL     1       2.939   5.775  18.582  0.00  0.00    +0.000 OA
BRANCH  19  20
ATOM     20  C   UNL     1       2.250   6.764  19.256  0.00  0.00    +0.000 A 
ATOM     21  N   UNL     1       1.863   6.532  20.535  0.00  0.00    +0.000 NA
ATOM     22  C   UNL     1       1.245   7.525  21.199  0.00  0.00    +0.000 A 
ATOM     23  N   UNL     1       1.036   8.778  20.782  0.00  0.00    +0.000 NA
ATOM     24  C   UNL     1       1.482   8.984  19.524  0.00  0.00    +0.000 A 
ATOM     25  C   UNL     1       2.070   8.029  18.709  0.00  0.00    +0.000 A 
ATOM     26  C   UNL     1       2.311   8.696  17.501  0.00  0.00    +0.000 A 
ATOM     27  N   UNL     1       1.908   9.969  17.521  0.00  0.00    +0.000 NA
ATOM     28  N   UNL     1       1.409  10.156  18.775  0.00  0.00    +0.000 N 
BRANCH  28  29
ATOM     29  C   UNL     1       0.972  11.433  19.223  0.00  0.00    +0.000 A 
ATOM     30  C   UNL     1       1.934  12.351  19.690  0.00  0.00    +0.000 A 
ATOM     31  C   UNL     1       1.558  13.628  20.114  0.00  0.00    +0.000 A 
ATOM     32  C   UNL     1       0.219  13.999  20.093  0.00  0.00    +0.000 A 
ATOM     33  C   UNL     1      -0.744  13.094  19.644  0.00  0.00    +0.000 A 
ATOM     34  C   UNL     1      -0.379  11.814  19.202  0.00  0.00    +0.000 A 
ATOM     35 CL   UNL     1      -1.688  10.755  18.805  0.00  0.00    +0.000 Cl
ENDBRANCH  28  29
ENDBRANCH  19  20
ENDBRANCH   1  19
TORSDOF 8
ENDMDL
MODEL 6
REMARK VINA RESULT:      -7.7      1.810      2.249
REMARK  Name = 
REMARK  9 active torsions:
REMARK  status: ('A' for Active; 'I' for Inactive)
REMARK    1  A    between atoms: C_1  and  C_2
REMARK    2  A    between atoms: C_5  and  N_6
REMARK    3  A    between atoms: C_7  and  C_9
REMARK    4  A    between atoms: C_9  and  C_10
REMARK    5  A    between atoms: C_9  and  O_16
REMARK    6  A    between atoms: C_10  and  O_11
REMARK    7  A    between atoms: O_11  and  C_12
REMARK    8  A    between atoms: O_16  and  C_17
REMARK    9  A    between atoms: N_25  and  C_26
REMARK                            x       y       z     vdW  Elec       q    Type
REMARK                         _______ _______ _______ _____ _____    ______ ____
ROOT
ATOM      1  C   UNL     1       2.459   6.197  20.101  0.00  0.00    +0.000 C 
ENDROOT
BRANCH   1   3
ATOM      2  N   UNL     1       3.465   5.922  17.860  0.00  0.00    +0.000 N 
ATOM      3  C   UNL     1       3.690   5.859  19.218  0.00  0.00    +0.000 C 
ATOM      4  O   UNL     1       4.783   5.618  19.734  0.00  0.00    +0.000 OA
ATOM      5  H   UNL     1       2.612   6.379  17.560  0.00  0.00    +0.000 HD
BRANCH   2  10
ATOM      6  C   UNL     1       7.238   4.575  13.946  0.00  0.00    +0.000 C 
ATOM      7  C   UNL     1       6.213   4.936  14.973  0.00  0.00    +0.000 A 
ATOM      8  C   UNL     1       5.542   3.954  15.687  0.00  0.00    +0.000 A 
ATOM      9  N   UNL     1       4.624   4.239  16.638  0.00  0.00    +0.000 NA
ATOM     10  C   UNL     1       4.388   5.540  16.881  0.00  0.00    +0.000 A 
ATOM     11  C   UNL     1       5.045   6.524  16.147  0.00  0.00    +0.000 A 
ATOM     12  N   UNL     1       5.968   6.251  15.188  0.00  0.00    +0.000 NA
ENDBRANCH   2  10
ENDBRANCH   1   3
BRANCH   1  13
ATOM     13  C   UNL     1       1.760   4.846  20.341  0.00  0.00    +0.000 C 
BRANCH  13  14
ATOM     14  O   UNL     1       2.595   3.905  21.025  0.00  0.00    +0.000 OA
BRANCH  14  15
ATOM     15  C   UNL     1       2.681   2.620  20.365  0.00  0.00    +0.000 C 
ATOM     16  C   UNL     1       2.088   2.541  18.942  0.00  0.00    +0.000 C 
ATOM     17  C   UNL     1       3.258   1.604  18.579  0.00  0.00    +0.000 C 
ATOM     18  C   UNL     1       4.046   2.262  19.725  0.00  0.00    +0.000 C 
ENDBRANCH  14  15
ENDBRANCH  13  14
ENDBRANCH   1  13
BRANCH   1  19
ATOM     19  O   UNL     1       1.512   7.105  19.522  0.00  0.00    +0.000 OA
BRANCH  19  20
ATOM     20  C   UNL     1       1.256   8.214  20.303  0.00  0.00    +0.000 A 
ATOM     21  N   UNL     1       1.493   8.142  21.636  0.00  0.00    +0.000 NA
ATOM     22  C   UNL     1       1.294   9.248  22.376  0.00  0.00    +0.000 A 
ATOM     23  N   UNL     1       0.971  10.470  21.942  0.00  0.00    +0.000 NA
ATOM     24  C   UNL     1       0.796  10.514  20.604  0.00  0.00    +0.000 A 
ATOM     25  C   UNL     1       0.898   9.435  19.740  0.00  0.00    +0.000 A 
ATOM     26  C   UNL     1       0.584   9.960  18.480  0.00  0.00    +0.000 A 
ATOM     27  N   UNL     1       0.291  11.262  18.518  0.00  0.00    +0.000 NA
ATOM     28  N   UNL     1       0.436  11.612  19.827  0.00  0.00    +0.000 N 
BRANCH  28  29
ATOM     29  C   UNL     1       0.311  12.963  20.258  0.00  0.00    +0.000 A 
ATOM     30  C   UNL     1       1.480  13.737  20.403  0.00  0.00    +0.000 A 
ATOM     31  C   UNL     1       1.407  15.075  20.796  0.00  0.00    +0.000 A 
ATOM     32  C   UNL     1       0.172  15.653  21.063  0.00  0.00    +0.000 A 
ATOM     33  C   UNL     1      -0.991  14.893  20.935  0.00  0.00    +0.000 A 
ATOM     34  C   UNL     1      -0.934  13.552  20.527  0.00  0.00    +0.000 A 
ATOM     35 CL   UNL     1      -2.438  12.697  20.543  0.00  0.00    +0.000 Cl
ENDBRANCH  28  29
ENDBRANCH  19  20
ENDBRANCH   1  19
TORSDOF 8
ENDMDL
MODEL 7
REMARK VINA RESULT:      -7.7      1.938      2.565
REMARK  Name = 
REMARK  9 active torsions:
REMARK  status: ('A' for Active; 'I' for Inactive)
REMARK    1  A    between atoms: C_1  and  C_2
REMARK    2  A    between atoms: C_5  and  N_6
REMARK    3  A    between atoms: C_7  and  C_9
REMARK    4  A    between atoms: C_9  and  C_10
REMARK    5  A    between atoms: C_9  and  O_16
REMARK    6  A    between atoms: C_10  and  O_11
REMARK    7  A    between atoms: O_11  and  C_12
REMARK    8  A    between atoms: O_16  and  C_17
REMARK    9  A    between atoms: N_25  and  C_26
REMARK                            x       y       z     vdW  Elec       q    Type
REMARK                         _______ _______ _______ _____ _____    ______ ____
ROOT
ATOM      1  C   UNL     1       2.485   6.394  20.056  0.00  0.00    +0.000 C 
ENDROOT
BRANCH   1   3
ATOM      2  N   UNL     1       4.202   5.678  18.429  0.00  0.00    +0.000 N 
ATOM      3  C   UNL     1       2.853   5.841  18.653  0.00  0.00    +0.000 C 
ATOM      4  O   UNL     1       1.969   5.528  17.853  0.00  0.00    +0.000 OA
ATOM      5  H   UNL     1       4.807   5.721  19.241  0.00  0.00    +0.000 HD
BRANCH   2  10
ATOM      6  C   UNL     1       6.424   4.030  13.559  0.00  0.00    +0.000 C 
ATOM      7  C   UNL     1       5.854   4.473  14.869  0.00  0.00    +0.000 A 
ATOM      8  C   UNL     1       5.504   5.798  15.083  0.00  0.00    +0.000 A 
ATOM      9  N   UNL     1       4.967   6.234  16.244  0.00  0.00    +0.000 NA
ATOM     10  C   UNL     1       4.768   5.313  17.203  0.00  0.00    +0.000 A 
ATOM     11  C   UNL     1       5.143   3.989  16.996  0.00  0.00    +0.000 A 
ATOM     12  N   UNL     1       5.684   3.537  15.834  0.00  0.00    +0.000 NA
ENDBRANCH   2  10
ENDBRANCH   1   3
BRANCH   1  13
ATOM     13  C   UNL     1       2.365   5.150  20.954  0.00  0.00    +0.000 C 
BRANCH  13  14
ATOM     14  O   UNL     1       1.118   4.466  20.789  0.00  0.00    +0.000 OA
BRANCH  14  15
ATOM     15  C   UNL     1       1.265   3.065  20.459  0.00  0.00    +0.000 C 
ATOM     16  C   UNL     1       0.776   2.638  19.058  0.00  0.00    +0.000 C 
ATOM     17  C   UNL     1       1.978   1.674  19.005  0.00  0.00    +0.000 C 
ATOM     18  C   UNL     1       2.676   2.603  20.014  0.00  0.00    +0.000 C 
ENDBRANCH  14  15
ENDBRANCH  13  14
ENDBRANCH   1  13
BRANCH   1  19
ATOM     19  O   UNL     1       1.255   7.130  20.128  0.00  0.00    +0.000 OA
BRANCH  19  20
ATOM     20  C   UNL     1       1.376   8.455  19.758  0.00  0.00    +0.000 A 
ATOM     21  N   UNL     1       1.818   8.744  18.509  0.00  0.00    +0.000 NA
ATOM     22  C   UNL     1       1.876  10.038  18.142  0.00  0.00    +0.000 A 
ATOM     23  N   UNL     1       1.456  11.101  18.836  0.00  0.00    +0.000 NA
ATOM     24  C   UNL     1       0.974  10.766  20.052  0.00  0.00    +0.000 A 
ATOM     25  C   UNL     1       0.927   9.484  20.577  0.00  0.00    +0.000 A 
ATOM     26  C   UNL     1       0.401   9.649  21.865  0.00  0.00    +0.000 A 
ATOM     27  N   UNL     1       0.140  10.925  22.159  0.00  0.00    +0.000 NA
ATOM     28  N   UNL     1       0.478  11.618  21.035  0.00  0.00    +0.000 N 
BRANCH  28  29
ATOM     29  C   UNL     1       0.240  13.016  20.918  0.00  0.00    +0.000 A 
ATOM     30  C   UNL     1       1.232  13.909  21.370  0.00  0.00    +0.000 A 
ATOM     31  C   UNL     1       1.057  15.290  21.253  0.00  0.00    +0.000 A 
ATOM     32  C   UNL     1      -0.112  15.796  20.698  0.00  0.00    +0.000 A 
ATOM     33  C   UNL     1      -1.105  14.921  20.257  0.00  0.00    +0.000 A 
ATOM     34  C   UNL     1      -0.937  13.532  20.357  0.00  0.00    +0.000 A 
ATOM     35 CL   UNL     1      -2.305  12.575  19.899  0.00  0.00    +0.000 Cl
ENDBRANCH  28  29
ENDBRANCH  19  20
ENDBRANCH   1  19
TORSDOF 8
ENDMDL
MODEL 8
REMARK VINA RESULT:      -7.6      2.275      3.371
REMARK  Name = 
REMARK  9 active torsions:
REMARK  status: ('A' for Active; 'I' for Inactive)
REMARK    1  A    between atoms: C_1  and  C_2
REMARK    2  A    between atoms: C_5  and  N_6
REMARK    3  A    between atoms: C_7  and  C_9
REMARK    4  A    between atoms: C_9  and  C_10
REMARK    5  A    between atoms: C_9  and  O_16
REMARK    6  A    between atoms: C_10  and  O_11
REMARK    7  A    between atoms: O_11  and  C_12
REMARK    8  A    between atoms: O_16  and  C_17
REMARK    9  A    between atoms: N_25  and  C_26
REMARK                            x       y       z     vdW  Elec       q    Type
REMARK                         _______ _______ _______ _____ _____    ______ ____
ROOT
ATOM      1  C   UNL     1       4.173   5.253  19.470  0.00  0.00    +0.000 C 
ENDROOT
BRANCH   1   3
ATOM      2  N   UNL     1       4.738   4.835  17.100  0.00  0.00    +0.000 N 
ATOM      3  C   UNL     1       5.096   5.507  18.248  0.00  0.00    +0.000 C 
ATOM      4  O   UNL     1       6.032   6.306  18.327  0.00  0.00    +0.000 OA
ATOM      5  H   UNL     1       3.813   4.421  17.085  0.00  0.00    +0.000 HD
BRANCH   2  10
ATOM      6  C   UNL     1       7.906   4.805  12.482  0.00  0.00    +0.000 C 
ATOM      7  C   UNL     1       7.050   4.836  13.708  0.00  0.00    +0.000 A 
ATOM      8  C   UNL     1       5.812   4.213  13.729  0.00  0.00    +0.000 A 
ATOM      9  N   UNL     1       5.018   4.199  14.824  0.00  0.00    +0.000 NA
ATOM     10  C   UNL     1       5.489   4.817  15.921  0.00  0.00    +0.000 A 
ATOM     11  C   UNL     1       6.721   5.463  15.890  0.00  0.00    +0.000 A 
ATOM     12  N   UNL     1       7.528   5.485  14.797  0.00  0.00    +0.000 NA
ENDBRANCH   2  10
ENDBRANCH   1   3
BRANCH   1  13
ATOM     13  C   UNL     1       4.302   3.746  19.758  0.00  0.00    +0.000 C 
BRANCH  13  14
ATOM     14  O   UNL     1       3.265   2.975  19.143  0.00  0.00    +0.000 OA
BRANCH  14  15
ATOM     15  C   UNL     1       2.374   2.341  20.091  0.00  0.00    +0.000 C 
ATOM     16  C   UNL     1       2.638   2.641  21.583  0.00  0.00    +0.000 C 
ATOM     17  C   UNL     1       1.109   2.651  21.782  0.00  0.00    +0.000 C 
ATOM     18  C   UNL     1       0.989   3.007  20.290  0.00  0.00    +0.000 C 
ENDBRANCH  14  15
ENDBRANCH  13  14
ENDBRANCH   1  13
BRANCH   1  19
ATOM     19  O   UNL     1       2.787   5.564  19.274  0.00  0.00    +0.000 OA
BRANCH  19  20
ATOM     20  C   UNL     1       2.551   6.891  18.976  0.00  0.00    +0.000 A 
ATOM     21  N   UNL     1       2.896   7.355  17.749  0.00  0.00    +0.000 NA
ATOM     22  C   UNL     1       2.607   8.635  17.452  0.00  0.00    +0.000 A 
ATOM     23  N   UNL     1       1.922   9.510  18.196  0.00  0.00    +0.000 NA
ATOM     24  C   UNL     1       1.550   8.994  19.387  0.00  0.00    +0.000 A 
ATOM     25  C   UNL     1       1.846   7.719  19.843  0.00  0.00    +0.000 A 
ATOM     26  C   UNL     1       1.300   7.669  21.132  0.00  0.00    +0.000 A 
ATOM     27  N   UNL     1       0.709   8.812  21.490  0.00  0.00    +0.000 NA
ATOM     28  N   UNL     1       0.848   9.629  20.408  0.00  0.00    +0.000 N 
BRANCH  28  29
ATOM     29  C   UNL     1       0.247  10.918  20.363  0.00  0.00    +0.000 A 
ATOM     30  C   UNL     1       0.759  11.931  21.198  0.00  0.00    +0.000 A 
ATOM     31  C   UNL     1       0.221  13.220  21.170  0.00  0.00    +0.000 A 
ATOM     32  C   UNL     1      -0.841  13.510  20.322  0.00  0.00    +0.000 A 
ATOM     33  C   UNL     1      -1.363  12.511  19.500  0.00  0.00    +0.000 A 
ATOM     34  C   UNL     1      -0.824  11.216  19.508  0.00  0.00    +0.000 A 
ATOM     35 CL   UNL     1      -1.658  10.049  18.540  0.00  0.00    +0.000 Cl
ENDBRANCH  28  29
ENDBRANCH  19  20
ENDBRANCH   1  19
TORSDOF 8
ENDMDL
MODEL 9
REMARK VINA RESULT:      -7.6      1.937      2.316
REMARK  Name = 
REMARK  9 active torsions:
REMARK  status: ('A' for Active; 'I' for Inactive)
REMARK    1  A    between atoms: C_1  and  C_2
REMARK    2  A    between atoms: C_5  and  N_6
REMARK    3  A    between atoms: C_7  and  C_9
REMARK    4  A    between atoms: C_9  and  C_10
REMARK    5  A    between atoms: C_9  and  O_16
REMARK    6  A    between atoms: C_10  and  O_11
REMARK    7  A    between atoms: O_11  and  C_12
REMARK    8  A    between atoms: O_16  and  C_17
REMARK    9  A    between atoms: N_25  and  C_26
REMARK                            x       y       z     vdW  Elec       q    Type
REMARK                         _______ _______ _______ _____ _____    ______ ____
ROOT
ATOM      1  C   UNL     1       2.307   6.475  20.064  0.00  0.00    +0.000 C 
ENDROOT
BRANCH   1   3
ATOM      2  N   UNL     1       4.199   5.868  18.594  0.00  0.00    +0.000 N 
ATOM      3  C   UNL     1       2.829   5.963  18.695  0.00  0.00    +0.000 C 
ATOM      4  O   UNL     1       2.038   5.622  17.813  0.00  0.00    +0.000 OA
ATOM      5  H   UNL     1       4.724   5.925  19.459  0.00  0.00    +0.000 HD
BRANCH   2  10
ATOM      6  C   UNL     1       7.007   4.789  13.870  0.00  0.00    +0.000 C 
ATOM      7  C   UNL     1       6.236   5.072  15.119  0.00  0.00    +0.000 A 
ATOM      8  C   UNL     1       6.013   4.079  16.062  0.00  0.00    +0.000 A 
ATOM      9  N   UNL     1       5.340   4.300  17.212  0.00  0.00    +0.000 NA
ATOM     10  C   UNL     1       4.892   5.550  17.422  0.00  0.00    +0.000 A 
ATOM     11  C   UNL     1       5.094   6.540  16.464  0.00  0.00    +0.000 A 
ATOM     12  N   UNL     1       5.769   6.331  15.303  0.00  0.00    +0.000 NA
ENDBRANCH   2  10
ENDBRANCH   1   3
BRANCH   1  13
ATOM     13  C   UNL     1       2.260   5.226  20.963  0.00  0.00    +0.000 C 
BRANCH  13  14
ATOM     14  O   UNL     1       3.029   4.139  20.439  0.00  0.00    +0.000 OA
BRANCH  14  15
ATOM     15  C   UNL     1       2.253   2.939  20.205  0.00  0.00    +0.000 C 
ATOM     16  C   UNL     1       0.747   3.143  19.930  0.00  0.00    +0.000 C 
ATOM     17  C   UNL     1       0.846   1.989  18.912  0.00  0.00    +0.000 C 
ATOM     18  C   UNL     1       2.343   2.323  18.786  0.00  0.00    +0.000 C 
ENDBRANCH  14  15
ENDBRANCH  13  14
ENDBRANCH   1  13
BRANCH   1  19
ATOM     19  O   UNL     1       1.004   7.074  20.045  0.00  0.00    +0.000 OA
BRANCH  19  20
ATOM     20  C   UNL     1       0.961   8.333  20.612  0.00  0.00    +0.000 A 
ATOM     21  N   UNL     1       1.334   8.476  21.908  0.00  0.00    +0.000 NA
ATOM     22  C   UNL     1       1.344   9.716  22.430  0.00  0.00    +0.000 A 
ATOM     23  N   UNL     1       1.115  10.870  21.795  0.00  0.00    +0.000 NA
ATOM     24  C   UNL     1       0.799  10.688  20.494  0.00  0.00    +0.000 A 
ATOM     25  C   UNL     1       0.683   9.465  19.854  0.00  0.00    +0.000 A 
ATOM     26  C   UNL     1       0.293   9.785  18.547  0.00  0.00    +0.000 A 
ATOM     27  N   UNL     1       0.155  11.099  18.354  0.00  0.00    +0.000 NA
ATOM     28  N   UNL     1       0.481  11.663  19.551  0.00  0.00    +0.000 N 
BRANCH  28  29
ATOM     29  C   UNL     1       0.557  13.074  19.717  0.00  0.00    +0.000 A 
ATOM     30  C   UNL     1      -0.487  13.731  20.399  0.00  0.00    +0.000 A 
ATOM     31  C   UNL     1      -0.445  15.111  20.611  0.00  0.00    +0.000 A 
ATOM     32  C   UNL     1       0.629  15.853  20.134  0.00  0.00    +0.000 A 
ATOM     33  C   UNL     1       1.662  15.215  19.447  0.00  0.00    +0.000 A 
ATOM     34  C   UNL     1       1.640  13.828  19.239  0.00  0.00    +0.000 A 
ATOM     35 CL   UNL     1       2.915  13.195  18.256  0.00  0.00    +0.000 Cl
ENDBRANCH  28  29
ENDBRANCH  19  20
ENDBRANCH   1  19
TORSDOF 8
ENDMDL
