MODEL 1
REMARK VINA RESULT:      -8.2      0.000      0.000
REMARK  Name = 
REMARK  7 active torsions:
REMARK  status: ('A' for Active; 'I' for Inactive)
REMARK    1  A    between atoms: C_1  and  C_2
REMARK    2  A    between atoms: C_2  and  C_3
REMARK    3  A    between atoms: C_2  and  C_4
REMARK    4  A    between atoms: C_9  and  O_10
REMARK    5  A    between atoms: O_10  and  S_11
REMARK    6  A    between atoms: S_11  and  C_14
REMARK    7  A    between atoms: C_17  and  N_18
REMARK                            x       y       z     vdW  Elec       q    Type
REMARK                         _______ _______ _______ _____ _____    ______ ____
ROOT
ATOM      1  S   UNL     1       3.236   5.993  18.458  0.00  0.00    +0.000 S 
ATOM      2  O   UNL     1       2.231   5.129  17.859  0.00  0.00    +0.000 OA
ATOM      3  O   UNL     1       4.091   5.496  19.528  0.00  0.00    +0.000 OA
ENDROOT
BRANCH   1   4
ATOM      4  C   UNL     1       2.326   7.310  19.222  0.00  0.00    +0.000 A 
ATOM      5  C   UNL     1       2.039   8.477  18.534  0.00  0.00    +0.000 A 
ATOM      6  C   UNL     1       1.259   9.452  19.166  0.00  0.00    +0.000 A 
ATOM      7  C   UNL     1       0.785   9.286  20.481  0.00  0.00    +0.000 A 
ATOM      8  C   UNL     1       1.157   8.130  21.180  0.00  0.00    +0.000 A 
ATOM      9  C   UNL     1       1.913   7.138  20.549  0.00  0.00    +0.000 A 
BRANCH   7  10
ATOM     10  N   UNL     1      -0.075  10.246  21.070  0.00  0.00    +0.000 N 
ATOM     11  C   UNL     1      -0.972  11.083  20.310  0.00  0.00    +0.000 C 
ATOM     12  C   UNL     1      -1.365  12.180  21.278  0.00  0.00    +0.000 C 
ATOM     13  C   UNL     1      -1.295  11.508  22.636  0.00  0.00    +0.000 C 
ATOM     14  C   UNL     1      -0.248  10.441  22.447  0.00  0.00    +0.000 C 
ATOM     15  O   UNL     1       0.314   9.883  23.378  0.00  0.00    +0.000 OA
ENDBRANCH   7  10
ENDBRANCH   1   4
BRANCH   1  16
ATOM     16  O   UNL     1       4.163   6.627  17.261  0.00  0.00    +0.000 OA
BRANCH  16  22
ATOM     17  C   UNL     1       6.474   5.893  17.003  0.00  0.00    +0.000 A 
ATOM     18  C   UNL     1       7.400   5.131  16.242  0.00  0.00    +0.000 A 
ATOM     19  C   UNL     1       7.006   4.310  15.188  0.00  0.00    +0.000 A 
ATOM     20  C   UNL     1       5.665   4.196  14.885  0.00  0.00    +0.000 A 
ATOM     21  C   UNL     1       4.731   4.928  15.617  0.00  0.00    +0.000 A 
ATOM     22  C   UNL     1       5.112   5.821  16.640  0.00  0.00    +0.000 A 
BRANCH  17  24
ATOM     23  C   UNL     1       7.930   5.916  19.058  0.00  0.00    +0.000 C 
ATOM     24  C   UNL     1       7.105   6.761  18.087  0.00  0.00    +0.000 C 
ATOM     25  C   UNL     1       7.850   8.012  17.628  0.00  0.00    +0.000 C 
ENDBRANCH  17  24
ENDBRANCH  16  22
ENDBRANCH   1  16
TORSDOF 5
ENDMDL
MODEL 2
REMARK VINA RESULT:      -8.0      1.225      1.435
REMARK  Name = 
REMARK  7 active torsions:
REMARK  status: ('A' for Active; 'I' for Inactive)
REMARK    1  A    between atoms: C_1  and  C_2
REMARK    2  A    between atoms: C_2  and  C_3
REMARK    3  A    between atoms: C_2  and  C_4
REMARK    4  A    between atoms: C_9  and  O_10
REMARK    5  A    between atoms: O_10  and  S_11
REMARK    6  A    between atoms: S_11  and  C_14
REMARK    7  A    between atoms: C_17  and  N_18
REMARK                            x       y       z     vdW  Elec       q    Type
REMARK                         _______ _______ _______ _____ _____    ______ ____
ROOT
ATOM      1  S   UNL     1       3.228   6.215  18.344  0.00  0.00    +0.000 S 
ATOM      2  O   UNL     1       2.250   5.284  17.805  0.00  0.00    +0.000 OA
ATOM      3  O   UNL     1       4.019   5.858  19.514  0.00  0.00    +0.000 OA
ENDROOT
BRANCH   1   4
ATOM      4  C   UNL     1       2.289   7.620  18.882  0.00  0.00    +0.000 A 
ATOM      5  C   UNL     1       1.977   8.651  18.011  0.00  0.00    +0.000 A 
ATOM      6  C   UNL     1       1.176   9.700  18.475  0.00  0.00    +0.000 A 
ATOM      7  C   UNL     1       0.705   9.745  19.800  0.00  0.00    +0.000 A 
ATOM      8  C   UNL     1       1.102   8.730  20.680  0.00  0.00    +0.000 A 
ATOM      9  C   UNL     1       1.880   7.663  20.220  0.00  0.00    +0.000 A 
BRANCH   7  10
ATOM     10  N   UNL     1      -0.176  10.771  20.225  0.00  0.00    +0.000 N 
ATOM     11  C   UNL     1       0.113  11.664  21.321  0.00  0.00    +0.000 C 
ATOM     12  C   UNL     1      -1.226  12.289  21.653  0.00  0.00    +0.000 C 
ATOM     13  C   UNL     1      -1.960  12.301  20.325  0.00  0.00    +0.000 C 
ATOM     14  C   UNL     1      -1.374  11.124  19.589  0.00  0.00    +0.000 C 
ATOM     15  O   UNL     1      -1.905  10.614  18.613  0.00  0.00    +0.000 OA
ENDBRANCH   7  10
ENDBRANCH   1   4
BRANCH   1  16
ATOM     16  O   UNL     1       4.225   6.688  17.129  0.00  0.00    +0.000 OA
BRANCH  16  22
ATOM     17  C   UNL     1       6.494   5.799  17.065  0.00  0.00    +0.000 A 
ATOM     18  C   UNL     1       7.411   4.931  16.417  0.00  0.00    +0.000 A 
ATOM     19  C   UNL     1       7.027   4.063  15.397  0.00  0.00    +0.000 A 
ATOM     20  C   UNL     1       5.701   4.009  15.019  0.00  0.00    +0.000 A 
ATOM     21  C   UNL     1       4.775   4.847  15.640  0.00  0.00    +0.000 A 
ATOM     22  C   UNL     1       5.153   5.785  16.623  0.00  0.00    +0.000 A 
BRANCH  17  24
ATOM     23  C   UNL     1       7.972   5.894  19.103  0.00  0.00    +0.000 C 
ATOM     24  C   UNL     1       7.116   6.701  18.127  0.00  0.00    +0.000 C 
ATOM     25  C   UNL     1       7.825   7.962  17.637  0.00  0.00    +0.000 C 
ENDBRANCH  17  24
ENDBRANCH  16  22
ENDBRANCH   1  16
TORSDOF 5
ENDMDL
MODEL 3
REMARK VINA RESULT:      -7.9      0.527      1.100
REMARK  Name = 
REMARK  7 active torsions:
REMARK  status: ('A' for Active; 'I' for Inactive)
REMARK    1  A    between atoms: C_1  and  C_2
REMARK    2  A    between atoms: C_2  and  C_3
REMARK    3  A    between atoms: C_2  and  C_4
REMARK    4  A    between atoms: C_9  and  O_10
REMARK    5  A    between atoms: O_10  and  S_11
REMARK    6  A    between atoms: S_11  and  C_14
REMARK    7  A    between atoms: C_17  and  N_18
REMARK                            x       y       z     vdW  Elec       q    Type
REMARK                         _______ _______ _______ _____ _____    ______ ____
ROOT
ATOM      1  S   UNL     1       3.248   5.978  18.396  0.00  0.00    +0.000 S 
ATOM      2  O   UNL     1       2.262   5.108  17.775  0.00  0.00    +0.000 OA
ATOM      3  O   UNL     1       4.111   5.477  19.457  0.00  0.00    +0.000 OA
ENDROOT
BRANCH   1   4
ATOM      4  C   UNL     1       2.309   7.259  19.186  0.00  0.00    +0.000 A 
ATOM      5  C   UNL     1       1.907   7.143  20.507  0.00  0.00    +0.000 A 
ATOM      6  C   UNL     1       1.229   8.216  21.097  0.00  0.00    +0.000 A 
ATOM      7  C   UNL     1       0.927   9.388  20.379  0.00  0.00    +0.000 A 
ATOM      8  C   UNL     1       1.275   9.445  19.024  0.00  0.00    +0.000 A 
ATOM      9  C   UNL     1       1.977   8.390  18.432  0.00  0.00    +0.000 A 
BRANCH   7  10
ATOM     10  N   UNL     1       0.316  10.495  21.019  0.00  0.00    +0.000 N 
ATOM     11  C   UNL     1       0.352  11.838  20.493  0.00  0.00    +0.000 C 
ATOM     12  C   UNL     1      -0.056  12.707  21.663  0.00  0.00    +0.000 C 
ATOM     13  C   UNL     1      -0.980  11.816  22.472  0.00  0.00    +0.000 C 
ATOM     14  C   UNL     1      -0.480  10.426  22.171  0.00  0.00    +0.000 C 
ATOM     15  O   UNL     1      -0.759   9.453  22.855  0.00  0.00    +0.000 OA
ENDBRANCH   7  10
ENDBRANCH   1   4
BRANCH   1  16
ATOM     16  O   UNL     1       4.164   6.657  17.215  0.00  0.00    +0.000 OA
BRANCH  16  22
ATOM     17  C   UNL     1       6.487   5.972  16.934  0.00  0.00    +0.000 A 
ATOM     18  C   UNL     1       7.424   5.244  16.154  0.00  0.00    +0.000 A 
ATOM     19  C   UNL     1       7.041   4.439  15.084  0.00  0.00    +0.000 A 
ATOM     20  C   UNL     1       5.701   4.307  14.782  0.00  0.00    +0.000 A 
ATOM     21  C   UNL     1       4.756   5.006  15.533  0.00  0.00    +0.000 A 
ATOM     22  C   UNL     1       5.125   5.883  16.574  0.00  0.00    +0.000 A 
BRANCH  17  24
ATOM     23  C   UNL     1       7.901   5.968  19.019  0.00  0.00    +0.000 C 
ATOM     24  C   UNL     1       7.106   6.827  18.035  0.00  0.00    +0.000 C 
ATOM     25  C   UNL     1       7.875   8.071  17.597  0.00  0.00    +0.000 C 
ENDBRANCH  17  24
ENDBRANCH  16  22
ENDBRANCH   1  16
TORSDOF 5
ENDMDL
MODEL 4
REMARK VINA RESULT:      -7.9      1.720      2.403
REMARK  Name = 
REMARK  7 active torsions:
REMARK  status: ('A' for Active; 'I' for Inactive)
REMARK    1  A    between atoms: C_1  and  C_2
REMARK    2  A    between atoms: C_2  and  C_3
REMARK    3  A    between atoms: C_2  and  C_4
REMARK    4  A    between atoms: C_9  and  O_10
REMARK    5  A    between atoms: O_10  and  S_11
REMARK    6  A    between atoms: S_11  and  C_14
REMARK    7  A    between atoms: C_17  and  N_18
REMARK                            x       y       z     vdW  Elec       q    Type
REMARK                         _______ _______ _______ _____ _____    ______ ____
ROOT
ATOM      1  S   UNL     1       3.653   3.735  18.392  0.00  0.00    +0.000 S 
ATOM      2  O   UNL     1       3.151   3.606  17.034  0.00  0.00    +0.000 OA
ATOM      3  O   UNL     1       3.379   2.702  19.381  0.00  0.00    +0.000 OA
ENDROOT
BRANCH   1   4
ATOM      4  C   UNL     1       2.851   5.173  19.053  0.00  0.00    +0.000 A 
ATOM      5  C   UNL     1       2.086   5.102  20.206  0.00  0.00    +0.000 A 
ATOM      6  C   UNL     1       1.535   6.282  20.718  0.00  0.00    +0.000 A 
ATOM      7  C   UNL     1       1.717   7.524  20.080  0.00  0.00    +0.000 A 
ATOM      8  C   UNL     1       2.427   7.552  18.872  0.00  0.00    +0.000 A 
ATOM      9  C   UNL     1       3.005   6.384  18.367  0.00  0.00    +0.000 A 
BRANCH   7  10
ATOM     10  N   UNL     1       1.223   8.718  20.660  0.00  0.00    +0.000 N 
ATOM     11  C   UNL     1       1.296   9.006  22.073  0.00  0.00    +0.000 C 
ATOM     12  C   UNL     1       0.322  10.149  22.269  0.00  0.00    +0.000 C 
ATOM     13  C   UNL     1       0.357  10.887  20.944  0.00  0.00    +0.000 C 
ATOM     14  C   UNL     1       0.701   9.808  19.950  0.00  0.00    +0.000 C 
ATOM     15  O   UNL     1       0.530   9.929  18.746  0.00  0.00    +0.000 OA
ENDBRANCH   7  10
ENDBRANCH   1   4
BRANCH   1  16
ATOM     16  O   UNL     1       5.267   4.023  18.328  0.00  0.00    +0.000 OA
BRANCH  16  22
ATOM     17  C   UNL     1       6.666   5.471  16.952  0.00  0.00    +0.000 A 
ATOM     18  C   UNL     1       7.128   5.783  15.647  0.00  0.00    +0.000 A 
ATOM     19  C   UNL     1       6.831   4.992  14.539  0.00  0.00    +0.000 A 
ATOM     20  C   UNL     1       6.092   3.839  14.709  0.00  0.00    +0.000 A 
ATOM     21  C   UNL     1       5.627   3.504  15.981  0.00  0.00    +0.000 A 
ATOM     22  C   UNL     1       5.853   4.326  17.104  0.00  0.00    +0.000 A 
BRANCH  17  24
ATOM     23  C   UNL     1       7.925   5.830  19.104  0.00  0.00    +0.000 C 
ATOM     24  C   UNL     1       7.061   6.482  18.024  0.00  0.00    +0.000 C 
ATOM     25  C   UNL     1       7.637   7.812  17.545  0.00  0.00    +0.000 C 
ENDBRANCH  17  24
ENDBRANCH  16  22
ENDBRANCH   1  16
TORSDOF 5
ENDMDL
MODEL 5
REMARK VINA RESULT:      -7.8      1.818      2.273
REMARK  Name = 
REMARK  7 active torsions:
REMARK  status: ('A' for Active; 'I' for Inactive)
REMARK    1  A    between atoms: C_1  and  C_2
REMARK    2  A    between atoms: C_2  and  C_3
REMARK    3  A    between atoms: C_2  and  C_4
REMARK    4  A    between atoms: C_9  and  O_10
REMARK    5  A    between atoms: O_10  and  S_11
REMARK    6  A    between atoms: S_11  and  C_14
REMARK    7  A    between atoms: C_17  and  N_18
REMARK                            x       y       z     vdW  Elec       q    Type
REMARK                         _______ _______ _______ _____ _____    ______ ____
ROOT
ATOM      1  S   UNL     1       3.739   3.732  18.441  0.00  0.00    +0.000 S 
ATOM      2  O   UNL     1       3.176   3.496  17.121  0.00  0.00    +0.000 OA
ATOM      3  O   UNL     1       3.433   2.832  19.544  0.00  0.00    +0.000 OA
ENDROOT
BRANCH   1   4
ATOM      4  C   UNL     1       3.065   5.287  18.966  0.00  0.00    +0.000 A 
ATOM      5  C   UNL     1       3.218   6.431  18.200  0.00  0.00    +0.000 A 
ATOM      6  C   UNL     1       2.606   7.613  18.631  0.00  0.00    +0.000 A 
ATOM      7  C   UNL     1       1.866   7.671  19.827  0.00  0.00    +0.000 A 
ATOM      8  C   UNL     1       1.795   6.519  20.621  0.00  0.00    +0.000 A 
ATOM      9  C   UNL     1       2.380   5.327  20.186  0.00  0.00    +0.000 A 
BRANCH   7  10
ATOM     10  N   UNL     1       1.183   8.855  20.202  0.00  0.00    +0.000 N 
ATOM     11  C   UNL     1       1.088   9.322  21.564  0.00  0.00    +0.000 C 
ATOM     12  C   UNL     1      -0.027  10.346  21.529  0.00  0.00    +0.000 C 
ATOM     13  C   UNL     1       0.046  10.913  20.124  0.00  0.00    +0.000 C 
ATOM     14  C   UNL     1       0.606   9.773  19.313  0.00  0.00    +0.000 C 
ATOM     15  O   UNL     1       0.536   9.722  18.094  0.00  0.00    +0.000 OA
ENDBRANCH   7  10
ENDBRANCH   1   4
BRANCH   1  16
ATOM     16  O   UNL     1       5.366   3.893  18.295  0.00  0.00    +0.000 OA
BRANCH  16  22
ATOM     17  C   UNL     1       6.666   5.438  16.928  0.00  0.00    +0.000 A 
ATOM     18  C   UNL     1       7.076   5.809  15.621  0.00  0.00    +0.000 A 
ATOM     19  C   UNL     1       6.777   5.044  14.497  0.00  0.00    +0.000 A 
ATOM     20  C   UNL     1       6.088   3.858  14.649  0.00  0.00    +0.000 A 
ATOM     21  C   UNL     1       5.675   3.464  15.922  0.00  0.00    +0.000 A 
ATOM     22  C   UNL     1       5.902   4.258  17.064  0.00  0.00    +0.000 A 
BRANCH  17  24
ATOM     23  C   UNL     1       7.901   5.753  19.100  0.00  0.00    +0.000 C 
ATOM     24  C   UNL     1       7.054   6.428  18.021  0.00  0.00    +0.000 C 
ATOM     25  C   UNL     1       7.644   7.763  17.571  0.00  0.00    +0.000 C 
ENDBRANCH  17  24
ENDBRANCH  16  22
ENDBRANCH   1  16
TORSDOF 5
ENDMDL
MODEL 6
REMARK VINA RESULT:      -7.8      0.949      1.558
REMARK  Name = 
REMARK  7 active torsions:
REMARK  status: ('A' for Active; 'I' for Inactive)
REMARK    1  A    between atoms: C_1  and  C_2
REMARK    2  A    between atoms: C_2  and  C_3
REMARK    3  A    between atoms: C_2  and  C_4
REMARK    4  A    between atoms: C_9  and  O_10
REMARK    5  A    between atoms: O_10  and  S_11
REMARK    6  A    between atoms: S_11  and  C_14
REMARK    7  A    between atoms: C_17  and  N_18
REMARK                            x       y       z     vdW  Elec       q    Type
REMARK                         _______ _______ _______ _____ _____    ______ ____
ROOT
ATOM      1  S   UNL     1       3.393   5.654  18.454  0.00  0.00    +0.000 S 
ATOM      2  O   UNL     1       2.472   4.676  17.898  0.00  0.00    +0.000 OA
ATOM      3  O   UNL     1       4.377   5.256  19.452  0.00  0.00    +0.000 OA
ENDROOT
BRANCH   1   4
ATOM      4  C   UNL     1       2.373   6.824  19.312  0.00  0.00    +0.000 A 
ATOM      5  C   UNL     1       1.792   6.512  20.531  0.00  0.00    +0.000 A 
ATOM      6  C   UNL     1       1.054   7.499  21.193  0.00  0.00    +0.000 A 
ATOM      7  C   UNL     1       0.869   8.782  20.643  0.00  0.00    +0.000 A 
ATOM      8  C   UNL     1       1.401   9.043  19.374  0.00  0.00    +0.000 A 
ATOM      9  C   UNL     1       2.163   8.073  18.716  0.00  0.00    +0.000 A 
BRANCH   7  10
ATOM     10  N   UNL     1       0.192   9.793  21.369  0.00  0.00    +0.000 N 
ATOM     11  C   UNL     1       0.058   9.787  22.807  0.00  0.00    +0.000 C 
ATOM     12  C   UNL     1      -1.039  10.794  23.082  0.00  0.00    +0.000 C 
ATOM     13  C   UNL     1      -0.910  11.790  21.945  0.00  0.00    +0.000 C 
ATOM     14  C   UNL     1      -0.340  10.967  20.818  0.00  0.00    +0.000 C 
ATOM     15  O   UNL     1      -0.370  11.322  19.649  0.00  0.00    +0.000 OA
ENDBRANCH   7  10
ENDBRANCH   1   4
BRANCH   1  16
ATOM     16  O   UNL     1       4.145   6.427  17.217  0.00  0.00    +0.000 OA
BRANCH  16  22
ATOM     17  C   UNL     1       6.504   5.944  16.834  0.00  0.00    +0.000 A 
ATOM     18  C   UNL     1       7.469   5.332  15.992  0.00  0.00    +0.000 A 
ATOM     19  C   UNL     1       7.116   4.552  14.893  0.00  0.00    +0.000 A 
ATOM     20  C   UNL     1       5.781   4.327  14.624  0.00  0.00    +0.000 A 
ATOM     21  C   UNL     1       4.809   4.912  15.436  0.00  0.00    +0.000 A 
ATOM     22  C   UNL     1       5.142   5.764  16.509  0.00  0.00    +0.000 A 
BRANCH  17  24
ATOM     23  C   UNL     1       7.878   5.931  18.945  0.00  0.00    +0.000 C 
ATOM     24  C   UNL     1       7.090   6.793  17.958  0.00  0.00    +0.000 C 
ATOM     25  C   UNL     1       7.849   8.053  17.553  0.00  0.00    +0.000 C 
ENDBRANCH  17  24
ENDBRANCH  16  22
ENDBRANCH   1  16
TORSDOF 5
ENDMDL
MODEL 7
REMARK VINA RESULT:      -7.8      2.922      8.614
REMARK  Name = 
REMARK  7 active torsions:
REMARK  status: ('A' for Active; 'I' for Inactive)
REMARK    1  A    between atoms: C_1  and  C_2
REMARK    2  A    between atoms: C_2  and  C_3
REMARK    3  A    between atoms: C_2  and  C_4
REMARK    4  A    between atoms: C_9  and  O_10
REMARK    5  A    between atoms: O_10  and  S_11
REMARK    6  A    between atoms: S_11  and  C_14
REMARK    7  A    between atoms: C_17  and  N_18
REMARK                            x       y       z     vdW  Elec       q    Type
REMARK                         _______ _______ _______ _____ _____    ______ ____
ROOT
ATOM      1  S   UNL     1       0.461  10.185  20.498  0.00  0.00    +0.000 S 
ATOM      2  O   UNL     1       1.415  10.887  21.342  0.00  0.00    +0.000 OA
ATOM      3  O   UNL     1      -0.749   9.613  21.071  0.00  0.00    +0.000 OA
ENDROOT
BRANCH   1   4
ATOM      4  C   UNL     1       1.339   8.775  19.875  0.00  0.00    +0.000 A 
ATOM      5  C   UNL     1       1.556   7.657  20.665  0.00  0.00    +0.000 A 
ATOM      6  C   UNL     1       2.193   6.549  20.097  0.00  0.00    +0.000 A 
ATOM      7  C   UNL     1       2.637   6.552  18.762  0.00  0.00    +0.000 A 
ATOM      8  C   UNL     1       2.476   7.724  18.011  0.00  0.00    +0.000 A 
ATOM      9  C   UNL     1       1.816   8.827  18.560  0.00  0.00    +0.000 A 
BRANCH   7  10
ATOM     10  N   UNL     1       3.203   5.390  18.181  0.00  0.00    +0.000 N 
ATOM     11  C   UNL     1       4.620   5.114  18.171  0.00  0.00    +0.000 C 
ATOM     12  C   UNL     1       4.778   4.022  17.134  0.00  0.00    +0.000 C 
ATOM     13  C   UNL     1       3.462   3.268  17.197  0.00  0.00    +0.000 C 
ATOM     14  C   UNL     1       2.477   4.319  17.642  0.00  0.00    +0.000 C 
ATOM     15  O   UNL     1       1.267   4.193  17.524  0.00  0.00    +0.000 OA
ENDBRANCH   7  10
ENDBRANCH   1   4
BRANCH   1  16
ATOM     16  O   UNL     1       0.068  11.154  19.233  0.00  0.00    +0.000 OA
BRANCH  16  22
ATOM     17  C   UNL     1      -2.253  11.899  19.181  0.00  0.00    +0.000 A 
ATOM     18  C   UNL     1      -3.559  11.679  18.669  0.00  0.00    +0.000 A 
ATOM     19  C   UNL     1      -3.830  10.717  17.699  0.00  0.00    +0.000 A 
ATOM     20  C   UNL     1      -2.794   9.967  17.182  0.00  0.00    +0.000 A 
ATOM     21  C   UNL     1      -1.499  10.162  17.662  0.00  0.00    +0.000 A 
ATOM     22  C   UNL     1      -1.212  11.078  18.695  0.00  0.00    +0.000 A 
BRANCH  17  24
ATOM     23  C   UNL     1      -1.234  14.103  19.849  0.00  0.00    +0.000 C 
ATOM     24  C   UNL     1      -2.168  12.967  20.266  0.00  0.00    +0.000 C 
ATOM     25  C   UNL     1      -3.487  13.481  20.840  0.00  0.00    +0.000 C 
ENDBRANCH  17  24
ENDBRANCH  16  22
ENDBRANCH   1  16
TORSDOF 5
ENDMDL
MODEL 8
REMARK VINA RESULT:      -7.8      1.078      1.646
REMARK  Name = 
REMARK  7 active torsions:
REMARK  status: ('A' for Active; 'I' for Inactive)
REMARK    1  A    between atoms: C_1  and  C_2
REMARK    2  A    between atoms: C_2  and  C_3
REMARK    3  A    between atoms: C_2  and  C_4
REMARK    4  A    between atoms: C_9  and  O_10
REMARK    5  A    between atoms: O_10  and  S_11
REMARK    6  A    between atoms: S_11  and  C_14
REMARK    7  A    between atoms: C_17  and  N_18
REMARK                            x       y       z     vdW  Elec       q    Type
REMARK                         _______ _______ _______ _____ _____    ______ ____
ROOT
ATOM      1  S   UNL     1       3.545   6.145  18.397  0.00  0.00    +0.000 S 
ATOM      2  O   UNL     1       2.735   5.200  17.645  0.00  0.00    +0.000 OA
ATOM      3  O   UNL     1       4.143   5.756  19.667  0.00  0.00    +0.000 OA
ENDROOT
BRANCH   1   4
ATOM      4  C   UNL     1       2.441   7.462  18.837  0.00  0.00    +0.000 A 
ATOM      5  C   UNL     1       1.964   7.596  20.131  0.00  0.00    +0.000 A 
ATOM      6  C   UNL     1       1.151   8.694  20.434  0.00  0.00    +0.000 A 
ATOM      7  C   UNL     1       0.790   9.642  19.459  0.00  0.00    +0.000 A 
ATOM      8  C   UNL     1       1.221   9.437  18.142  0.00  0.00    +0.000 A 
ATOM      9  C   UNL     1       2.056   8.359  17.834  0.00  0.00    +0.000 A 
BRANCH   7  10
ATOM     10  N   UNL     1       0.037  10.791  19.806  0.00  0.00    +0.000 N 
ATOM     11  C   UNL     1      -1.296  11.047  19.317  0.00  0.00    +0.000 C 
ATOM     12  C   UNL     1      -1.524  12.515  19.611  0.00  0.00    +0.000 C 
ATOM     13  C   UNL     1      -0.688  12.771  20.851  0.00  0.00    +0.000 C 
ATOM     14  C   UNL     1       0.429  11.765  20.734  0.00  0.00    +0.000 C 
ATOM     15  O   UNL     1       1.470  11.847  21.370  0.00  0.00    +0.000 OA
ENDBRANCH   7  10
ENDBRANCH   1   4
BRANCH   1  16
ATOM     16  O   UNL     1       4.704   6.748  17.404  0.00  0.00    +0.000 OA
BRANCH  16  22
ATOM     17  C   UNL     1       6.805   5.683  16.770  0.00  0.00    +0.000 A 
ATOM     18  C   UNL     1       7.487   4.875  15.824  0.00  0.00    +0.000 A 
ATOM     19  C   UNL     1       6.836   4.256  14.760  0.00  0.00    +0.000 A 
ATOM     20  C   UNL     1       5.469   4.397  14.629  0.00  0.00    +0.000 A 
ATOM     21  C   UNL     1       4.770   5.182  15.546  0.00  0.00    +0.000 A 
ATOM     22  C   UNL     1       5.418   5.876  16.588  0.00  0.00    +0.000 A 
BRANCH  17  24
ATOM     23  C   UNL     1       7.688   7.832  17.744  0.00  0.00    +0.000 C 
ATOM     24  C   UNL     1       7.700   6.306  17.837  0.00  0.00    +0.000 C 
ATOM     25  C   UNL     1       7.520   5.810  19.269  0.00  0.00    +0.000 C 
ENDBRANCH  17  24
ENDBRANCH  16  22
ENDBRANCH   1  16
TORSDOF 5
ENDMDL
MODEL 9
REMARK VINA RESULT:      -7.8      1.304      1.896
REMARK  Name = 
REMARK  7 active torsions:
REMARK  status: ('A' for Active; 'I' for Inactive)
REMARK    1  A    between atoms: C_1  and  C_2
REMARK    2  A    between atoms: C_2  and  C_3
REMARK    3  A    between atoms: C_2  and  C_4
REMARK    4  A    between atoms: C_9  and  O_10
REMARK    5  A    between atoms: O_10  and  S_11
REMARK    6  A    between atoms: S_11  and  C_14
REMARK    7  A    between atoms: C_17  and  N_18
REMARK                            x       y       z     vdW  Elec       q    Type
REMARK                         _______ _______ _______ _____ _____    ______ ____
ROOT
ATOM      1  S   UNL     1       3.537   6.086  18.428  0.00  0.00    +0.000 S 
ATOM      2  O   UNL     1       2.698   5.184  17.657  0.00  0.00    +0.000 OA
ATOM      3  O   UNL     1       4.137   5.645  19.680  0.00  0.00    +0.000 OA
ENDROOT
BRANCH   1   4
ATOM      4  C   UNL     1       2.469   7.415  18.918  0.00  0.00    +0.000 A 
ATOM      5  C   UNL     1       1.942   7.478  20.198  0.00  0.00    +0.000 A 
ATOM      6  C   UNL     1       1.162   8.586  20.547  0.00  0.00    +0.000 A 
ATOM      7  C   UNL     1       0.882   9.616  19.628  0.00  0.00    +0.000 A 
ATOM      8  C   UNL     1       1.361   9.485  18.318  0.00  0.00    +0.000 A 
ATOM      9  C   UNL     1       2.164   8.396  17.967  0.00  0.00    +0.000 A 
BRANCH   7  10
ATOM     10  N   UNL     1       0.162  10.769  20.027  0.00  0.00    +0.000 N 
ATOM     11  C   UNL     1       0.702  11.780  20.905  0.00  0.00    +0.000 C 
ATOM     12  C   UNL     1      -0.510  12.568  21.354  0.00  0.00    +0.000 C 
ATOM     13  C   UNL     1      -1.470  12.457  20.183  0.00  0.00    +0.000 C 
ATOM     14  C   UNL     1      -1.105  11.136  19.555  0.00  0.00    +0.000 C 
ATOM     15  O   UNL     1      -1.836  10.543  18.775  0.00  0.00    +0.000 OA
ENDBRANCH   7  10
ENDBRANCH   1   4
BRANCH   1  16
ATOM     16  O   UNL     1       4.701   6.690  17.442  0.00  0.00    +0.000 OA
BRANCH  16  22
ATOM     17  C   UNL     1       6.808   5.648  16.792  0.00  0.00    +0.000 A 
ATOM     18  C   UNL     1       7.489   4.839  15.845  0.00  0.00    +0.000 A 
ATOM     19  C   UNL     1       6.833   4.201  14.796  0.00  0.00    +0.000 A 
ATOM     20  C   UNL     1       5.463   4.322  14.681  0.00  0.00    +0.000 A 
ATOM     21  C   UNL     1       4.764   5.106  15.599  0.00  0.00    +0.000 A 
ATOM     22  C   UNL     1       5.416   5.820  16.626  0.00  0.00    +0.000 A 
BRANCH  17  24
ATOM     23  C   UNL     1       7.708   7.816  17.704  0.00  0.00    +0.000 C 
ATOM     24  C   UNL     1       7.708   6.293  17.841  0.00  0.00    +0.000 C 
ATOM     25  C   UNL     1       7.525   5.840  19.286  0.00  0.00    +0.000 C 
ENDBRANCH  17  24
ENDBRANCH  16  22
ENDBRANCH   1  16
TORSDOF 5
ENDMDL
