MODEL 1
REMARK VINA RESULT:      -6.4      0.000      0.000
REMARK  Name = 
REMARK  2 active torsions:
REMARK  status: ('A' for Active; 'I' for Inactive)
REMARK    1  A    between atoms: O_1  and  C_2
REMARK    2  A    between atoms: C_9  and  N_10
REMARK                            x       y       z     vdW  Elec       q    Type
REMARK                         _______ _______ _______ _____ _____    ______ ____
ROOT
ATOM      1  C   UNL     1       6.444   5.340  17.004  0.00  0.00    +0.000 A 
ATOM      2  C   UNL     1       7.278   5.494  15.893  0.00  0.00    +0.000 A 
ATOM      3  C   UNL     1       6.903   4.970  14.655  0.00  0.00    +0.000 A 
ATOM      4 CL   UNL     1       7.986   5.193  13.328  0.00  0.00    +0.000 Cl
ATOM      5  C   UNL     1       5.686   4.299  14.528  0.00  0.00    +0.000 A 
ATOM      6 CL   UNL     1       5.154   3.630  13.025  0.00  0.00    +0.000 Cl
ATOM      7  C   UNL     1       4.843   4.156  15.639  0.00  0.00    +0.000 A 
ATOM      8  C   UNL     1       5.214   4.665  16.897  0.00  0.00    +0.000 A 
ENDROOT
BRANCH   8   9
ATOM      9  N   UNL     1       4.324   4.535  18.015  0.00  0.00    +0.000 N 
ATOM     10  C   UNL     1       4.218   3.396  18.803  0.00  0.00    +0.000 A 
ATOM     11  C   UNL     1       3.343   3.627  19.838  0.00  0.00    +0.000 A 
ATOM     12 CL   UNL     1       2.918   2.509  21.046  0.00  0.00    +0.000 Cl
ATOM     13  C   UNL     1       2.871   4.947  19.705  0.00  0.00    +0.000 A 
ATOM     14 CL   UNL     1       1.744   5.708  20.730  0.00  0.00    +0.000 Cl
ATOM     15  C   UNL     1       3.463   5.469  18.577  0.00  0.00    +0.000 A 
ATOM     16 CL   UNL     1       3.098   6.967  17.824  0.00  0.00    +0.000 Cl
ENDBRANCH   8   9
BRANCH   1  17
ATOM     17  O   UNL     1       6.887   5.809  18.210  0.00  0.00    +0.000 OA
ATOM     18  H   UNL     1       6.711   6.762  18.287  0.00  0.00    +0.000 HD
ENDBRANCH   1  17
TORSDOF 2
ENDMDL
MODEL 2
REMARK VINA RESULT:      -6.1      1.617      5.949
REMARK  Name = 
REMARK  2 active torsions:
REMARK  status: ('A' for Active; 'I' for Inactive)
REMARK    1  A    between atoms: O_1  and  C_2
REMARK    2  A    between atoms: C_9  and  N_10
REMARK                            x       y       z     vdW  Elec       q    Type
REMARK                         _______ _______ _______ _____ _____    ______ ____
ROOT
ATOM      1  C   UNL     1       4.140   3.971  18.089  0.00  0.00    +0.000 A 
ATOM      2  C   UNL     1       3.288   4.162  19.180  0.00  0.00    +0.000 A 
ATOM      3  C   UNL     1       2.695   5.407  19.398  0.00  0.00    +0.000 A 
ATOM      4 CL   UNL     1       1.657   5.572  20.769  0.00  0.00    +0.000 Cl
ATOM      5  C   UNL     1       2.949   6.459  18.517  0.00  0.00    +0.000 A 
ATOM      6 CL   UNL     1       2.245   8.024  18.721  0.00  0.00    +0.000 Cl
ATOM      7  C   UNL     1       3.794   6.263  17.415  0.00  0.00    +0.000 A 
ATOM      8  C   UNL     1       4.411   5.019  17.190  0.00  0.00    +0.000 A 
ENDROOT
BRANCH   8   9
ATOM      9  N   UNL     1       5.249   4.830  16.041  0.00  0.00    +0.000 N 
ATOM     10  C   UNL     1       4.928   4.013  14.964  0.00  0.00    +0.000 A 
ATOM     11  C   UNL     1       5.898   4.119  13.995  0.00  0.00    +0.000 A 
ATOM     12 CL   UNL     1       5.907   3.297  12.507  0.00  0.00    +0.000 Cl
ATOM     13  C   UNL     1       6.869   5.022  14.467  0.00  0.00    +0.000 A 
ATOM     14 CL   UNL     1       8.289   5.476  13.645  0.00  0.00    +0.000 Cl
ATOM     15  C   UNL     1       6.464   5.421  15.722  0.00  0.00    +0.000 A 
ATOM     16 CL   UNL     1       7.365   6.357  16.843  0.00  0.00    +0.000 Cl
ENDBRANCH   8   9
BRANCH   1  17
ATOM     17  O   UNL     1       4.752   2.755  17.958  0.00  0.00    +0.000 OA
ATOM     18  H   UNL     1       4.441   2.305  17.153  0.00  0.00    +0.000 HD
ENDBRANCH   1  17
TORSDOF 2
ENDMDL
MODEL 3
REMARK VINA RESULT:      -6.0      1.170      2.090
REMARK  Name = 
REMARK  2 active torsions:
REMARK  status: ('A' for Active; 'I' for Inactive)
REMARK    1  A    between atoms: O_1  and  C_2
REMARK    2  A    between atoms: C_9  and  N_10
REMARK                            x       y       z     vdW  Elec       q    Type
REMARK                         _______ _______ _______ _____ _____    ______ ____
ROOT
ATOM      1  C   UNL     1       6.292   4.760  17.599  0.00  0.00    +0.000 A 
ATOM      2  C   UNL     1       7.216   4.911  16.561  0.00  0.00    +0.000 A 
ATOM      3  C   UNL     1       6.833   4.670  15.240  0.00  0.00    +0.000 A 
ATOM      4 CL   UNL     1       8.029   4.871  14.010  0.00  0.00    +0.000 Cl
ATOM      5  C   UNL     1       5.522   4.288  14.958  0.00  0.00    +0.000 A 
ATOM      6 CL   UNL     1       4.976   3.981  13.347  0.00  0.00    +0.000 Cl
ATOM      7  C   UNL     1       4.591   4.149  15.998  0.00  0.00    +0.000 A 
ATOM      8  C   UNL     1       4.965   4.373  17.335  0.00  0.00    +0.000 A 
ENDROOT
BRANCH   8   9
ATOM      9  N   UNL     1       3.991   4.255  18.383  0.00  0.00    +0.000 N 
ATOM     10  C   UNL     1       3.437   5.333  19.061  0.00  0.00    +0.000 A 
ATOM     11  C   UNL     1       2.478   4.885  19.940  0.00  0.00    +0.000 A 
ATOM     12 CL   UNL     1       1.545   5.862  20.972  0.00  0.00    +0.000 Cl
ATOM     13  C   UNL     1       2.423   3.483  19.826  0.00  0.00    +0.000 A 
ATOM     14 CL   UNL     1       1.407   2.452  20.722  0.00  0.00    +0.000 Cl
ATOM     15  C   UNL     1       3.368   3.123  18.891  0.00  0.00    +0.000 A 
ATOM     16 CL   UNL     1       3.875   1.530  18.504  0.00  0.00    +0.000 Cl
ENDBRANCH   8   9
BRANCH   1  17
ATOM     17  O   UNL     1       6.732   4.937  18.881  0.00  0.00    +0.000 OA
ATOM     18  H   UNL     1       6.312   4.291  19.475  0.00  0.00    +0.000 HD
ENDBRANCH   1  17
TORSDOF 2
ENDMDL
MODEL 4
REMARK VINA RESULT:      -5.9      1.537      5.891
REMARK  Name = 
REMARK  2 active torsions:
REMARK  status: ('A' for Active; 'I' for Inactive)
REMARK    1  A    between atoms: O_1  and  C_2
REMARK    2  A    between atoms: C_9  and  N_10
REMARK                            x       y       z     vdW  Elec       q    Type
REMARK                         _______ _______ _______ _____ _____    ______ ____
ROOT
ATOM      1  C   UNL     1       4.008   5.977  17.592  0.00  0.00    +0.000 A 
ATOM      2  C   UNL     1       3.272   6.069  18.776  0.00  0.00    +0.000 A 
ATOM      3  C   UNL     1       3.108   4.947  19.590  0.00  0.00    +0.000 A 
ATOM      4 CL   UNL     1       2.180   5.133  21.035  0.00  0.00    +0.000 Cl
ATOM      5  C   UNL     1       3.691   3.734  19.222  0.00  0.00    +0.000 A 
ATOM      6 CL   UNL     1       3.536   2.306  20.184  0.00  0.00    +0.000 Cl
ATOM      7  C   UNL     1       4.441   3.645  18.041  0.00  0.00    +0.000 A 
ATOM      8  C   UNL     1       4.602   4.762  17.202  0.00  0.00    +0.000 A 
ENDROOT
BRANCH   8   9
ATOM      9  N   UNL     1       5.399   4.660  16.013  0.00  0.00    +0.000 N 
ATOM     10  C   UNL     1       5.079   3.859  14.924  0.00  0.00    +0.000 A 
ATOM     11  C   UNL     1       5.998   4.053  13.919  0.00  0.00    +0.000 A 
ATOM     12 CL   UNL     1       5.990   3.280  12.405  0.00  0.00    +0.000 Cl
ATOM     13  C   UNL     1       6.935   4.997  14.381  0.00  0.00    +0.000 A 
ATOM     14 CL   UNL     1       8.288   5.561  13.515  0.00  0.00    +0.000 Cl
ATOM     15  C   UNL     1       6.562   5.332  15.663  0.00  0.00    +0.000 A 
ATOM     16 CL   UNL     1       7.455   6.284  16.777  0.00  0.00    +0.000 Cl
ENDBRANCH   8   9
BRANCH   1  17
ATOM     17  O   UNL     1       4.081   7.085  16.793  0.00  0.00    +0.000 OA
ATOM     18  H   UNL     1       3.563   7.813  17.177  0.00  0.00    +0.000 HD
ENDBRANCH   1  17
TORSDOF 2
ENDMDL
MODEL 5
REMARK VINA RESULT:      -5.9      1.715      5.803
REMARK  Name = 
REMARK  2 active torsions:
REMARK  status: ('A' for Active; 'I' for Inactive)
REMARK    1  A    between atoms: O_1  and  C_2
REMARK    2  A    between atoms: C_9  and  N_10
REMARK                            x       y       z     vdW  Elec       q    Type
REMARK                         _______ _______ _______ _____ _____    ______ ____
ROOT
ATOM      1  C   UNL     1       5.605   4.056  18.201  0.00  0.00    +0.000 A 
ATOM      2  C   UNL     1       4.847   3.938  19.370  0.00  0.00    +0.000 A 
ATOM      3  C   UNL     1       3.454   4.003  19.314  0.00  0.00    +0.000 A 
ATOM      4 CL   UNL     1       2.584   3.856  20.799  0.00  0.00    +0.000 Cl
ATOM      5  C   UNL     1       2.819   4.177  18.084  0.00  0.00    +0.000 A 
ATOM      6 CL   UNL     1       1.098   4.260  17.938  0.00  0.00    +0.000 Cl
ATOM      7  C   UNL     1       3.578   4.282  16.910  0.00  0.00    +0.000 A 
ATOM      8  C   UNL     1       4.983   4.233  16.951  0.00  0.00    +0.000 A 
ENDROOT
BRANCH   8   9
ATOM      9  N   UNL     1       5.741   4.312  15.736  0.00  0.00    +0.000 N 
ATOM     10  C   UNL     1       5.592   3.444  14.662  0.00  0.00    +0.000 A 
ATOM     11  C   UNL     1       6.403   3.843  13.626  0.00  0.00    +0.000 A 
ATOM     12 CL   UNL     1       6.536   3.072  12.116  0.00  0.00    +0.000 Cl
ATOM     13  C   UNL     1       7.094   4.994  14.050  0.00  0.00    +0.000 A 
ATOM     14 CL   UNL     1       8.240   5.860  13.135  0.00  0.00    +0.000 Cl
ATOM     15  C   UNL     1       6.693   5.244  15.343  0.00  0.00    +0.000 A 
ATOM     16 CL   UNL     1       7.361   6.400  16.421  0.00  0.00    +0.000 Cl
ENDBRANCH   8   9
BRANCH   1  17
ATOM     17  O   UNL     1       6.967   4.056  18.316  0.00  0.00    +0.000 OA
ATOM     18  H   UNL     1       7.354   3.360  17.757  0.00  0.00    +0.000 HD
ENDBRANCH   1  17
TORSDOF 2
ENDMDL
MODEL 6
REMARK VINA RESULT:      -5.8      0.930      1.011
REMARK  Name = 
REMARK  2 active torsions:
REMARK  status: ('A' for Active; 'I' for Inactive)
REMARK    1  A    between atoms: O_1  and  C_2
REMARK    2  A    between atoms: C_9  and  N_10
REMARK                            x       y       z     vdW  Elec       q    Type
REMARK                         _______ _______ _______ _____ _____    ______ ____
ROOT
ATOM      1  C   UNL     1       6.722   4.938  15.969  0.00  0.00    +0.000 A 
ATOM      2  C   UNL     1       7.422   4.986  14.761  0.00  0.00    +0.000 A 
ATOM      3  C   UNL     1       6.821   4.542  13.582  0.00  0.00    +0.000 A 
ATOM      4 CL   UNL     1       7.749   4.625  12.127  0.00  0.00    +0.000 Cl
ATOM      5  C   UNL     1       5.513   4.057  13.613  0.00  0.00    +0.000 A 
ATOM      6 CL   UNL     1       4.703   3.497  12.192  0.00  0.00    +0.000 Cl
ATOM      7  C   UNL     1       4.805   4.021  14.823  0.00  0.00    +0.000 A 
ATOM      8  C   UNL     1       5.403   4.451  16.021  0.00  0.00    +0.000 A 
ENDROOT
BRANCH   8   9
ATOM      9  N   UNL     1       4.652   4.435  17.245  0.00  0.00    +0.000 N 
ATOM     10  C   UNL     1       4.423   3.297  18.007  0.00  0.00    +0.000 A 
ATOM     11  C   UNL     1       3.747   3.636  19.156  0.00  0.00    +0.000 A 
ATOM     12 CL   UNL     1       3.264   2.557  20.377  0.00  0.00    +0.000 Cl
ATOM     13  C   UNL     1       3.532   5.027  19.124  0.00  0.00    +0.000 A 
ATOM     14 CL   UNL     1       2.716   5.934  20.311  0.00  0.00    +0.000 Cl
ATOM     15  C   UNL     1       4.070   5.485  17.942  0.00  0.00    +0.000 A 
ATOM     16 CL   UNL     1       3.916   7.064  17.287  0.00  0.00    +0.000 Cl
ENDBRANCH   8   9
BRANCH   1  17
ATOM     17  O   UNL     1       7.378   5.318  17.107  0.00  0.00    +0.000 OA
ATOM     18  H   UNL     1       7.278   4.640  17.798  0.00  0.00    +0.000 HD
ENDBRANCH   1  17
TORSDOF 2
ENDMDL
MODEL 7
REMARK VINA RESULT:      -5.7      2.984      3.616
REMARK  Name = 
REMARK  2 active torsions:
REMARK  status: ('A' for Active; 'I' for Inactive)
REMARK    1  A    between atoms: O_1  and  C_2
REMARK    2  A    between atoms: C_9  and  N_10
REMARK                            x       y       z     vdW  Elec       q    Type
REMARK                         _______ _______ _______ _____ _____    ______ ____
ROOT
ATOM      1  C   UNL     1       4.263   6.291  17.896  0.00  0.00    +0.000 A 
ATOM      2  C   UNL     1       5.308   7.116  17.472  0.00  0.00    +0.000 A 
ATOM      3  C   UNL     1       6.613   6.877  17.907  0.00  0.00    +0.000 A 
ATOM      4 CL   UNL     1       7.854   7.941  17.347  0.00  0.00    +0.000 Cl
ATOM      5  C   UNL     1       6.872   5.803  18.759  0.00  0.00    +0.000 A 
ATOM      6 CL   UNL     1       8.463   5.442  19.331  0.00  0.00    +0.000 Cl
ATOM      7  C   UNL     1       5.826   4.967  19.173  0.00  0.00    +0.000 A 
ATOM      8  C   UNL     1       4.504   5.204  18.757  0.00  0.00    +0.000 A 
ENDROOT
BRANCH   8   9
ATOM      9  N   UNL     1       3.451   4.320  19.168  0.00  0.00    +0.000 N 
ATOM     10  C   UNL     1       3.065   4.122  20.487  0.00  0.00    +0.000 A 
ATOM     11  C   UNL     1       1.976   3.283  20.532  0.00  0.00    +0.000 A 
ATOM     12 CL   UNL     1       1.174   2.773  21.942  0.00  0.00    +0.000 Cl
ATOM     13  C   UNL     1       1.661   2.929  19.206  0.00  0.00    +0.000 A 
ATOM     14 CL   UNL     1       0.403   1.888  18.727  0.00  0.00    +0.000 Cl
ATOM     15  C   UNL     1       2.586   3.553  18.399  0.00  0.00    +0.000 A 
ATOM     16 CL   UNL     1       2.805   3.314  16.713  0.00  0.00    +0.000 Cl
ENDBRANCH   8   9
BRANCH   1  17
ATOM     17  O   UNL     1       2.993   6.609  17.501  0.00  0.00    +0.000 OA
ATOM     18  H   UNL     1       2.518   7.059  18.220  0.00  0.00    +0.000 HD
ENDBRANCH   1  17
TORSDOF 2
ENDMDL
MODEL 8
REMARK VINA RESULT:      -5.7      3.290      6.219
REMARK  Name = 
REMARK  2 active torsions:
REMARK  status: ('A' for Active; 'I' for Inactive)
REMARK    1  A    between atoms: O_1  and  C_2
REMARK    2  A    between atoms: C_9  and  N_10
REMARK                            x       y       z     vdW  Elec       q    Type
REMARK                         _______ _______ _______ _____ _____    ______ ____
ROOT
ATOM      1  C   UNL     1       2.036   6.789  20.441  0.00  0.00    +0.000 A 
ATOM      2  C   UNL     1       1.285   7.819  21.012  0.00  0.00    +0.000 A 
ATOM      3  C   UNL     1       1.029   8.986  20.290  0.00  0.00    +0.000 A 
ATOM      4 CL   UNL     1       0.099  10.220  21.061  0.00  0.00    +0.000 Cl
ATOM      5  C   UNL     1       1.519   9.116  18.990  0.00  0.00    +0.000 A 
ATOM      6 CL   UNL     1       1.237  10.529  18.034  0.00  0.00    +0.000 Cl
ATOM      7  C   UNL     1       2.262   8.077  18.412  0.00  0.00    +0.000 A 
ATOM      8  C   UNL     1       2.541   6.902  19.132  0.00  0.00    +0.000 A 
ENDROOT
BRANCH   8   9
ATOM      9  N   UNL     1       3.277   5.837  18.514  0.00  0.00    +0.000 N 
ATOM     10  C   UNL     1       4.603   5.932  18.111  0.00  0.00    +0.000 A 
ATOM     11  C   UNL     1       5.033   4.716  17.636  0.00  0.00    +0.000 A 
ATOM     12 CL   UNL     1       6.590   4.377  17.042  0.00  0.00    +0.000 Cl
ATOM     13  C   UNL     1       3.952   3.820  17.730  0.00  0.00    +0.000 A 
ATOM     14 CL   UNL     1       3.967   2.187  17.247  0.00  0.00    +0.000 Cl
ATOM     15  C   UNL     1       2.890   4.531  18.244  0.00  0.00    +0.000 A 
ATOM     16 CL   UNL     1       1.265   3.996  18.381  0.00  0.00    +0.000 Cl
ENDBRANCH   8   9
BRANCH   1  17
ATOM     17  O   UNL     1       2.319   5.696  21.213  0.00  0.00    +0.000 OA
ATOM     18  H   UNL     1       2.215   4.880  20.695  0.00  0.00    +0.000 HD
ENDBRANCH   1  17
TORSDOF 2
ENDMDL
MODEL 9
REMARK VINA RESULT:      -5.7      5.592      7.397
REMARK  Name = 
REMARK  2 active torsions:
REMARK  status: ('A' for Active; 'I' for Inactive)
REMARK    1  A    between atoms: O_1  and  C_2
REMARK    2  A    between atoms: C_9  and  N_10
REMARK                            x       y       z     vdW  Elec       q    Type
REMARK                         _______ _______ _______ _____ _____    ______ ____
ROOT
ATOM      1  C   UNL     1       1.907   9.183  18.198  0.00  0.00    +0.000 A 
ATOM      2  C   UNL     1       2.706   8.136  17.730  0.00  0.00    +0.000 A 
ATOM      3  C   UNL     1       2.862   6.977  18.492  0.00  0.00    +0.000 A 
ATOM      4 CL   UNL     1       3.869   5.727  17.854  0.00  0.00    +0.000 Cl
ATOM      5  C   UNL     1       2.209   6.863  19.720  0.00  0.00    +0.000 A 
ATOM      6 CL   UNL     1       2.351   5.455  20.714  0.00  0.00    +0.000 Cl
ATOM      7  C   UNL     1       1.398   7.908  20.184  0.00  0.00    +0.000 A 
ATOM      8  C   UNL     1       1.242   9.088  19.435  0.00  0.00    +0.000 A 
ENDROOT
BRANCH   8   9
ATOM      9  N   UNL     1       0.383  10.135  19.912  0.00  0.00    +0.000 N 
ATOM     10  C   UNL     1       0.634  10.898  21.045  0.00  0.00    +0.000 A 
ATOM     11  C   UNL     1      -0.333  11.867  21.176  0.00  0.00    +0.000 A 
ATOM     12 CL   UNL     1      -0.416  13.025  22.417  0.00  0.00    +0.000 Cl
ATOM     13  C   UNL     1      -1.231  11.714  20.102  0.00  0.00    +0.000 A 
ATOM     14 CL   UNL     1      -2.620  12.659  19.825  0.00  0.00    +0.000 Cl
ATOM     15  C   UNL     1      -0.787  10.640  19.363  0.00  0.00    +0.000 A 
ATOM     16 CL   UNL     1      -1.608   9.880  18.061  0.00  0.00    +0.000 Cl
ENDBRANCH   8   9
BRANCH   1  17
ATOM     17  O   UNL     1       1.842  10.326  17.450  0.00  0.00    +0.000 OA
ATOM     18  H   UNL     1       2.649  10.856  17.572  0.00  0.00    +0.000 HD
ENDBRANCH   1  17
TORSDOF 2
ENDMDL
