MODEL 1
REMARK VINA RESULT:      -7.5      0.000      0.000
REMARK  Name = 
REMARK  10 active torsions:
REMARK  status: ('A' for Active; 'I' for Inactive)
REMARK    1  A    between atoms: C_1  and  C_2
REMARK    2  A    between atoms: C_2  and  N_3
REMARK    3  A    between atoms: C_2  and  P_20
REMARK    4  A    between atoms: N_3  and  C_4
REMARK    5  A    between atoms: C_4  and  C_5
REMARK    6  A    between atoms: C_7  and  N_8
REMARK    7  A    between atoms: C_14  and  O_15
REMARK    8  A    between atoms: C_16  and  O_17
REMARK    9  A    between atoms: P_20  and  O_22
REMARK   10  A    between atoms: P_20  and  O_23
REMARK                            x       y       z     vdW  Elec       q    Type
REMARK                         _______ _______ _______ _____ _____    ______ ____
ROOT
ATOM      1  C   UNL     1       3.635   5.948  18.229  0.00  0.00    +0.000 A 
ATOM      2  C   UNL     1       3.640   4.787  19.022  0.00  0.00    +0.000 A 
ATOM      3  C   UNL     1       2.842   4.721  20.162  0.00  0.00    +0.000 A 
ATOM      4  C   UNL     1       2.041   5.807  20.523  0.00  0.00    +0.000 A 
ATOM      5  C   UNL     1       2.034   6.965  19.759  0.00  0.00    +0.000 A 
ATOM      6  N   UNL     1       1.248   7.984  20.160  0.00  0.00    +0.000 NA
ATOM      7  C   UNL     1       1.292   9.077  19.385  0.00  0.00    +0.000 A 
ATOM      8  C   UNL     1       2.080   9.183  18.255  0.00  0.00    +0.000 A 
ATOM      9  N   UNL     1       2.866   8.180  17.844  0.00  0.00    +0.000 NA
ATOM     10  C   UNL     1       2.849   7.055  18.588  0.00  0.00    +0.000 A 
ENDROOT
BRANCH   3  11
ATOM     11  N   UNL     1       2.855   3.511  20.993  0.00  0.00    +0.000 N 
ATOM     12  O   UNL     1       3.471   2.525  20.564  0.00  0.00    +0.000 OA
ATOM     13  O   UNL     1       2.253   3.552  22.072  0.00  0.00    +0.000 OA
ENDBRANCH   3  11
BRANCH   7  14
ATOM     14  O   UNL     1       0.498  10.102  19.791  0.00  0.00    +0.000 OA
ATOM     15  H   UNL     1      -0.357   9.641  19.879  0.00  0.00    +0.000 HD
ENDBRANCH   7  14
BRANCH   8  16
ATOM     16  O   UNL     1       2.100  10.319  17.499  0.00  0.00    +0.000 OA
ATOM     17  H   UNL     1       1.389  10.878  17.861  0.00  0.00    +0.000 HD
ENDBRANCH   8  16
BRANCH   1  18
ATOM     18  C   UNL     1       4.541   6.006  17.020  0.00  0.00    +0.000 C 
BRANCH  18  19
ATOM     19  N   UNL     1       5.604   7.006  17.198  0.00  0.00    +0.000 NA
ATOM     20  H   UNL     1       5.536   7.368  18.159  0.00  0.00    +0.000 HD
BRANCH  19  22
ATOM     21  C   UNL     1       7.586   6.173  18.485  0.00  0.00    +0.000 C 
ATOM     22  C   UNL     1       6.945   6.381  17.110  0.00  0.00    +0.000 C 
BRANCH  22  23
ATOM     23  P   UNL     1       6.724   4.783  16.246  0.00  0.00    +0.000 P 
ATOM     24  O   UNL     1       7.400   5.321  14.975  0.00  0.00    +0.000 OA
BRANCH  23  25
ATOM     25  O   UNL     1       7.962   4.111  17.084  0.00  0.00    +0.000 OA
ATOM     26  H   UNL     1       7.730   4.003  18.022  0.00  0.00    +0.000 HD
ENDBRANCH  23  25
BRANCH  23  27
ATOM     27  O   UNL     1       6.515   3.272  15.429  0.00  0.00    +0.000 OA
ATOM     28  H   UNL     1       6.754   2.597  16.097  0.00  0.00    +0.000 HD
ENDBRANCH  23  27
ENDBRANCH  22  23
ENDBRANCH  19  22
ENDBRANCH  18  19
ENDBRANCH   1  18
TORSDOF 9
ENDMDL
MODEL 2
REMARK VINA RESULT:      -7.5      1.611      1.995
REMARK  Name = 
REMARK  10 active torsions:
REMARK  status: ('A' for Active; 'I' for Inactive)
REMARK    1  A    between atoms: C_1  and  C_2
REMARK    2  A    between atoms: C_2  and  N_3
REMARK    3  A    between atoms: C_2  and  P_20
REMARK    4  A    between atoms: N_3  and  C_4
REMARK    5  A    between atoms: C_4  and  C_5
REMARK    6  A    between atoms: C_7  and  N_8
REMARK    7  A    between atoms: C_14  and  O_15
REMARK    8  A    between atoms: C_16  and  O_17
REMARK    9  A    between atoms: P_20  and  O_22
REMARK   10  A    between atoms: P_20  and  O_23
REMARK                            x       y       z     vdW  Elec       q    Type
REMARK                         _______ _______ _______ _____ _____    ______ ____
ROOT
ATOM      1  C   UNL     1       3.018   4.718  18.466  0.00  0.00    +0.000 A 
ATOM      2  C   UNL     1       2.947   3.665  19.396  0.00  0.00    +0.000 A 
ATOM      3  C   UNL     1       2.407   3.889  20.661  0.00  0.00    +0.000 A 
ATOM      4  C   UNL     1       1.942   5.159  21.011  0.00  0.00    +0.000 A 
ATOM      5  C   UNL     1       2.017   6.213  20.110  0.00  0.00    +0.000 A 
ATOM      6  N   UNL     1       1.562   7.418  20.506  0.00  0.00    +0.000 NA
ATOM      7  C   UNL     1       1.669   8.395  19.595  0.00  0.00    +0.000 A 
ATOM      8  C   UNL     1       2.209   8.213  18.337  0.00  0.00    +0.000 A 
ATOM      9  N   UNL     1       2.667   7.022  17.930  0.00  0.00    +0.000 NA
ATOM     10  C   UNL     1       2.571   6.005  18.810  0.00  0.00    +0.000 A 
ENDROOT
BRANCH   3  11
ATOM     11  N   UNL     1       2.341   2.791  21.631  0.00  0.00    +0.000 N 
ATOM     12  O   UNL     1       3.385   2.165  21.863  0.00  0.00    +0.000 OA
ATOM     13  O   UNL     1       1.248   2.561  22.161  0.00  0.00    +0.000 OA
ENDBRANCH   3  11
BRANCH   7  14
ATOM     14  O   UNL     1       1.207   9.609  19.996  0.00  0.00    +0.000 OA
ATOM     15  H   UNL     1       1.964   9.920  20.528  0.00  0.00    +0.000 HD
ENDBRANCH   7  14
BRANCH   8  16
ATOM     16  O   UNL     1       2.307   9.239  17.443  0.00  0.00    +0.000 OA
ATOM     17  H   UNL     1       2.842   9.918  17.893  0.00  0.00    +0.000 HD
ENDBRANCH   8  16
BRANCH   1  18
ATOM     18  C   UNL     1       3.644   4.454  17.116  0.00  0.00    +0.000 C 
BRANCH  18  19
ATOM     19  N   UNL     1       4.823   5.306  16.900  0.00  0.00    +0.000 NA
ATOM     20  H   UNL     1       4.917   5.924  17.717  0.00  0.00    +0.000 HD
BRANCH  19  22
ATOM     21  C   UNL     1       6.737   4.501  15.498  0.00  0.00    +0.000 C 
ATOM     22  C   UNL     1       6.066   4.500  16.874  0.00  0.00    +0.000 C 
BRANCH  22  23
ATOM     23  P   UNL     1       7.180   5.208  18.142  0.00  0.00    +0.000 P 
ATOM     24  O   UNL     1       6.375   4.560  19.281  0.00  0.00    +0.000 OA
BRANCH  23  25
ATOM     25  O   UNL     1       8.336   4.095  17.808  0.00  0.00    +0.000 OA
ATOM     26  H   UNL     1       8.097   3.224  18.171  0.00  0.00    +0.000 HD
ENDBRANCH  23  25
BRANCH  23  27
ATOM     27  O   UNL     1       8.232   5.878  19.341  0.00  0.00    +0.000 OA
ATOM     28  H   UNL     1       7.745   5.769  20.183  0.00  0.00    +0.000 HD
ENDBRANCH  23  27
ENDBRANCH  22  23
ENDBRANCH  19  22
ENDBRANCH  18  19
ENDBRANCH   1  18
TORSDOF 9
ENDMDL
MODEL 3
REMARK VINA RESULT:      -7.4      1.029      4.303
REMARK  Name = 
REMARK  10 active torsions:
REMARK  status: ('A' for Active; 'I' for Inactive)
REMARK    1  A    between atoms: C_1  and  C_2
REMARK    2  A    between atoms: C_2  and  N_3
REMARK    3  A    between atoms: C_2  and  P_20
REMARK    4  A    between atoms: N_3  and  C_4
REMARK    5  A    between atoms: C_4  and  C_5
REMARK    6  A    between atoms: C_7  and  N_8
REMARK    7  A    between atoms: C_14  and  O_15
REMARK    8  A    between atoms: C_16  and  O_17
REMARK    9  A    between atoms: P_20  and  O_22
REMARK   10  A    between atoms: P_20  and  O_23
REMARK                            x       y       z     vdW  Elec       q    Type
REMARK                         _______ _______ _______ _____ _____    ______ ____
ROOT
ATOM      1  C   UNL     1       3.638   6.294  18.089  0.00  0.00    +0.000 A 
ATOM      2  C   UNL     1       2.936   7.507  18.203  0.00  0.00    +0.000 A 
ATOM      3  C   UNL     1       2.046   7.699  19.257  0.00  0.00    +0.000 A 
ATOM      4  C   UNL     1       1.844   6.687  20.199  0.00  0.00    +0.000 A 
ATOM      5  C   UNL     1       2.518   5.479  20.094  0.00  0.00    +0.000 A 
ATOM      6  N   UNL     1       2.277   4.536  21.027  0.00  0.00    +0.000 NA
ATOM      7  C   UNL     1       2.953   3.390  20.866  0.00  0.00    +0.000 A 
ATOM      8  C   UNL     1       3.834   3.159  19.828  0.00  0.00    +0.000 A 
ATOM      9  N   UNL     1       4.083   4.086  18.893  0.00  0.00    +0.000 NA
ATOM     10  C   UNL     1       3.432   5.260  19.018  0.00  0.00    +0.000 A 
ENDROOT
BRANCH   3  11
ATOM     11  N   UNL     1       1.308   8.963  19.368  0.00  0.00    +0.000 N 
ATOM     12  O   UNL     1       0.828   9.253  20.473  0.00  0.00    +0.000 OA
ATOM     13  O   UNL     1       1.216   9.663  18.354  0.00  0.00    +0.000 OA
ENDBRANCH   3  11
BRANCH   7  14
ATOM     14  O   UNL     1       2.709   2.441  21.809  0.00  0.00    +0.000 OA
ATOM     15  H   UNL     1       1.794   2.669  22.057  0.00  0.00    +0.000 HD
ENDBRANCH   7  14
BRANCH   8  16
ATOM     16  O   UNL     1       4.495   1.972  19.697  0.00  0.00    +0.000 OA
ATOM     17  H   UNL     1       4.502   1.789  18.741  0.00  0.00    +0.000 HD
ENDBRANCH   8  16
BRANCH   1  18
ATOM     18  C   UNL     1       4.568   6.100  16.913  0.00  0.00    +0.000 C 
BRANCH  18  19
ATOM     19  N   UNL     1       5.688   7.052  16.958  0.00  0.00    +0.000 NA
ATOM     20  H   UNL     1       5.658   7.529  17.869  0.00  0.00    +0.000 HD
BRANCH  19  22
ATOM     21  C   UNL     1       7.560   6.109  18.329  0.00  0.00    +0.000 C 
ATOM     22  C   UNL     1       6.990   6.345  16.928  0.00  0.00    +0.000 C 
BRANCH  22  23
ATOM     23  P   UNL     1       6.708   4.757  16.063  0.00  0.00    +0.000 P 
ATOM     24  O   UNL     1       7.507   5.227  14.837  0.00  0.00    +0.000 OA
BRANCH  23  25
ATOM     25  O   UNL     1       7.833   4.006  16.989  0.00  0.00    +0.000 OA
ATOM     26  H   UNL     1       8.458   4.648  17.368  0.00  0.00    +0.000 HD
ENDBRANCH  23  25
BRANCH  23  27
ATOM     27  O   UNL     1       6.440   3.256  15.246  0.00  0.00    +0.000 OA
ATOM     28  H   UNL     1       7.226   2.715  15.465  0.00  0.00    +0.000 HD
ENDBRANCH  23  27
ENDBRANCH  22  23
ENDBRANCH  19  22
ENDBRANCH  18  19
ENDBRANCH   1  18
TORSDOF 9
ENDMDL
MODEL 4
REMARK VINA RESULT:      -7.4      1.329      1.824
REMARK  Name = 
REMARK  10 active torsions:
REMARK  status: ('A' for Active; 'I' for Inactive)
REMARK    1  A    between atoms: C_1  and  C_2
REMARK    2  A    between atoms: C_2  and  N_3
REMARK    3  A    between atoms: C_2  and  P_20
REMARK    4  A    between atoms: N_3  and  C_4
REMARK    5  A    between atoms: C_4  and  C_5
REMARK    6  A    between atoms: C_7  and  N_8
REMARK    7  A    between atoms: C_14  and  O_15
REMARK    8  A    between atoms: C_16  and  O_17
REMARK    9  A    between atoms: P_20  and  O_22
REMARK   10  A    between atoms: P_20  and  O_23
REMARK                            x       y       z     vdW  Elec       q    Type
REMARK                         _______ _______ _______ _____ _____    ______ ____
ROOT
ATOM      1  C   UNL     1       3.519   5.485  18.182  0.00  0.00    +0.000 A 
ATOM      2  C   UNL     1       3.536   4.356  19.022  0.00  0.00    +0.000 A 
ATOM      3  C   UNL     1       2.854   4.383  20.236  0.00  0.00    +0.000 A 
ATOM      4  C   UNL     1       2.159   5.530  20.627  0.00  0.00    +0.000 A 
ATOM      5  C   UNL     1       2.143   6.657  19.817  0.00  0.00    +0.000 A 
ATOM      6  N   UNL     1       1.463   7.738  20.249  0.00  0.00    +0.000 NA
ATOM      7  C   UNL     1       1.493   8.796  19.426  0.00  0.00    +0.000 A 
ATOM      8  C   UNL     1       2.167   8.810  18.221  0.00  0.00    +0.000 A 
ATOM      9  N   UNL     1       2.848   7.744  17.779  0.00  0.00    +0.000 NA
ATOM     10  C   UNL     1       2.839   6.652  18.569  0.00  0.00    +0.000 A 
ENDROOT
BRANCH   3  11
ATOM     11  N   UNL     1       2.880   3.207  21.113  0.00  0.00    +0.000 N 
ATOM     12  O   UNL     1       3.669   2.295  20.830  0.00  0.00    +0.000 OA
ATOM     13  O   UNL     1       2.115   3.201  22.085  0.00  0.00    +0.000 OA
ENDBRANCH   3  11
BRANCH   7  14
ATOM     14  O   UNL     1       0.805   9.884  19.863  0.00  0.00    +0.000 OA
ATOM     15  H   UNL     1       0.213  10.037  19.103  0.00  0.00    +0.000 HD
ENDBRANCH   7  14
BRANCH   8  16
ATOM     16  O   UNL     1       2.178   9.913  17.418  0.00  0.00    +0.000 OA
ATOM     17  H   UNL     1       2.776   9.687  16.683  0.00  0.00    +0.000 HD
ENDBRANCH   8  16
BRANCH   1  18
ATOM     18  C   UNL     1       4.300   5.440  16.888  0.00  0.00    +0.000 C 
BRANCH  18  19
ATOM     19  N   UNL     1       4.583   4.054  16.486  0.00  0.00    +0.000 NA
ATOM     20  H   UNL     1       3.908   3.797  15.752  0.00  0.00    +0.000 HD
BRANCH  19  22
ATOM     21  C   UNL     1       5.827   3.836  14.323  0.00  0.00    +0.000 C 
ATOM     22  C   UNL     1       5.916   3.946  15.847  0.00  0.00    +0.000 C 
BRANCH  22  23
ATOM     23  P   UNL     1       6.857   5.437  16.339  0.00  0.00    +0.000 P 
ATOM     24  O   UNL     1       7.824   4.603  17.195  0.00  0.00    +0.000 OA
BRANCH  23  25
ATOM     25  O   UNL     1       7.597   5.501  14.878  0.00  0.00    +0.000 OA
ATOM     26  H   UNL     1       8.332   6.140  14.887  0.00  0.00    +0.000 HD
ENDBRANCH  23  25
BRANCH  23  27
ATOM     27  O   UNL     1       7.747   6.846  16.804  0.00  0.00    +0.000 OA
ATOM     28  H   UNL     1       7.082   7.564  16.808  0.00  0.00    +0.000 HD
ENDBRANCH  23  27
ENDBRANCH  22  23
ENDBRANCH  19  22
ENDBRANCH  18  19
ENDBRANCH   1  18
TORSDOF 9
ENDMDL
MODEL 5
REMARK VINA RESULT:      -7.3      1.742      2.163
REMARK  Name = 
REMARK  10 active torsions:
REMARK  status: ('A' for Active; 'I' for Inactive)
REMARK    1  A    between atoms: C_1  and  C_2
REMARK    2  A    between atoms: C_2  and  N_3
REMARK    3  A    between atoms: C_2  and  P_20
REMARK    4  A    between atoms: N_3  and  C_4
REMARK    5  A    between atoms: C_4  and  C_5
REMARK    6  A    between atoms: C_7  and  N_8
REMARK    7  A    between atoms: C_14  and  O_15
REMARK    8  A    between atoms: C_16  and  O_17
REMARK    9  A    between atoms: P_20  and  O_22
REMARK   10  A    between atoms: P_20  and  O_23
REMARK                            x       y       z     vdW  Elec       q    Type
REMARK                         _______ _______ _______ _____ _____    ______ ____
ROOT
ATOM      1  C   UNL     1       3.206   4.425  18.468  0.00  0.00    +0.000 A 
ATOM      2  C   UNL     1       3.096   3.412  19.438  0.00  0.00    +0.000 A 
ATOM      3  C   UNL     1       2.517   3.692  20.673  0.00  0.00    +0.000 A 
ATOM      4  C   UNL     1       2.050   4.978  20.954  0.00  0.00    +0.000 A 
ATOM      5  C   UNL     1       2.162   5.993  20.014  0.00  0.00    +0.000 A 
ATOM      6  N   UNL     1       1.702   7.216  20.344  0.00  0.00    +0.000 NA
ATOM      7  C   UNL     1       1.847   8.154  19.397  0.00  0.00    +0.000 A 
ATOM      8  C   UNL     1       2.427   7.916  18.166  0.00  0.00    +0.000 A 
ATOM      9  N   UNL     1       2.890   6.706  17.824  0.00  0.00    +0.000 NA
ATOM     10  C   UNL     1       2.758   5.727  18.743  0.00  0.00    +0.000 A 
ENDROOT
BRANCH   3  11
ATOM     11  N   UNL     1       2.411   2.636  21.686  0.00  0.00    +0.000 N 
ATOM     12  O   UNL     1       3.431   1.983  21.946  0.00  0.00    +0.000 OA
ATOM     13  O   UNL     1       1.309   2.465  22.221  0.00  0.00    +0.000 OA
ENDBRANCH   3  11
BRANCH   7  14
ATOM     14  O   UNL     1       1.381   9.386  19.731  0.00  0.00    +0.000 OA
ATOM     15  H   UNL     1       0.452   9.308  19.445  0.00  0.00    +0.000 HD
ENDBRANCH   7  14
BRANCH   8  16
ATOM     16  O   UNL     1       2.562   8.903  17.234  0.00  0.00    +0.000 OA
ATOM     17  H   UNL     1       2.570   8.443  16.375  0.00  0.00    +0.000 HD
ENDBRANCH   8  16
BRANCH   1  18
ATOM     18  C   UNL     1       3.875   4.101  17.151  0.00  0.00    +0.000 C 
BRANCH  18  19
ATOM     19  N   UNL     1       5.306   3.817  17.337  0.00  0.00    +0.000 NA
ATOM     20  H   UNL     1       5.434   2.798  17.273  0.00  0.00    +0.000 HD
BRANCH  19  22
ATOM     21  C   UNL     1       5.354   4.383  14.897  0.00  0.00    +0.000 C 
ATOM     22  C   UNL     1       6.110   4.383  16.229  0.00  0.00    +0.000 C 
BRANCH  22  23
ATOM     23  P   UNL     1       6.561   6.086  16.722  0.00  0.00    +0.000 P 
ATOM     24  O   UNL     1       7.737   6.114  15.733  0.00  0.00    +0.000 OA
BRANCH  23  25
ATOM     25  O   UNL     1       5.317   6.711  15.856  0.00  0.00    +0.000 OA
ATOM     26  H   UNL     1       5.590   6.899  14.941  0.00  0.00    +0.000 HD
ENDBRANCH  23  25
BRANCH  23  27
ATOM     27  O   UNL     1       6.986   7.697  17.189  0.00  0.00    +0.000 OA
ATOM     28  H   UNL     1       7.328   7.605  18.102  0.00  0.00    +0.000 HD
ENDBRANCH  23  27
ENDBRANCH  22  23
ENDBRANCH  19  22
ENDBRANCH  18  19
ENDBRANCH   1  18
TORSDOF 9
ENDMDL
MODEL 6
REMARK VINA RESULT:      -7.2      3.879      6.956
REMARK  Name = 
REMARK  10 active torsions:
REMARK  status: ('A' for Active; 'I' for Inactive)
REMARK    1  A    between atoms: C_1  and  C_2
REMARK    2  A    between atoms: C_2  and  N_3
REMARK    3  A    between atoms: C_2  and  P_20
REMARK    4  A    between atoms: N_3  and  C_4
REMARK    5  A    between atoms: C_4  and  C_5
REMARK    6  A    between atoms: C_7  and  N_8
REMARK    7  A    between atoms: C_14  and  O_15
REMARK    8  A    between atoms: C_16  and  O_17
REMARK    9  A    between atoms: P_20  and  O_22
REMARK   10  A    between atoms: P_20  and  O_23
REMARK                            x       y       z     vdW  Elec       q    Type
REMARK                         _______ _______ _______ _____ _____    ______ ____
ROOT
ATOM      1  C   UNL     1       5.235   4.176  17.026  0.00  0.00    +0.000 A 
ATOM      2  C   UNL     1       5.869   4.735  18.150  0.00  0.00    +0.000 A 
ATOM      3  C   UNL     1       7.053   5.453  17.995  0.00  0.00    +0.000 A 
ATOM      4  C   UNL     1       7.615   5.615  16.727  0.00  0.00    +0.000 A 
ATOM      5  C   UNL     1       7.010   5.060  15.608  0.00  0.00    +0.000 A 
ATOM      6  N   UNL     1       7.602   5.241  14.411  0.00  0.00    +0.000 NA
ATOM      7  C   UNL     1       6.973   4.674  13.372  0.00  0.00    +0.000 A 
ATOM      8  C   UNL     1       5.805   3.945  13.489  0.00  0.00    +0.000 A 
ATOM      9  N   UNL     1       5.206   3.755  14.672  0.00  0.00    +0.000 NA
ATOM     10  C   UNL     1       5.798   4.316  15.746  0.00  0.00    +0.000 A 
ENDROOT
BRANCH   3  11
ATOM     11  N   UNL     1       7.717   6.028  19.170  0.00  0.00    +0.000 N 
ATOM     12  O   UNL     1       7.576   5.444  20.254  0.00  0.00    +0.000 OA
ATOM     13  O   UNL     1       8.381   7.058  19.006  0.00  0.00    +0.000 OA
ENDBRANCH   3  11
BRANCH   7  14
ATOM     14  O   UNL     1       7.571   4.859  12.166  0.00  0.00    +0.000 OA
ATOM     15  H   UNL     1       8.370   4.310  12.278  0.00  0.00    +0.000 HD
ENDBRANCH   7  14
BRANCH   8  16
ATOM     16  O   UNL     1       5.203   3.377  12.405  0.00  0.00    +0.000 OA
ATOM     17  H   UNL     1       5.640   3.777  11.632  0.00  0.00    +0.000 HD
ENDBRANCH   8  16
BRANCH   1  18
ATOM     18  C   UNL     1       3.973   3.370  17.230  0.00  0.00    +0.000 C 
BRANCH  18  19
ATOM     19  N   UNL     1       3.711   3.143  18.659  0.00  0.00    +0.000 NA
ATOM     20  H   UNL     1       4.488   3.560  19.190  0.00  0.00    +0.000 HD
BRANCH  19  22
ATOM     21  C   UNL     1       1.363   3.796  18.079  0.00  0.00    +0.000 C 
ATOM     22  C   UNL     1       2.500   3.873  19.101  0.00  0.00    +0.000 C 
BRANCH  22  23
ATOM     23  P   UNL     1       1.993   3.133  20.697  0.00  0.00    +0.000 P 
ATOM     24  O   UNL     1       2.271   4.444  21.449  0.00  0.00    +0.000 OA
BRANCH  23  25
ATOM     25  O   UNL     1       0.408   3.252  20.295  0.00  0.00    +0.000 OA
ATOM     26  H   UNL     1      -0.158   3.185  21.084  0.00  0.00    +0.000 HD
ENDBRANCH  23  25
BRANCH  23  27
ATOM     27  O   UNL     1       1.513   2.433  22.204  0.00  0.00    +0.000 OA
ATOM     28  H   UNL     1       1.342   3.201  22.787  0.00  0.00    +0.000 HD
ENDBRANCH  23  27
ENDBRANCH  22  23
ENDBRANCH  19  22
ENDBRANCH  18  19
ENDBRANCH   1  18
TORSDOF 9
ENDMDL
MODEL 7
REMARK VINA RESULT:      -7.1      1.782      2.049
REMARK  Name = 
REMARK  10 active torsions:
REMARK  status: ('A' for Active; 'I' for Inactive)
REMARK    1  A    between atoms: C_1  and  C_2
REMARK    2  A    between atoms: C_2  and  N_3
REMARK    3  A    between atoms: C_2  and  P_20
REMARK    4  A    between atoms: N_3  and  C_4
REMARK    5  A    between atoms: C_4  and  C_5
REMARK    6  A    between atoms: C_7  and  N_8
REMARK    7  A    between atoms: C_14  and  O_15
REMARK    8  A    between atoms: C_16  and  O_17
REMARK    9  A    between atoms: P_20  and  O_22
REMARK   10  A    between atoms: P_20  and  O_23
REMARK                            x       y       z     vdW  Elec       q    Type
REMARK                         _______ _______ _______ _____ _____    ______ ____
ROOT
ATOM      1  C   UNL     1       3.159   4.766  18.404  0.00  0.00    +0.000 A 
ATOM      2  C   UNL     1       3.128   3.697  19.318  0.00  0.00    +0.000 A 
ATOM      3  C   UNL     1       2.575   3.880  20.583  0.00  0.00    +0.000 A 
ATOM      4  C   UNL     1       2.057   5.124  20.950  0.00  0.00    +0.000 A 
ATOM      5  C   UNL     1       2.091   6.193  20.066  0.00  0.00    +0.000 A 
ATOM      6  N   UNL     1       1.584   7.372  20.479  0.00  0.00    +0.000 NA
ATOM      7  C   UNL     1       1.654   8.367  19.582  0.00  0.00    +0.000 A 
ATOM      8  C   UNL     1       2.206   8.226  18.324  0.00  0.00    +0.000 A 
ATOM      9  N   UNL     1       2.714   7.061  17.901  0.00  0.00    +0.000 NA
ATOM     10  C   UNL     1       2.658   6.028  18.765  0.00  0.00    +0.000 A 
ENDROOT
BRANCH   3  11
ATOM     11  N   UNL     1       2.551   2.765  21.537  0.00  0.00    +0.000 N 
ATOM     12  O   UNL     1       1.503   2.571  22.169  0.00  0.00    +0.000 OA
ATOM     13  O   UNL     1       3.577   2.085  21.648  0.00  0.00    +0.000 OA
ENDBRANCH   3  11
BRANCH   7  14
ATOM     14  O   UNL     1       1.141   9.554  20.000  0.00  0.00    +0.000 OA
ATOM     15  H   UNL     1       1.961  10.066  20.130  0.00  0.00    +0.000 HD
ENDBRANCH   7  14
BRANCH   8  16
ATOM     16  O   UNL     1       2.265   9.269  17.446  0.00  0.00    +0.000 OA
ATOM     17  H   UNL     1       2.282   8.857  16.563  0.00  0.00    +0.000 HD
ENDBRANCH   8  16
BRANCH   1  18
ATOM     18  C   UNL     1       3.800   4.549  17.053  0.00  0.00    +0.000 C 
BRANCH  18  19
ATOM     19  N   UNL     1       4.986   5.402  16.883  0.00  0.00    +0.000 NA
ATOM     20  H   UNL     1       5.002   6.075  17.661  0.00  0.00    +0.000 HD
BRANCH  19  22
ATOM     21  C   UNL     1       6.934   4.388  15.678  0.00  0.00    +0.000 C 
ATOM     22  C   UNL     1       6.234   4.615  17.020  0.00  0.00    +0.000 C 
BRANCH  22  23
ATOM     23  P   UNL     1       7.315   5.540  18.172  0.00  0.00    +0.000 P 
ATOM     24  O   UNL     1       6.646   6.874  17.805  0.00  0.00    +0.000 OA
BRANCH  23  25
ATOM     25  O   UNL     1       6.451   5.020  19.464  0.00  0.00    +0.000 OA
ATOM     26  H   UNL     1       6.898   5.252  20.298  0.00  0.00    +0.000 HD
ENDBRANCH  23  25
BRANCH  23  27
ATOM     27  O   UNL     1       8.337   6.413  19.260  0.00  0.00    +0.000 OA
ATOM     28  H   UNL     1       8.293   7.340  18.948  0.00  0.00    +0.000 HD
ENDBRANCH  23  27
ENDBRANCH  22  23
ENDBRANCH  19  22
ENDBRANCH  18  19
ENDBRANCH   1  18
TORSDOF 9
ENDMDL
MODEL 8
REMARK VINA RESULT:      -7.1      1.491      1.724
REMARK  Name = 
REMARK  10 active torsions:
REMARK  status: ('A' for Active; 'I' for Inactive)
REMARK    1  A    between atoms: C_1  and  C_2
REMARK    2  A    between atoms: C_2  and  N_3
REMARK    3  A    between atoms: C_2  and  P_20
REMARK    4  A    between atoms: N_3  and  C_4
REMARK    5  A    between atoms: C_4  and  C_5
REMARK    6  A    between atoms: C_7  and  N_8
REMARK    7  A    between atoms: C_14  and  O_15
REMARK    8  A    between atoms: C_16  and  O_17
REMARK    9  A    between atoms: P_20  and  O_22
REMARK   10  A    between atoms: P_20  and  O_23
REMARK                            x       y       z     vdW  Elec       q    Type
REMARK                         _______ _______ _______ _____ _____    ______ ____
ROOT
ATOM      1  C   UNL     1       3.013   4.458  18.479  0.00  0.00    +0.000 A 
ATOM      2  C   UNL     1       2.938   3.439  19.447  0.00  0.00    +0.000 A 
ATOM      3  C   UNL     1       2.426   3.718  20.712  0.00  0.00    +0.000 A 
ATOM      4  C   UNL     1       1.992   5.008  21.025  0.00  0.00    +0.000 A 
ATOM      5  C   UNL     1       2.072   6.029  20.088  0.00  0.00    +0.000 A 
ATOM      6  N   UNL     1       1.647   7.256  20.449  0.00  0.00    +0.000 NA
ATOM      7  C   UNL     1       1.757   8.198  19.502  0.00  0.00    +0.000 A 
ATOM      8  C   UNL     1       2.271   7.962  18.242  0.00  0.00    +0.000 A 
ATOM      9  N   UNL     1       2.698   6.748  17.869  0.00  0.00    +0.000 NA
ATOM     10  C   UNL     1       2.598   5.764  18.786  0.00  0.00    +0.000 A 
ENDROOT
BRANCH   3  11
ATOM     11  N   UNL     1       2.355   2.655  21.721  0.00  0.00    +0.000 N 
ATOM     12  O   UNL     1       1.266   2.462  22.279  0.00  0.00    +0.000 OA
ATOM     13  O   UNL     1       3.388   2.014  21.950  0.00  0.00    +0.000 OA
ENDBRANCH   3  11
BRANCH   7  14
ATOM     14  O   UNL     1       1.327   9.434  19.869  0.00  0.00    +0.000 OA
ATOM     15  H   UNL     1       0.548   9.530  19.290  0.00  0.00    +0.000 HD
ENDBRANCH   7  14
BRANCH   8  16
ATOM     16  O   UNL     1       2.373   8.954  17.311  0.00  0.00    +0.000 OA
ATOM     17  H   UNL     1       1.606   9.533  17.472  0.00  0.00    +0.000 HD
ENDBRANCH   8  16
BRANCH   1  18
ATOM     18  C   UNL     1       3.609   4.134  17.128  0.00  0.00    +0.000 C 
BRANCH  18  19
ATOM     19  N   UNL     1       5.050   3.860  17.234  0.00  0.00    +0.000 NA
ATOM     20  H   UNL     1       5.353   3.430  16.350  0.00  0.00    +0.000 HD
BRANCH  19  22
ATOM     21  C   UNL     1       6.728   5.144  18.580  0.00  0.00    +0.000 C 
ATOM     22  C   UNL     1       5.825   5.118  17.344  0.00  0.00    +0.000 C 
BRANCH  22  23
ATOM     23  P   UNL     1       6.815   5.261  15.811  0.00  0.00    +0.000 P 
ATOM     24  O   UNL     1       5.661   5.961  15.074  0.00  0.00    +0.000 OA
BRANCH  23  25
ATOM     25  O   UNL     1       7.680   6.505  16.436  0.00  0.00    +0.000 OA
ATOM     26  H   UNL     1       7.973   6.305  17.343  0.00  0.00    +0.000 HD
ENDBRANCH  23  25
BRANCH  23  27
ATOM     27  O   UNL     1       7.751   5.397  14.362  0.00  0.00    +0.000 OA
ATOM     28  H   UNL     1       8.403   4.669  14.423  0.00  0.00    +0.000 HD
ENDBRANCH  23  27
ENDBRANCH  22  23
ENDBRANCH  19  22
ENDBRANCH  18  19
ENDBRANCH   1  18
TORSDOF 9
ENDMDL
MODEL 9
REMARK VINA RESULT:      -7.1      2.019      5.754
REMARK  Name = 
REMARK  10 active torsions:
REMARK  status: ('A' for Active; 'I' for Inactive)
REMARK    1  A    between atoms: C_1  and  C_2
REMARK    2  A    between atoms: C_2  and  N_3
REMARK    3  A    between atoms: C_2  and  P_20
REMARK    4  A    between atoms: N_3  and  C_4
REMARK    5  A    between atoms: C_4  and  C_5
REMARK    6  A    between atoms: C_7  and  N_8
REMARK    7  A    between atoms: C_14  and  O_15
REMARK    8  A    between atoms: C_16  and  O_17
REMARK    9  A    between atoms: P_20  and  O_22
REMARK   10  A    between atoms: P_20  and  O_23
REMARK                            x       y       z     vdW  Elec       q    Type
REMARK                         _______ _______ _______ _____ _____    ______ ____
ROOT
ATOM      1  C   UNL     1       3.077   6.348  19.173  0.00  0.00    +0.000 A 
ATOM      2  C   UNL     1       2.251   7.470  18.978  0.00  0.00    +0.000 A 
ATOM      3  C   UNL     1       2.546   8.383  17.968  0.00  0.00    +0.000 A 
ATOM      4  C   UNL     1       3.663   8.191  17.152  0.00  0.00    +0.000 A 
ATOM      5  C   UNL     1       4.496   7.096  17.339  0.00  0.00    +0.000 A 
ATOM      6  N   UNL     1       5.564   6.967  16.527  0.00  0.00    +0.000 NA
ATOM      7  C   UNL     1       6.333   5.895  16.764  0.00  0.00    +0.000 A 
ATOM      8  C   UNL     1       6.079   4.976  17.763  0.00  0.00    +0.000 A 
ATOM      9  N   UNL     1       5.022   5.092  18.578  0.00  0.00    +0.000 NA
ATOM     10  C   UNL     1       4.214   6.151  18.372  0.00  0.00    +0.000 A 
ENDROOT
BRANCH   3  11
ATOM     11  N   UNL     1       1.688   9.557  17.771  0.00  0.00    +0.000 N 
ATOM     12  O   UNL     1       0.461   9.387  17.820  0.00  0.00    +0.000 OA
ATOM     13  O   UNL     1       2.242  10.644  17.574  0.00  0.00    +0.000 OA
ENDBRANCH   3  11
BRANCH   7  14
ATOM     14  O   UNL     1       7.408   5.765  15.943  0.00  0.00    +0.000 OA
ATOM     15  H   UNL     1       7.422   6.648  15.528  0.00  0.00    +0.000 HD
ENDBRANCH   7  14
BRANCH   8  16
ATOM     16  O   UNL     1       6.894   3.902  17.975  0.00  0.00    +0.000 OA
ATOM     17  H   UNL     1       6.602   3.525  18.824  0.00  0.00    +0.000 HD
ENDBRANCH   8  16
BRANCH   1  18
ATOM     18  C   UNL     1       2.754   5.396  20.302  0.00  0.00    +0.000 C 
BRANCH  18  19
ATOM     19  N   UNL     1       2.296   4.097  19.788  0.00  0.00    +0.000 NA
ATOM     20  H   UNL     1       2.705   3.969  18.852  0.00  0.00    +0.000 HD
BRANCH  19  22
ATOM     21  C   UNL     1       1.771   2.360  21.515  0.00  0.00    +0.000 C 
ATOM     22  C   UNL     1       2.832   2.982  20.604  0.00  0.00    +0.000 C 
BRANCH  22  23
ATOM     23  P   UNL     1       3.493   1.742  19.432  0.00  0.00    +0.000 P 
ATOM     24  O   UNL     1       2.999   2.550  18.222  0.00  0.00    +0.000 OA
BRANCH  23  25
ATOM     25  O   UNL     1       5.024   2.284  19.656  0.00  0.00    +0.000 OA
ATOM     26  H   UNL     1       5.204   2.439  20.600  0.00  0.00    +0.000 HD
ENDBRANCH  23  25
BRANCH  23  27
ATOM     27  O   UNL     1       4.119   0.569  18.324  0.00  0.00    +0.000 OA
ATOM     28  H   UNL     1       4.706   0.006  18.869  0.00  0.00    +0.000 HD
ENDBRANCH  23  27
ENDBRANCH  22  23
ENDBRANCH  19  22
ENDBRANCH  18  19
ENDBRANCH   1  18
TORSDOF 9
ENDMDL
