MODEL 1
REMARK VINA RESULT:      -5.5      0.000      0.000
REMARK  Name = 
REMARK  9 active torsions:
REMARK  status: ('A' for Active; 'I' for Inactive)
REMARK    1  A    between atoms: N_1  and  C_2
REMARK    2  A    between atoms: C_2  and  C_3
REMARK    3  A    between atoms: C_3  and  N_4
REMARK    4  A    between atoms: N_6  and  C_7
REMARK    5  A    between atoms: C_7  and  C_8
REMARK    6  A    between atoms: C_8  and  O_10
REMARK    7  A    between atoms: N_11  and  C_12
REMARK    8  A    between atoms: C_12  and  C_13
REMARK    9  A    between atoms: C_13  and  N_14
REMARK                            x       y       z     vdW  Elec       q    Type
REMARK                         _______ _______ _______ _____ _____    ______ ____
ROOT
ATOM      1  N   UNL     1       6.020   4.194  18.916  0.00  0.00    +0.000 N 
ATOM      2  C   UNL     1       4.941   3.827  18.173  0.00  0.00    +0.000 C 
ATOM      3  N   UNL     1       4.553   4.215  17.007  0.00  0.00    +0.000 NA
ATOM      4  N   UNL     1       4.251   2.842  18.814  0.00  0.00    +0.000 N 
ATOM      5  H   UNL     1       6.186   3.638  19.742  0.00  0.00    +0.000 HD
ATOM      6  H   UNL     1       4.537   2.560  19.741  0.00  0.00    +0.000 HD
ENDROOT
BRANCH   1   7
ATOM      7  C   UNL     1       6.488   5.556  19.132  0.00  0.00    +0.000 C 
BRANCH   7   8
ATOM      8  C   UNL     1       7.993   5.548  19.456  0.00  0.00    +0.000 C 
BRANCH   8   9
ATOM      9  N   UNL     1       8.247   5.239  20.869  0.00  0.00    +0.000 NA
ATOM     10  H   UNL     1       9.048   4.610  20.931  0.00  0.00    +0.000 HD
ATOM     11  H   UNL     1       7.454   4.711  21.233  0.00  0.00    +0.000 HD
ENDBRANCH   8   9
ENDBRANCH   7   8
ENDBRANCH   1   7
BRANCH   3  12
ATOM     12  C   UNL     1       5.350   5.190  16.249  0.00  0.00    +0.000 C 
BRANCH  12  13
ATOM     13  C   UNL     1       6.432   4.423  15.499  0.00  0.00    +0.000 C 
ATOM     14  O   UNL     1       6.224   3.696  14.538  0.00  0.00    +0.000 OA
BRANCH  13  15
ATOM     15  O   UNL     1       7.661   4.621  16.037  0.00  0.00    +0.000 OA
ATOM     16  H   UNL     1       7.974   3.714  16.281  0.00  0.00    +0.000 HD
ENDBRANCH  13  15
ENDBRANCH  12  13
ENDBRANCH   3  12
BRANCH   4  17
ATOM     17  C   UNL     1       3.469   1.825  18.118  0.00  0.00    +0.000 C 
BRANCH  17  18
ATOM     18  C   UNL     1       1.958   2.077  18.290  0.00  0.00    +0.000 C 
BRANCH  18  19
ATOM     19  N   UNL     1       1.528   3.340  17.673  0.00  0.00    +0.000 NA
ATOM     20  H   UNL     1       0.806   3.745  18.267  0.00  0.00    +0.000 HD
ATOM     21  H   UNL     1       1.067   3.127  16.788  0.00  0.00    +0.000 HD
ENDBRANCH  18  19
ENDBRANCH  17  18
ENDBRANCH   4  17
TORSDOF 9
ENDMDL
MODEL 2
REMARK VINA RESULT:      -5.3      3.196      5.280
REMARK  Name = 
REMARK  9 active torsions:
REMARK  status: ('A' for Active; 'I' for Inactive)
REMARK    1  A    between atoms: N_1  and  C_2
REMARK    2  A    between atoms: C_2  and  C_3
REMARK    3  A    between atoms: C_3  and  N_4
REMARK    4  A    between atoms: N_6  and  C_7
REMARK    5  A    between atoms: C_7  and  C_8
REMARK    6  A    between atoms: C_8  and  O_10
REMARK    7  A    between atoms: N_11  and  C_12
REMARK    8  A    between atoms: C_12  and  C_13
REMARK    9  A    between atoms: C_13  and  N_14
REMARK                            x       y       z     vdW  Elec       q    Type
REMARK                         _______ _______ _______ _____ _____    ______ ____
ROOT
ATOM      1  N   UNL     1       3.208   5.518  20.124  0.00  0.00    +0.000 N 
ATOM      2  C   UNL     1       3.966   4.833  19.226  0.00  0.00    +0.000 C 
ATOM      3  N   UNL     1       3.625   4.136  18.197  0.00  0.00    +0.000 NA
ATOM      4  N   UNL     1       5.288   5.020  19.499  0.00  0.00    +0.000 N 
ATOM      5  H   UNL     1       3.721   6.108  20.764  0.00  0.00    +0.000 HD
ATOM      6  H   UNL     1       5.555   5.539  20.322  0.00  0.00    +0.000 HD
ENDROOT
BRANCH   1   7
ATOM      7  C   UNL     1       1.990   5.036  20.762  0.00  0.00    +0.000 C 
BRANCH   7   8
ATOM      8  C   UNL     1       2.287   3.754  21.559  0.00  0.00    +0.000 C 
BRANCH   8   9
ATOM      9  N   UNL     1       1.142   2.834  21.563  0.00  0.00    +0.000 NA
ATOM     10  H   UNL     1       0.823   2.701  20.603  0.00  0.00    +0.000 HD
ATOM     11  H   UNL     1       0.367   3.283  22.050  0.00  0.00    +0.000 HD
ENDBRANCH   8   9
ENDBRANCH   7   8
ENDBRANCH   1   7
BRANCH   3  12
ATOM     12  C   UNL     1       2.209   4.022  17.818  0.00  0.00    +0.000 C 
BRANCH  12  13
ATOM     13  C   UNL     1       1.762   2.596  18.112  0.00  0.00    +0.000 C 
ATOM     14  O   UNL     1       0.703   2.300  18.646  0.00  0.00    +0.000 OA
BRANCH  13  15
ATOM     15  O   UNL     1       2.691   1.684  17.734  0.00  0.00    +0.000 OA
ATOM     16  H   UNL     1       3.106   2.071  16.924  0.00  0.00    +0.000 HD
ENDBRANCH  13  15
ENDBRANCH  12  13
ENDBRANCH   3  12
BRANCH   4  17
ATOM     17  C   UNL     1       6.333   4.980  18.480  0.00  0.00    +0.000 C 
BRANCH  17  18
ATOM     18  C   UNL     1       7.596   5.725  18.954  0.00  0.00    +0.000 C 
BRANCH  18  19
ATOM     19  N   UNL     1       7.920   5.440  20.359  0.00  0.00    +0.000 NA
ATOM     20  H   UNL     1       8.935   5.438  20.449  0.00  0.00    +0.000 HD
ATOM     21  H   UNL     1       7.624   4.487  20.572  0.00  0.00    +0.000 HD
ENDBRANCH  18  19
ENDBRANCH  17  18
ENDBRANCH   4  17
TORSDOF 9
ENDMDL
MODEL 3
REMARK VINA RESULT:      -5.3      1.376      1.536
REMARK  Name = 
REMARK  9 active torsions:
REMARK  status: ('A' for Active; 'I' for Inactive)
REMARK    1  A    between atoms: N_1  and  C_2
REMARK    2  A    between atoms: C_2  and  C_3
REMARK    3  A    between atoms: C_3  and  N_4
REMARK    4  A    between atoms: N_6  and  C_7
REMARK    5  A    between atoms: C_7  and  C_8
REMARK    6  A    between atoms: C_8  and  O_10
REMARK    7  A    between atoms: N_11  and  C_12
REMARK    8  A    between atoms: C_12  and  C_13
REMARK    9  A    between atoms: C_13  and  N_14
REMARK                            x       y       z     vdW  Elec       q    Type
REMARK                         _______ _______ _______ _____ _____    ______ ____
ROOT
ATOM      1  N   UNL     1       6.290   4.123  18.584  0.00  0.00    +0.000 N 
ATOM      2  C   UNL     1       5.112   4.293  17.925  0.00  0.00    +0.000 C 
ATOM      3  N   UNL     1       4.835   4.220  16.669  0.00  0.00    +0.000 NA
ATOM      4  N   UNL     1       4.108   4.510  18.820  0.00  0.00    +0.000 N 
ATOM      5  H   UNL     1       6.222   4.090  19.591  0.00  0.00    +0.000 HD
ATOM      6  H   UNL     1       4.330   4.598  19.801  0.00  0.00    +0.000 HD
ENDROOT
BRANCH   1   7
ATOM      7  C   UNL     1       7.579   4.675  18.192  0.00  0.00    +0.000 C 
BRANCH   7   8
ATOM      8  C   UNL     1       7.938   5.865  19.099  0.00  0.00    +0.000 C 
BRANCH   8   9
ATOM      9  N   UNL     1       8.125   5.451  20.496  0.00  0.00    +0.000 NA
ATOM     10  H   UNL     1       8.077   4.433  20.548  0.00  0.00    +0.000 HD
ATOM     11  H   UNL     1       7.335   5.791  21.044  0.00  0.00    +0.000 HD
ENDBRANCH   8   9
ENDBRANCH   7   8
ENDBRANCH   1   7
BRANCH   3  12
ATOM     12  C   UNL     1       5.882   3.868  15.699  0.00  0.00    +0.000 C 
BRANCH  12  13
ATOM     13  C   UNL     1       6.382   5.159  15.065  0.00  0.00    +0.000 C 
ATOM     14  O   UNL     1       7.516   5.326  14.638  0.00  0.00    +0.000 OA
BRANCH  13  15
ATOM     15  O   UNL     1       5.427   6.122  15.050  0.00  0.00    +0.000 OA
ATOM     16  H   UNL     1       4.765   5.805  14.387  0.00  0.00    +0.000 HD
ENDBRANCH  13  15
ENDBRANCH  12  13
ENDBRANCH   3  12
BRANCH   4  17
ATOM     17  C   UNL     1       2.718   4.136  18.576  0.00  0.00    +0.000 C 
BRANCH  17  18
ATOM     18  C   UNL     1       2.479   2.650  18.907  0.00  0.00    +0.000 C 
BRANCH  18  19
ATOM     19  N   UNL     1       2.584   1.788  17.720  0.00  0.00    +0.000 NA
ATOM     20  H   UNL     1       3.086   2.310  17.002  0.00  0.00    +0.000 HD
ATOM     21  H   UNL     1       1.647   1.638  17.345  0.00  0.00    +0.000 HD
ENDBRANCH  18  19
ENDBRANCH  17  18
ENDBRANCH   4  17
TORSDOF 9
ENDMDL
MODEL 4
REMARK VINA RESULT:      -5.3      2.795      5.147
REMARK  Name = 
REMARK  9 active torsions:
REMARK  status: ('A' for Active; 'I' for Inactive)
REMARK    1  A    between atoms: N_1  and  C_2
REMARK    2  A    between atoms: C_2  and  C_3
REMARK    3  A    between atoms: C_3  and  N_4
REMARK    4  A    between atoms: N_6  and  C_7
REMARK    5  A    between atoms: C_7  and  C_8
REMARK    6  A    between atoms: C_8  and  O_10
REMARK    7  A    between atoms: N_11  and  C_12
REMARK    8  A    between atoms: C_12  and  C_13
REMARK    9  A    between atoms: C_13  and  N_14
REMARK                            x       y       z     vdW  Elec       q    Type
REMARK                         _______ _______ _______ _____ _____    ______ ____
ROOT
ATOM      1  N   UNL     1       4.591   3.534  19.573  0.00  0.00    +0.000 N 
ATOM      2  C   UNL     1       5.080   4.245  18.522  0.00  0.00    +0.000 C 
ATOM      3  N   UNL     1       4.490   5.051  17.707  0.00  0.00    +0.000 NA
ATOM      4  N   UNL     1       6.427   4.065  18.427  0.00  0.00    +0.000 N 
ATOM      5  H   UNL     1       5.286   3.081  20.150  0.00  0.00    +0.000 HD
ATOM      6  H   UNL     1       6.884   3.410  19.045  0.00  0.00    +0.000 HD
ENDROOT
BRANCH   1   7
ATOM      7  C   UNL     1       3.356   2.762  19.587  0.00  0.00    +0.000 C 
BRANCH   7   8
ATOM      8  C   UNL     1       3.376   1.722  18.452  0.00  0.00    +0.000 C 
BRANCH   8   9
ATOM      9  N   UNL     1       2.197   1.839  17.582  0.00  0.00    +0.000 NA
ATOM     10  H   UNL     1       2.510   1.960  16.618  0.00  0.00    +0.000 HD
ATOM     11  H   UNL     1       1.703   2.698  17.821  0.00  0.00    +0.000 HD
ENDBRANCH   8   9
ENDBRANCH   7   8
ENDBRANCH   1   7
BRANCH   3  12
ATOM     12  C   UNL     1       3.060   5.350  17.867  0.00  0.00    +0.000 C 
BRANCH  12  13
ATOM     13  C   UNL     1       2.941   6.609  18.717  0.00  0.00    +0.000 C 
ATOM     14  O   UNL     1       2.877   7.744  18.266  0.00  0.00    +0.000 OA
BRANCH  13  15
ATOM     15  O   UNL     1       2.938   6.329  20.044  0.00  0.00    +0.000 OA
ATOM     16  H   UNL     1       3.096   7.201  20.482  0.00  0.00    +0.000 HD
ENDBRANCH  13  15
ENDBRANCH  12  13
ENDBRANCH   3  12
BRANCH   4  17
ATOM     17  C   UNL     1       7.336   5.067  17.877  0.00  0.00    +0.000 C 
BRANCH  17  18
ATOM     18  C   UNL     1       7.789   6.059  18.967  0.00  0.00    +0.000 C 
BRANCH  18  19
ATOM     19  N   UNL     1       7.972   5.410  20.273  0.00  0.00    +0.000 NA
ATOM     20  H   UNL     1       8.249   6.129  20.940  0.00  0.00    +0.000 HD
ATOM     21  H   UNL     1       8.767   4.773  20.210  0.00  0.00    +0.000 HD
ENDBRANCH  18  19
ENDBRANCH  17  18
ENDBRANCH   4  17
TORSDOF 9
ENDMDL
MODEL 5
REMARK VINA RESULT:      -5.3      2.940      4.251
REMARK  Name = 
REMARK  9 active torsions:
REMARK  status: ('A' for Active; 'I' for Inactive)
REMARK    1  A    between atoms: N_1  and  C_2
REMARK    2  A    between atoms: C_2  and  C_3
REMARK    3  A    between atoms: C_3  and  N_4
REMARK    4  A    between atoms: N_6  and  C_7
REMARK    5  A    between atoms: C_7  and  C_8
REMARK    6  A    between atoms: C_8  and  O_10
REMARK    7  A    between atoms: N_11  and  C_12
REMARK    8  A    between atoms: C_12  and  C_13
REMARK    9  A    between atoms: C_13  and  N_14
REMARK                            x       y       z     vdW  Elec       q    Type
REMARK                         _______ _______ _______ _____ _____    ______ ____
ROOT
ATOM      1  N   UNL     1       7.342   4.788  16.546  0.00  0.00    +0.000 N 
ATOM      2  C   UNL     1       6.288   4.199  15.920  0.00  0.00    +0.000 C 
ATOM      3  N   UNL     1       5.086   3.977  16.329  0.00  0.00    +0.000 NA
ATOM      4  N   UNL     1       6.629   3.882  14.639  0.00  0.00    +0.000 N 
ATOM      5  H   UNL     1       8.144   4.976  15.961  0.00  0.00    +0.000 HD
ATOM      6  H   UNL     1       7.578   4.028  14.329  0.00  0.00    +0.000 HD
ENDROOT
BRANCH   1   7
ATOM      7  C   UNL     1       7.775   4.539  17.915  0.00  0.00    +0.000 C 
BRANCH   7   8
ATOM      8  C   UNL     1       7.717   5.844  18.728  0.00  0.00    +0.000 C 
BRANCH   8   9
ATOM      9  N   UNL     1       7.835   5.595  20.172  0.00  0.00    +0.000 NA
ATOM     10  H   UNL     1       7.702   4.598  20.346  0.00  0.00    +0.000 HD
ATOM     11  H   UNL     1       7.062   6.063  20.645  0.00  0.00    +0.000 HD
ENDBRANCH   8   9
ENDBRANCH   7   8
ENDBRANCH   1   7
BRANCH   3  12
ATOM     12  C   UNL     1       4.666   4.421  17.666  0.00  0.00    +0.000 C 
BRANCH  12  13
ATOM     13  C   UNL     1       4.230   3.189  18.449  0.00  0.00    +0.000 C 
ATOM     14  O   UNL     1       3.173   2.598  18.277  0.00  0.00    +0.000 OA
BRANCH  13  15
ATOM     15  O   UNL     1       5.143   2.833  19.387  0.00  0.00    +0.000 OA
ATOM     16  H   UNL     1       5.852   2.367  18.879  0.00  0.00    +0.000 HD
ENDBRANCH  13  15
ENDBRANCH  12  13
ENDBRANCH   3  12
BRANCH   4  17
ATOM     17  C   UNL     1       5.667   3.825  13.543  0.00  0.00    +0.000 C 
BRANCH  17  18
ATOM     18  C   UNL     1       6.358   3.435  12.221  0.00  0.00    +0.000 C 
BRANCH  18  19
ATOM     19  N   UNL     1       6.039   2.061  11.807  0.00  0.00    +0.000 NA
ATOM     20  H   UNL     1       5.028   1.945  11.872  0.00  0.00    +0.000 HD
ATOM     21  H   UNL     1       6.434   1.416  12.492  0.00  0.00    +0.000 HD
ENDBRANCH  18  19
ENDBRANCH  17  18
ENDBRANCH   4  17
TORSDOF 9
ENDMDL
MODEL 6
REMARK VINA RESULT:      -5.2      2.909      5.068
REMARK  Name = 
REMARK  9 active torsions:
REMARK  status: ('A' for Active; 'I' for Inactive)
REMARK    1  A    between atoms: N_1  and  C_2
REMARK    2  A    between atoms: C_2  and  C_3
REMARK    3  A    between atoms: C_3  and  N_4
REMARK    4  A    between atoms: N_6  and  C_7
REMARK    5  A    between atoms: C_7  and  C_8
REMARK    6  A    between atoms: C_8  and  O_10
REMARK    7  A    between atoms: N_11  and  C_12
REMARK    8  A    between atoms: C_12  and  C_13
REMARK    9  A    between atoms: C_13  and  N_14
REMARK                            x       y       z     vdW  Elec       q    Type
REMARK                         _______ _______ _______ _____ _____    ______ ____
ROOT
ATOM      1  N   UNL     1       4.921   3.317  19.483  0.00  0.00    +0.000 N 
ATOM      2  C   UNL     1       5.313   4.132  18.466  0.00  0.00    +0.000 C 
ATOM      3  N   UNL     1       4.633   4.936  17.725  0.00  0.00    +0.000 NA
ATOM      4  N   UNL     1       6.667   4.070  18.320  0.00  0.00    +0.000 N 
ATOM      5  H   UNL     1       5.670   2.888  20.007  0.00  0.00    +0.000 HD
ATOM      6  H   UNL     1       7.196   3.417  18.879  0.00  0.00    +0.000 HD
ENDROOT
BRANCH   1   7
ATOM      7  C   UNL     1       3.753   2.447  19.482  0.00  0.00    +0.000 C 
BRANCH   7   8
ATOM      8  C   UNL     1       2.990   2.592  20.810  0.00  0.00    +0.000 C 
BRANCH   8   9
ATOM      9  N   UNL     1       1.673   3.216  20.619  0.00  0.00    +0.000 NA
ATOM     10  H   UNL     1       1.603   3.550  19.657  0.00  0.00    +0.000 HD
ATOM     11  H   UNL     1       1.622   4.050  21.204  0.00  0.00    +0.000 HD
ENDBRANCH   8   9
ENDBRANCH   7   8
ENDBRANCH   1   7
BRANCH   3  12
ATOM     12  C   UNL     1       3.190   5.106  17.948  0.00  0.00    +0.000 C 
BRANCH  12  13
ATOM     13  C   UNL     1       2.998   6.313  18.857  0.00  0.00    +0.000 C 
ATOM     14  O   UNL     1       2.812   7.455  18.461  0.00  0.00    +0.000 OA
BRANCH  13  15
ATOM     15  O   UNL     1       3.083   5.981  20.169  0.00  0.00    +0.000 OA
ATOM     16  H   UNL     1       2.814   5.029  20.202  0.00  0.00    +0.000 HD
ENDBRANCH  13  15
ENDBRANCH  12  13
ENDBRANCH   3  12
BRANCH   4  17
ATOM     17  C   UNL     1       7.472   5.176  17.811  0.00  0.00    +0.000 C 
BRANCH  17  18
ATOM     18  C   UNL     1       7.839   6.158  18.941  0.00  0.00    +0.000 C 
BRANCH  18  19
ATOM     19  N   UNL     1       8.065   5.476  20.224  0.00  0.00    +0.000 NA
ATOM     20  H   UNL     1       7.287   4.834  20.374  0.00  0.00    +0.000 HD
ATOM     21  H   UNL     1       8.000   6.165  20.973  0.00  0.00    +0.000 HD
ENDBRANCH  18  19
ENDBRANCH  17  18
ENDBRANCH   4  17
TORSDOF 9
ENDMDL
MODEL 7
REMARK VINA RESULT:      -5.2      1.837      3.226
REMARK  Name = 
REMARK  9 active torsions:
REMARK  status: ('A' for Active; 'I' for Inactive)
REMARK    1  A    between atoms: N_1  and  C_2
REMARK    2  A    between atoms: C_2  and  C_3
REMARK    3  A    between atoms: C_3  and  N_4
REMARK    4  A    between atoms: N_6  and  C_7
REMARK    5  A    between atoms: C_7  and  C_8
REMARK    6  A    between atoms: C_8  and  O_10
REMARK    7  A    between atoms: N_11  and  C_12
REMARK    8  A    between atoms: C_12  and  C_13
REMARK    9  A    between atoms: C_13  and  N_14
REMARK                            x       y       z     vdW  Elec       q    Type
REMARK                         _______ _______ _______ _____ _____    ______ ____
ROOT
ATOM      1  N   UNL     1       4.316   4.793  16.874  0.00  0.00    +0.000 N 
ATOM      2  C   UNL     1       4.691   3.906  17.834  0.00  0.00    +0.000 C 
ATOM      3  N   UNL     1       5.468   4.051  18.852  0.00  0.00    +0.000 NA
ATOM      4  N   UNL     1       4.046   2.721  17.647  0.00  0.00    +0.000 N 
ATOM      5  H   UNL     1       3.580   4.479  16.258  0.00  0.00    +0.000 HD
ATOM      6  H   UNL     1       3.463   2.598  16.832  0.00  0.00    +0.000 HD
ENDROOT
BRANCH   1   7
ATOM      7  C   UNL     1       5.195   5.714  16.166  0.00  0.00    +0.000 C 
BRANCH   7   8
ATOM      8  C   UNL     1       6.047   4.943  15.142  0.00  0.00    +0.000 C 
BRANCH   8   9
ATOM      9  N   UNL     1       7.454   5.367  15.171  0.00  0.00    +0.000 NA
ATOM     10  H   UNL     1       8.013   4.628  15.597  0.00  0.00    +0.000 HD
ATOM     11  H   UNL     1       7.537   6.170  15.796  0.00  0.00    +0.000 HD
ENDBRANCH   8   9
ENDBRANCH   7   8
ENDBRANCH   1   7
BRANCH   3  12
ATOM     12  C   UNL     1       6.078   5.357  19.138  0.00  0.00    +0.000 C 
BRANCH  12  13
ATOM     13  C   UNL     1       7.563   5.259  18.811  0.00  0.00    +0.000 C 
ATOM     14  O   UNL     1       8.059   4.398  18.098  0.00  0.00    +0.000 OA
BRANCH  13  15
ATOM     15  O   UNL     1       8.284   6.229  19.426  0.00  0.00    +0.000 OA
ATOM     16  H   UNL     1       8.120   6.086  20.391  0.00  0.00    +0.000 HD
ENDBRANCH  13  15
ENDBRANCH  12  13
ENDBRANCH   3  12
BRANCH   4  17
ATOM     17  C   UNL     1       3.718   1.804  18.734  0.00  0.00    +0.000 C 
BRANCH  17  18
ATOM     18  C   UNL     1       2.472   2.284  19.505  0.00  0.00    +0.000 C 
BRANCH  18  19
ATOM     19  N   UNL     1       2.821   3.058  20.705  0.00  0.00    +0.000 NA
ATOM     20  H   UNL     1       3.456   2.491  21.266  0.00  0.00    +0.000 HD
ATOM     21  H   UNL     1       1.981   3.173  21.273  0.00  0.00    +0.000 HD
ENDBRANCH  18  19
ENDBRANCH  17  18
ENDBRANCH   4  17
TORSDOF 9
ENDMDL
MODEL 8
REMARK VINA RESULT:      -5.2      2.923      4.156
REMARK  Name = 
REMARK  9 active torsions:
REMARK  status: ('A' for Active; 'I' for Inactive)
REMARK    1  A    between atoms: N_1  and  C_2
REMARK    2  A    between atoms: C_2  and  C_3
REMARK    3  A    between atoms: C_3  and  N_4
REMARK    4  A    between atoms: N_6  and  C_7
REMARK    5  A    between atoms: C_7  and  C_8
REMARK    6  A    between atoms: C_8  and  O_10
REMARK    7  A    between atoms: N_11  and  C_12
REMARK    8  A    between atoms: C_12  and  C_13
REMARK    9  A    between atoms: C_13  and  N_14
REMARK                            x       y       z     vdW  Elec       q    Type
REMARK                         _______ _______ _______ _____ _____    ______ ____
ROOT
ATOM      1  N   UNL     1       2.656   4.351  17.788  0.00  0.00    +0.000 N 
ATOM      2  C   UNL     1       3.449   5.454  17.715  0.00  0.00    +0.000 C 
ATOM      3  N   UNL     1       4.610   5.620  17.182  0.00  0.00    +0.000 NA
ATOM      4  N   UNL     1       2.804   6.524  18.261  0.00  0.00    +0.000 N 
ATOM      5  H   UNL     1       1.721   4.512  18.133  0.00  0.00    +0.000 HD
ATOM      6  H   UNL     1       1.908   6.387  18.705  0.00  0.00    +0.000 HD
ENDROOT
BRANCH   1   7
ATOM      7  C   UNL     1       3.090   3.006  18.139  0.00  0.00    +0.000 C 
BRANCH   7   8
ATOM      8  C   UNL     1       3.616   2.985  19.585  0.00  0.00    +0.000 C 
BRANCH   8   9
ATOM      9  N   UNL     1       4.997   2.490  19.659  0.00  0.00    +0.000 NA
ATOM     10  H   UNL     1       5.581   3.205  20.093  0.00  0.00    +0.000 HD
ATOM     11  H   UNL     1       5.354   2.383  18.709  0.00  0.00    +0.000 HD
ENDBRANCH   8   9
ENDBRANCH   7   8
ENDBRANCH   1   7
BRANCH   3  12
ATOM     12  C   UNL     1       5.269   4.507  16.483  0.00  0.00    +0.000 C 
BRANCH  12  13
ATOM     13  C   UNL     1       6.729   4.485  16.915  0.00  0.00    +0.000 C 
ATOM     14  O   UNL     1       7.675   4.688  16.167  0.00  0.00    +0.000 OA
BRANCH  13  15
ATOM     15  O   UNL     1       6.866   4.186  18.230  0.00  0.00    +0.000 OA
ATOM     16  H   UNL     1       6.385   4.911  18.701  0.00  0.00    +0.000 HD
ENDBRANCH  13  15
ENDBRANCH  12  13
ENDBRANCH   3  12
BRANCH   4  17
ATOM     17  C   UNL     1       3.035   7.902  17.840  0.00  0.00    +0.000 C 
BRANCH  17  18
ATOM     18  C   UNL     1       1.722   8.710  17.851  0.00  0.00    +0.000 C 
BRANCH  18  19
ATOM     19  N   UNL     1       1.937  10.131  17.539  0.00  0.00    +0.000 NA
ATOM     20  H   UNL     1       2.908  10.352  17.758  0.00  0.00    +0.000 HD
ATOM     21  H   UNL     1       1.377  10.692  18.182  0.00  0.00    +0.000 HD
ENDBRANCH  18  19
ENDBRANCH  17  18
ENDBRANCH   4  17
TORSDOF 9
ENDMDL
MODEL 9
REMARK VINA RESULT:      -5.2      1.748      1.947
REMARK  Name = 
REMARK  9 active torsions:
REMARK  status: ('A' for Active; 'I' for Inactive)
REMARK    1  A    between atoms: N_1  and  C_2
REMARK    2  A    between atoms: C_2  and  C_3
REMARK    3  A    between atoms: C_3  and  N_4
REMARK    4  A    between atoms: N_6  and  C_7
REMARK    5  A    between atoms: C_7  and  C_8
REMARK    6  A    between atoms: C_8  and  O_10
REMARK    7  A    between atoms: N_11  and  C_12
REMARK    8  A    between atoms: C_12  and  C_13
REMARK    9  A    between atoms: C_13  and  N_14
REMARK                            x       y       z     vdW  Elec       q    Type
REMARK                         _______ _______ _______ _____ _____    ______ ____
ROOT
ATOM      1  N   UNL     1       6.414   4.109  18.332  0.00  0.00    +0.000 N 
ATOM      2  C   UNL     1       5.251   4.138  17.626  0.00  0.00    +0.000 C 
ATOM      3  N   UNL     1       5.034   4.024  16.362  0.00  0.00    +0.000 NA
ATOM      4  N   UNL     1       4.194   4.244  18.481  0.00  0.00    +0.000 N 
ATOM      5  H   UNL     1       6.311   4.076  19.336  0.00  0.00    +0.000 HD
ATOM      6  H   UNL     1       4.366   4.365  19.468  0.00  0.00    +0.000 HD
ENDROOT
BRANCH   1   7
ATOM      7  C   UNL     1       7.646   4.803  17.983  0.00  0.00    +0.000 C 
BRANCH   7   8
ATOM      8  C   UNL     1       7.486   6.313  18.231  0.00  0.00    +0.000 C 
BRANCH   8   9
ATOM      9  N   UNL     1       7.670   7.093  17.000  0.00  0.00    +0.000 NA
ATOM     10  H   UNL     1       8.626   6.965  16.668  0.00  0.00    +0.000 HD
ATOM     11  H   UNL     1       7.589   8.084  17.229  0.00  0.00    +0.000 HD
ENDBRANCH   8   9
ENDBRANCH   7   8
ENDBRANCH   1   7
BRANCH   3  12
ATOM     12  C   UNL     1       6.152   3.789  15.437  0.00  0.00    +0.000 C 
BRANCH  12  13
ATOM     13  C   UNL     1       6.524   5.125  14.807  0.00  0.00    +0.000 C 
ATOM     14  O   UNL     1       7.601   5.364  14.279  0.00  0.00    +0.000 OA
BRANCH  13  15
ATOM     15  O   UNL     1       5.526   6.036  14.919  0.00  0.00    +0.000 OA
ATOM     16  H   UNL     1       5.166   5.899  15.830  0.00  0.00    +0.000 HD
ENDBRANCH  13  15
ENDBRANCH  12  13
ENDBRANCH   3  12
BRANCH   4  17
ATOM     17  C   UNL     1       2.867   3.711  18.188  0.00  0.00    +0.000 C 
BRANCH  17  18
ATOM     18  C   UNL     1       2.788   2.210  18.525  0.00  0.00    +0.000 C 
BRANCH  18  19
ATOM     19  N   UNL     1       1.401   1.734  18.639  0.00  0.00    +0.000 NA
ATOM     20  H   UNL     1       1.390   0.749  18.377  0.00  0.00    +0.000 HD
ATOM     21  H   UNL     1       0.837   2.211  17.935  0.00  0.00    +0.000 HD
ENDBRANCH  18  19
ENDBRANCH  17  18
ENDBRANCH   4  17
TORSDOF 9
ENDMDL
