MODEL 1
REMARK VINA RESULT:      -6.4      0.000      0.000
REMARK  Name = 
REMARK  10 active torsions:
REMARK  status: ('A' for Active; 'I' for Inactive)
REMARK    1  A    between atoms: C_2  and  C_4
REMARK    2  A    between atoms: N_6  and  C_7
REMARK    3  A    between atoms: C_7  and  C_8
REMARK    4  A    between atoms: C_7  and  O_10
REMARK    5  A    between atoms: C_8  and  O_9
REMARK    6  A    between atoms: O_10  and  C_11
REMARK    7  A    between atoms: C_11  and  C_12
REMARK    8  A    between atoms: C_11  and  C_14
REMARK    9  A    between atoms: C_12  and  O_13
REMARK   10  A    between atoms: C_14  and  O_15
REMARK                            x       y       z     vdW  Elec       q    Type
REMARK                         _______ _______ _______ _____ _____    ______ ____
ROOT
ATOM      1  C   UNL     1       2.395   4.499  20.408  0.00  0.00    +0.000 A 
ATOM      2  C   UNL     1       1.715   5.694  20.225  0.00  0.00    +0.000 A 
ATOM      3  N   UNL     1       2.536   6.552  19.524  0.00  0.00    +0.000 N 
ATOM      4  C   UNL     1       3.648   5.874  19.104  0.00  0.00    +0.000 A 
ATOM      5  N   UNL     1       4.611   6.366  18.308  0.00  0.00    +0.000 NA
ATOM      6  C   UNL     1       5.581   5.457  18.086  0.00  0.00    +0.000 A 
ATOM      7  N   UNL     1       5.680   4.210  18.581  0.00  0.00    +0.000 NA
ATOM      8  C   UNL     1       4.696   3.756  19.378  0.00  0.00    +0.000 A 
ATOM      9  N   UNL     1       4.807   2.464  19.862  0.00  0.00    +0.000 N 
ATOM     10  C   UNL     1       3.612   4.602  19.662  0.00  0.00    +0.000 A 
ATOM     11  H   UNL     1       5.760   2.131  19.845  0.00  0.00    +0.000 HD
ATOM     12  H   UNL     1       4.283   2.286  20.723  0.00  0.00    +0.000 HD
ENDROOT
BRANCH   1  14
ATOM     13  N   UNL     1       0.738   2.859  20.918  0.00  0.00    +0.000 N 
ATOM     14  C   UNL     1       1.968   3.372  21.220  0.00  0.00    +0.000 C 
ATOM     15  O   UNL     1       2.653   2.887  22.115  0.00  0.00    +0.000 OA
ATOM     16  H   UNL     1       0.472   2.014  21.397  0.00  0.00    +0.000 HD
ATOM     17  H   UNL     1       0.272   3.096  20.055  0.00  0.00    +0.000 HD
ENDBRANCH   1  14
BRANCH   3  18
ATOM     18  C   UNL     1       2.281   7.973  19.284  0.00  0.00    +0.000 C 
BRANCH  18  19
ATOM     19  C   UNL     1       2.021   8.213  17.786  0.00  0.00    +0.000 C 
BRANCH  19  20
ATOM     20  O   UNL     1       1.948   9.608  17.479  0.00  0.00    +0.000 OA
ATOM     21  H   UNL     1       2.606   9.773  16.779  0.00  0.00    +0.000 HD
ENDBRANCH  19  20
ENDBRANCH  18  19
BRANCH  18  22
ATOM     22  O   UNL     1       1.119   8.438  20.033  0.00  0.00    +0.000 OA
BRANCH  22  23
ATOM     23  C   UNL     1       1.368   9.494  20.996  0.00  0.00    +0.000 C 
BRANCH  23  24
ATOM     24  C   UNL     1       0.611  10.794  20.693  0.00  0.00    +0.000 C 
BRANCH  24  25
ATOM     25  O   UNL     1       1.270  11.940  21.224  0.00  0.00    +0.000 OA
ATOM     26  H   UNL     1       0.640  12.436  21.775  0.00  0.00    +0.000 HD
ENDBRANCH  24  25
ENDBRANCH  23  24
BRANCH  23  27
ATOM     27  C   UNL     1       0.961   8.951  22.376  0.00  0.00    +0.000 C 
BRANCH  27  28
ATOM     28  O   UNL     1       0.456  10.011  23.190  0.00  0.00    +0.000 OA
ATOM     29  H   UNL     1       1.220  10.582  23.388  0.00  0.00    +0.000 HD
ENDBRANCH  27  28
ENDBRANCH  23  27
ENDBRANCH  22  23
ENDBRANCH  18  22
ENDBRANCH   3  18
TORSDOF 10
ENDMDL
MODEL 2
REMARK VINA RESULT:      -6.4      3.512      5.904
REMARK  Name = 
REMARK  10 active torsions:
REMARK  status: ('A' for Active; 'I' for Inactive)
REMARK    1  A    between atoms: C_2  and  C_4
REMARK    2  A    between atoms: N_6  and  C_7
REMARK    3  A    between atoms: C_7  and  C_8
REMARK    4  A    between atoms: C_7  and  O_10
REMARK    5  A    between atoms: C_8  and  O_9
REMARK    6  A    between atoms: O_10  and  C_11
REMARK    7  A    between atoms: C_11  and  C_12
REMARK    8  A    between atoms: C_11  and  C_14
REMARK    9  A    between atoms: C_12  and  O_13
REMARK   10  A    between atoms: C_14  and  O_15
REMARK                            x       y       z     vdW  Elec       q    Type
REMARK                         _______ _______ _______ _____ _____    ______ ____
ROOT
ATOM      1  C   UNL     1       3.355   6.331  17.995  0.00  0.00    +0.000 A 
ATOM      2  C   UNL     1       4.424   6.500  17.127  0.00  0.00    +0.000 A 
ATOM      3  N   UNL     1       5.018   5.271  16.934  0.00  0.00    +0.000 N 
ATOM      4  C   UNL     1       4.250   4.299  17.515  0.00  0.00    +0.000 A 
ATOM      5  N   UNL     1       4.469   2.977  17.436  0.00  0.00    +0.000 NA
ATOM      6  C   UNL     1       3.544   2.281  18.126  0.00  0.00    +0.000 A 
ATOM      7  N   UNL     1       2.522   2.757  18.859  0.00  0.00    +0.000 NA
ATOM      8  C   UNL     1       2.339   4.089  18.916  0.00  0.00    +0.000 A 
ATOM      9  N   UNL     1       1.270   4.559  19.660  0.00  0.00    +0.000 N 
ATOM     10  C   UNL     1       3.223   4.923  18.212  0.00  0.00    +0.000 A 
ATOM     11  H   UNL     1       0.957   3.886  20.344  0.00  0.00    +0.000 HD
ATOM     12  H   UNL     1       1.373   5.522  19.990  0.00  0.00    +0.000 HD
ENDROOT
BRANCH   1  14
ATOM     13  N   UNL     1       2.131   8.363  17.733  0.00  0.00    +0.000 N 
ATOM     14  C   UNL     1       2.544   7.381  18.589  0.00  0.00    +0.000 C 
ATOM     15  O   UNL     1       2.226   7.398  19.773  0.00  0.00    +0.000 OA
ATOM     16  H   UNL     1       1.482   9.040  18.103  0.00  0.00    +0.000 HD
ATOM     17  H   UNL     1       2.192   8.244  16.734  0.00  0.00    +0.000 HD
ENDBRANCH   1  14
BRANCH   3  18
ATOM     18  C   UNL     1       6.286   5.035  16.241  0.00  0.00    +0.000 C 
BRANCH  18  19
ATOM     19  C   UNL     1       6.044   4.934  14.725  0.00  0.00    +0.000 C 
BRANCH  19  20
ATOM     20  O   UNL     1       6.389   3.642  14.219  0.00  0.00    +0.000 OA
ATOM     21  H   UNL     1       6.302   3.691  13.250  0.00  0.00    +0.000 HD
ENDBRANCH  19  20
ENDBRANCH  18  19
BRANCH  18  22
ATOM     22  O   UNL     1       7.234   6.115  16.485  0.00  0.00    +0.000 OA
BRANCH  22  23
ATOM     23  C   UNL     1       7.209   6.690  17.818  0.00  0.00    +0.000 C 
BRANCH  23  24
ATOM     24  C   UNL     1       7.875   5.807  18.882  0.00  0.00    +0.000 C 
BRANCH  24  25
ATOM     25  O   UNL     1       6.941   5.311  19.835  0.00  0.00    +0.000 OA
ATOM     26  H   UNL     1       6.068   5.696  19.647  0.00  0.00    +0.000 HD
ENDBRANCH  24  25
ENDBRANCH  23  24
BRANCH  23  27
ATOM     27  C   UNL     1       7.921   8.051  17.734  0.00  0.00    +0.000 C 
BRANCH  27  28
ATOM     28  O   UNL     1       8.749   8.242  18.883  0.00  0.00    +0.000 OA
ATOM     29  H   UNL     1       8.902   9.202  18.946  0.00  0.00    +0.000 HD
ENDBRANCH  27  28
ENDBRANCH  23  27
ENDBRANCH  22  23
ENDBRANCH  18  22
ENDBRANCH   3  18
TORSDOF 10
ENDMDL
MODEL 3
REMARK VINA RESULT:      -6.4      3.284      5.894
REMARK  Name = 
REMARK  10 active torsions:
REMARK  status: ('A' for Active; 'I' for Inactive)
REMARK    1  A    between atoms: C_2  and  C_4
REMARK    2  A    between atoms: N_6  and  C_7
REMARK    3  A    between atoms: C_7  and  C_8
REMARK    4  A    between atoms: C_7  and  O_10
REMARK    5  A    between atoms: C_8  and  O_9
REMARK    6  A    between atoms: O_10  and  C_11
REMARK    7  A    between atoms: C_11  and  C_12
REMARK    8  A    between atoms: C_11  and  C_14
REMARK    9  A    between atoms: C_12  and  O_13
REMARK   10  A    between atoms: C_14  and  O_15
REMARK                            x       y       z     vdW  Elec       q    Type
REMARK                         _______ _______ _______ _____ _____    ______ ____
ROOT
ATOM      1  C   UNL     1       5.780   4.651  16.983  0.00  0.00    +0.000 A 
ATOM      2  C   UNL     1       4.902   3.593  17.169  0.00  0.00    +0.000 A 
ATOM      3  N   UNL     1       3.721   4.098  17.671  0.00  0.00    +0.000 N 
ATOM      4  C   UNL     1       3.764   5.465  17.642  0.00  0.00    +0.000 A 
ATOM      5  N   UNL     1       2.750   6.287  17.959  0.00  0.00    +0.000 NA
ATOM      6  C   UNL     1       3.108   7.581  17.845  0.00  0.00    +0.000 A 
ATOM      7  N   UNL     1       4.308   8.084  17.503  0.00  0.00    +0.000 NA
ATOM      8  C   UNL     1       5.300   7.226  17.197  0.00  0.00    +0.000 A 
ATOM      9  N   UNL     1       6.522   7.763  16.830  0.00  0.00    +0.000 N 
ATOM     10  C   UNL     1       5.041   5.847  17.251  0.00  0.00    +0.000 A 
ATOM     11  H   UNL     1       6.635   8.711  17.158  0.00  0.00    +0.000 HD
ATOM     12  H   UNL     1       7.320   7.139  16.973  0.00  0.00    +0.000 HD
ENDROOT
BRANCH   1  14
ATOM     13  N   UNL     1       8.033   4.187  17.617  0.00  0.00    +0.000 N 
ATOM     14  C   UNL     1       7.182   4.562  16.615  0.00  0.00    +0.000 C 
ATOM     15  O   UNL     1       7.599   4.788  15.484  0.00  0.00    +0.000 OA
ATOM     16  H   UNL     1       8.991   4.017  17.356  0.00  0.00    +0.000 HD
ATOM     17  H   UNL     1       7.684   3.785  18.474  0.00  0.00    +0.000 HD
ENDBRANCH   1  14
BRANCH   3  18
ATOM     18  C   UNL     1       2.602   3.305  18.181  0.00  0.00    +0.000 C 
BRANCH  18  19
ATOM     19  C   UNL     1       2.638   1.892  17.571  0.00  0.00    +0.000 C 
BRANCH  19  20
ATOM     20  O   UNL     1       3.303   0.962  18.430  0.00  0.00    +0.000 OA
ATOM     21  H   UNL     1       2.653   0.268  18.642  0.00  0.00    +0.000 HD
ENDBRANCH  19  20
ENDBRANCH  18  19
BRANCH  18  22
ATOM     22  O   UNL     1       2.658   3.181  19.633  0.00  0.00    +0.000 OA
BRANCH  22  23
ATOM     23  C   UNL     1       1.402   3.375  20.334  0.00  0.00    +0.000 C 
BRANCH  23  24
ATOM     24  C   UNL     1       1.340   2.666  21.693  0.00  0.00    +0.000 C 
BRANCH  24  25
ATOM     25  O   UNL     1       2.626   2.525  22.290  0.00  0.00    +0.000 OA
ATOM     26  H   UNL     1       3.210   2.062  21.666  0.00  0.00    +0.000 HD
ENDBRANCH  24  25
ENDBRANCH  23  24
BRANCH  23  27
ATOM     27  C   UNL     1       1.216   4.891  20.516  0.00  0.00    +0.000 C 
BRANCH  27  28
ATOM     28  O   UNL     1       2.401   5.466  21.070  0.00  0.00    +0.000 OA
ATOM     29  H   UNL     1       3.136   4.899  20.774  0.00  0.00    +0.000 HD
ENDBRANCH  27  28
ENDBRANCH  23  27
ENDBRANCH  22  23
ENDBRANCH  18  22
ENDBRANCH   3  18
TORSDOF 10
ENDMDL
MODEL 4
REMARK VINA RESULT:      -6.3      3.508      5.924
REMARK  Name = 
REMARK  10 active torsions:
REMARK  status: ('A' for Active; 'I' for Inactive)
REMARK    1  A    between atoms: C_2  and  C_4
REMARK    2  A    between atoms: N_6  and  C_7
REMARK    3  A    between atoms: C_7  and  C_8
REMARK    4  A    between atoms: C_7  and  O_10
REMARK    5  A    between atoms: C_8  and  O_9
REMARK    6  A    between atoms: O_10  and  C_11
REMARK    7  A    between atoms: C_11  and  C_12
REMARK    8  A    between atoms: C_11  and  C_14
REMARK    9  A    between atoms: C_12  and  O_13
REMARK   10  A    between atoms: C_14  and  O_15
REMARK                            x       y       z     vdW  Elec       q    Type
REMARK                         _______ _______ _______ _____ _____    ______ ____
ROOT
ATOM      1  C   UNL     1       3.074   6.206  18.148  0.00  0.00    +0.000 A 
ATOM      2  C   UNL     1       4.056   6.318  17.174  0.00  0.00    +0.000 A 
ATOM      3  N   UNL     1       4.575   5.062  16.942  0.00  0.00    +0.000 N 
ATOM      4  C   UNL     1       3.829   4.131  17.613  0.00  0.00    +0.000 A 
ATOM      5  N   UNL     1       3.983   2.799  17.534  0.00  0.00    +0.000 NA
ATOM      6  C   UNL     1       3.104   2.153  18.324  0.00  0.00    +0.000 A 
ATOM      7  N   UNL     1       2.182   2.682  19.149  0.00  0.00    +0.000 NA
ATOM      8  C   UNL     1       2.062   4.021  19.202  0.00  0.00    +0.000 A 
ATOM      9  N   UNL     1       1.095   4.546  20.042  0.00  0.00    +0.000 N 
ATOM     10  C   UNL     1       2.905   4.807  18.400  0.00  0.00    +0.000 A 
ATOM     11  H   UNL     1       0.824   3.895  20.765  0.00  0.00    +0.000 HD
ATOM     12  H   UNL     1       1.272   5.507  20.345  0.00  0.00    +0.000 HD
ENDROOT
BRANCH   1  14
ATOM     13  N   UNL     1       1.946   8.302  17.983  0.00  0.00    +0.000 N 
ATOM     14  C   UNL     1       2.372   7.297  18.804  0.00  0.00    +0.000 C 
ATOM     15  O   UNL     1       2.153   7.329  20.010  0.00  0.00    +0.000 OA
ATOM     16  H   UNL     1       1.367   9.012  18.402  0.00  0.00    +0.000 HD
ATOM     17  H   UNL     1       1.918   8.182  16.981  0.00  0.00    +0.000 HD
ENDBRANCH   1  14
BRANCH   3  18
ATOM     18  C   UNL     1       5.755   4.762  16.130  0.00  0.00    +0.000 C 
BRANCH  18  19
ATOM     19  C   UNL     1       5.324   4.366  14.706  0.00  0.00    +0.000 C 
BRANCH  19  20
ATOM     20  O   UNL     1       6.269   3.485  14.094  0.00  0.00    +0.000 OA
ATOM     21  H   UNL     1       7.123   3.643  14.536  0.00  0.00    +0.000 HD
ENDBRANCH  19  20
ENDBRANCH  18  19
BRANCH  18  22
ATOM     22  O   UNL     1       6.643   5.915  16.038  0.00  0.00    +0.000 OA
BRANCH  22  23
ATOM     23  C   UNL     1       7.660   6.013  17.069  0.00  0.00    +0.000 C 
BRANCH  23  24
ATOM     24  C   UNL     1       7.475   7.216  18.004  0.00  0.00    +0.000 C 
BRANCH  24  25
ATOM     25  O   UNL     1       8.554   7.358  18.922  0.00  0.00    +0.000 OA
ATOM     26  H   UNL     1       8.621   8.292  19.184  0.00  0.00    +0.000 HD
ENDBRANCH  24  25
ENDBRANCH  23  24
BRANCH  23  27
ATOM     27  C   UNL     1       7.616   4.702  17.873  0.00  0.00    +0.000 C 
BRANCH  27  28
ATOM     28  O   UNL     1       7.250   4.972  19.228  0.00  0.00    +0.000 OA
ATOM     29  H   UNL     1       6.784   4.176  19.542  0.00  0.00    +0.000 HD
ENDBRANCH  27  28
ENDBRANCH  23  27
ENDBRANCH  22  23
ENDBRANCH  18  22
ENDBRANCH   3  18
TORSDOF 10
ENDMDL
MODEL 5
REMARK VINA RESULT:      -6.3      3.492      6.152
REMARK  Name = 
REMARK  10 active torsions:
REMARK  status: ('A' for Active; 'I' for Inactive)
REMARK    1  A    between atoms: C_2  and  C_4
REMARK    2  A    between atoms: N_6  and  C_7
REMARK    3  A    between atoms: C_7  and  C_8
REMARK    4  A    between atoms: C_7  and  O_10
REMARK    5  A    between atoms: C_8  and  O_9
REMARK    6  A    between atoms: O_10  and  C_11
REMARK    7  A    between atoms: C_11  and  C_12
REMARK    8  A    between atoms: C_11  and  C_14
REMARK    9  A    between atoms: C_12  and  O_13
REMARK   10  A    between atoms: C_14  and  O_15
REMARK                            x       y       z     vdW  Elec       q    Type
REMARK                         _______ _______ _______ _____ _____    ______ ____
ROOT
ATOM      1  C   UNL     1       5.339   4.399  16.269  0.00  0.00    +0.000 A 
ATOM      2  C   UNL     1       4.796   3.197  16.700  0.00  0.00    +0.000 A 
ATOM      3  N   UNL     1       3.846   3.475  17.659  0.00  0.00    +0.000 N 
ATOM      4  C   UNL     1       3.645   4.827  17.721  0.00  0.00    +0.000 A 
ATOM      5  N   UNL     1       2.719   5.448  18.470  0.00  0.00    +0.000 NA
ATOM      6  C   UNL     1       2.782   6.786  18.324  0.00  0.00    +0.000 A 
ATOM      7  N   UNL     1       3.645   7.502  17.582  0.00  0.00    +0.000 NA
ATOM      8  C   UNL     1       4.562   6.842  16.849  0.00  0.00    +0.000 A 
ATOM      9  N   UNL     1       5.429   7.596  16.078  0.00  0.00    +0.000 N 
ATOM     10  C   UNL     1       4.579   5.439  16.894  0.00  0.00    +0.000 A 
ATOM     11  H   UNL     1       5.504   8.547  16.407  0.00  0.00    +0.000 HD
ATOM     12  H   UNL     1       6.310   7.128  15.850  0.00  0.00    +0.000 HD
ENDROOT
BRANCH   1  14
ATOM     13  N   UNL     1       6.470   3.785  14.259  0.00  0.00    +0.000 N 
ATOM     14  C   UNL     1       6.474   4.570  15.378  0.00  0.00    +0.000 C 
ATOM     15  O   UNL     1       7.381   5.369  15.587  0.00  0.00    +0.000 OA
ATOM     16  H   UNL     1       7.191   3.965  13.579  0.00  0.00    +0.000 HD
ATOM     17  H   UNL     1       5.635   3.300  13.966  0.00  0.00    +0.000 HD
ENDBRANCH   1  14
BRANCH   3  18
ATOM     18  C   UNL     1       3.170   2.488  18.503  0.00  0.00    +0.000 C 
BRANCH  18  19
ATOM     19  C   UNL     1       3.646   1.071  18.137  0.00  0.00    +0.000 C 
BRANCH  19  20
ATOM     20  O   UNL     1       4.627   0.588  19.058  0.00  0.00    +0.000 OA
ATOM     21  H   UNL     1       4.504  -0.377  19.112  0.00  0.00    +0.000 HD
ENDBRANCH  19  20
ENDBRANCH  18  19
BRANCH  18  22
ATOM     22  O   UNL     1       3.450   2.717  19.915  0.00  0.00    +0.000 OA
BRANCH  22  23
ATOM     23  C   UNL     1       2.314   2.609  20.812  0.00  0.00    +0.000 C 
BRANCH  23  24
ATOM     24  C   UNL     1       2.254   3.723  21.866  0.00  0.00    +0.000 C 
BRANCH  24  25
ATOM     25  O   UNL     1       2.554   5.003  21.318  0.00  0.00    +0.000 OA
ATOM     26  H   UNL     1       3.335   4.922  20.744  0.00  0.00    +0.000 HD
ENDBRANCH  24  25
ENDBRANCH  23  24
BRANCH  23  27
ATOM     27  C   UNL     1       1.048   2.633  19.939  0.00  0.00    +0.000 C 
BRANCH  27  28
ATOM     28  O   UNL     1       0.364   3.877  20.103  0.00  0.00    +0.000 OA
ATOM     29  H   UNL     1      -0.475   3.787  19.616  0.00  0.00    +0.000 HD
ENDBRANCH  27  28
ENDBRANCH  23  27
ENDBRANCH  22  23
ENDBRANCH  18  22
ENDBRANCH   3  18
TORSDOF 10
ENDMDL
MODEL 6
REMARK VINA RESULT:      -6.3      3.043      5.573
REMARK  Name = 
REMARK  10 active torsions:
REMARK  status: ('A' for Active; 'I' for Inactive)
REMARK    1  A    between atoms: C_2  and  C_4
REMARK    2  A    between atoms: N_6  and  C_7
REMARK    3  A    between atoms: C_7  and  C_8
REMARK    4  A    between atoms: C_7  and  O_10
REMARK    5  A    between atoms: C_8  and  O_9
REMARK    6  A    between atoms: O_10  and  C_11
REMARK    7  A    between atoms: C_11  and  C_12
REMARK    8  A    between atoms: C_11  and  C_14
REMARK    9  A    between atoms: C_12  and  O_13
REMARK   10  A    between atoms: C_14  and  O_15
REMARK                            x       y       z     vdW  Elec       q    Type
REMARK                         _______ _______ _______ _____ _____    ______ ____
ROOT
ATOM      1  C   UNL     1       6.754   5.111  18.618  0.00  0.00    +0.000 A 
ATOM      2  C   UNL     1       5.940   4.204  19.280  0.00  0.00    +0.000 A 
ATOM      3  N   UNL     1       4.969   3.777  18.400  0.00  0.00    +0.000 N 
ATOM      4  C   UNL     1       5.250   4.253  17.148  0.00  0.00    +0.000 A 
ATOM      5  N   UNL     1       4.577   3.952  16.026  0.00  0.00    +0.000 NA
ATOM      6  C   UNL     1       5.089   4.591  14.956  0.00  0.00    +0.000 A 
ATOM      7  N   UNL     1       6.113   5.463  14.919  0.00  0.00    +0.000 NA
ATOM      8  C   UNL     1       6.759   5.742  16.067  0.00  0.00    +0.000 A 
ATOM      9  N   UNL     1       7.822   6.627  16.006  0.00  0.00    +0.000 N 
ATOM     10  C   UNL     1       6.336   5.114  17.250  0.00  0.00    +0.000 A 
ATOM     11  H   UNL     1       7.778   7.219  15.189  0.00  0.00    +0.000 HD
ATOM     12  H   UNL     1       8.035   7.096  16.890  0.00  0.00    +0.000 HD
ENDROOT
BRANCH   1  14
ATOM     13  N   UNL     1       8.446   5.371  20.281  0.00  0.00    +0.000 N 
ATOM     14  C   UNL     1       7.809   5.921  19.205  0.00  0.00    +0.000 C 
ATOM     15  O   UNL     1       8.134   7.022  18.773  0.00  0.00    +0.000 OA
ATOM     16  H   UNL     1       9.248   5.868  20.634  0.00  0.00    +0.000 HD
ATOM     17  H   UNL     1       8.347   4.391  20.501  0.00  0.00    +0.000 HD
ENDBRANCH   1  14
BRANCH   3  18
ATOM     18  C   UNL     1       3.801   2.965  18.743  0.00  0.00    +0.000 C 
BRANCH  18  19
ATOM     19  C   UNL     1       4.025   2.273  20.100  0.00  0.00    +0.000 C 
BRANCH  19  20
ATOM     20  O   UNL     1       5.060   1.289  20.028  0.00  0.00    +0.000 OA
ATOM     21  H   UNL     1       4.640   0.430  20.215  0.00  0.00    +0.000 HD
ENDBRANCH  19  20
ENDBRANCH  18  19
BRANCH  18  22
ATOM     22  O   UNL     1       2.596   3.779  18.836  0.00  0.00    +0.000 OA
BRANCH  22  23
ATOM     23  C   UNL     1       2.555   4.728  19.932  0.00  0.00    +0.000 C 
BRANCH  23  24
ATOM     24  C   UNL     1       2.656   6.193  19.484  0.00  0.00    +0.000 C 
BRANCH  24  25
ATOM     25  O   UNL     1       2.206   7.098  20.487  0.00  0.00    +0.000 OA
ATOM     26  H   UNL     1       2.910   7.205  21.149  0.00  0.00    +0.000 HD
ENDBRANCH  24  25
ENDBRANCH  23  24
BRANCH  23  27
ATOM     27  C   UNL     1       1.234   4.492  20.685  0.00  0.00    +0.000 C 
BRANCH  27  28
ATOM     28  O   UNL     1       0.502   3.432  20.067  0.00  0.00    +0.000 OA
ATOM     29  H   UNL     1       0.758   2.620  20.541  0.00  0.00    +0.000 HD
ENDBRANCH  27  28
ENDBRANCH  23  27
ENDBRANCH  22  23
ENDBRANCH  18  22
ENDBRANCH   3  18
TORSDOF 10
ENDMDL
MODEL 7
REMARK VINA RESULT:      -6.3      2.767      5.621
REMARK  Name = 
REMARK  10 active torsions:
REMARK  status: ('A' for Active; 'I' for Inactive)
REMARK    1  A    between atoms: C_2  and  C_4
REMARK    2  A    between atoms: N_6  and  C_7
REMARK    3  A    between atoms: C_7  and  C_8
REMARK    4  A    between atoms: C_7  and  O_10
REMARK    5  A    between atoms: C_8  and  O_9
REMARK    6  A    between atoms: O_10  and  C_11
REMARK    7  A    between atoms: C_11  and  C_12
REMARK    8  A    between atoms: C_11  and  C_14
REMARK    9  A    between atoms: C_12  and  O_13
REMARK   10  A    between atoms: C_14  and  O_15
REMARK                            x       y       z     vdW  Elec       q    Type
REMARK                         _______ _______ _______ _____ _____    ______ ____
ROOT
ATOM      1  C   UNL     1       6.671   5.868  17.979  0.00  0.00    +0.000 A 
ATOM      2  C   UNL     1       5.922   5.395  19.046  0.00  0.00    +0.000 A 
ATOM      3  N   UNL     1       5.052   4.437  18.569  0.00  0.00    +0.000 N 
ATOM      4  C   UNL     1       5.351   4.163  17.262  0.00  0.00    +0.000 A 
ATOM      5  N   UNL     1       4.777   3.210  16.511  0.00  0.00    +0.000 NA
ATOM      6  C   UNL     1       5.277   3.198  15.260  0.00  0.00    +0.000 A 
ATOM      7  N   UNL     1       6.203   4.016  14.728  0.00  0.00    +0.000 NA
ATOM      8  C   UNL     1       6.751   4.962  15.512  0.00  0.00    +0.000 A 
ATOM      9  N   UNL     1       7.715   5.782  14.952  0.00  0.00    +0.000 N 
ATOM     10  C   UNL     1       6.332   5.057  16.849  0.00  0.00    +0.000 A 
ATOM     11  H   UNL     1       7.655   5.807  13.944  0.00  0.00    +0.000 HD
ATOM     12  H   UNL     1       7.828   6.686  15.418  0.00  0.00    +0.000 HD
ENDROOT
BRANCH   1  14
ATOM     13  N   UNL     1       8.452   7.028  19.063  0.00  0.00    +0.000 N 
ATOM     14  C   UNL     1       7.600   6.986  17.996  0.00  0.00    +0.000 C 
ATOM     15  O   UNL     1       7.644   7.840  17.117  0.00  0.00    +0.000 OA
ATOM     16  H   UNL     1       9.172   7.733  19.038  0.00  0.00    +0.000 HD
ATOM     17  H   UNL     1       8.579   6.226  19.662  0.00  0.00    +0.000 HD
ENDBRANCH   1  14
BRANCH   3  18
ATOM     18  C   UNL     1       3.961   3.823  19.326  0.00  0.00    +0.000 C 
BRANCH  18  19
ATOM     19  C   UNL     1       4.411   2.462  19.886  0.00  0.00    +0.000 C 
BRANCH  19  20
ATOM     20  O   UNL     1       4.197   1.406  18.946  0.00  0.00    +0.000 OA
ATOM     21  H   UNL     1       5.074   1.168  18.592  0.00  0.00    +0.000 HD
ENDBRANCH  19  20
ENDBRANCH  18  19
BRANCH  18  22
ATOM     22  O   UNL     1       3.547   4.666  20.441  0.00  0.00    +0.000 OA
BRANCH  22  23
ATOM     23  C   UNL     1       2.221   5.245  20.340  0.00  0.00    +0.000 C 
BRANCH  23  24
ATOM     24  C   UNL     1       2.211   6.661  19.748  0.00  0.00    +0.000 C 
BRANCH  24  25
ATOM     25  O   UNL     1       2.064   7.664  20.749  0.00  0.00    +0.000 OA
ATOM     26  H   UNL     1       2.776   7.561  21.402  0.00  0.00    +0.000 HD
ENDBRANCH  24  25
ENDBRANCH  23  24
BRANCH  23  27
ATOM     27  C   UNL     1       1.381   4.297  19.465  0.00  0.00    +0.000 C 
BRANCH  27  28
ATOM     28  O   UNL     1       0.502   3.525  20.286  0.00  0.00    +0.000 OA
ATOM     29  H   UNL     1       0.107   4.152  20.917  0.00  0.00    +0.000 HD
ENDBRANCH  27  28
ENDBRANCH  23  27
ENDBRANCH  22  23
ENDBRANCH  18  22
ENDBRANCH   3  18
TORSDOF 10
ENDMDL
MODEL 8
REMARK VINA RESULT:      -6.3      2.953      5.851
REMARK  Name = 
REMARK  10 active torsions:
REMARK  status: ('A' for Active; 'I' for Inactive)
REMARK    1  A    between atoms: C_2  and  C_4
REMARK    2  A    between atoms: N_6  and  C_7
REMARK    3  A    between atoms: C_7  and  C_8
REMARK    4  A    between atoms: C_7  and  O_10
REMARK    5  A    between atoms: C_8  and  O_9
REMARK    6  A    between atoms: O_10  and  C_11
REMARK    7  A    between atoms: C_11  and  C_12
REMARK    8  A    between atoms: C_11  and  C_14
REMARK    9  A    between atoms: C_12  and  O_13
REMARK   10  A    between atoms: C_14  and  O_15
REMARK                            x       y       z     vdW  Elec       q    Type
REMARK                         _______ _______ _______ _____ _____    ______ ____
ROOT
ATOM      1  C   UNL     1       6.701   5.894  17.870  0.00  0.00    +0.000 A 
ATOM      2  C   UNL     1       5.904   5.388  18.886  0.00  0.00    +0.000 A 
ATOM      3  N   UNL     1       5.068   4.436  18.343  0.00  0.00    +0.000 N 
ATOM      4  C   UNL     1       5.434   4.197  17.046  0.00  0.00    +0.000 A 
ATOM      5  N   UNL     1       4.906   3.259  16.244  0.00  0.00    +0.000 NA
ATOM      6  C   UNL     1       5.469   3.283  15.019  0.00  0.00    +0.000 A 
ATOM      7  N   UNL     1       6.412   4.122  14.554  0.00  0.00    +0.000 NA
ATOM      8  C   UNL     1       6.911   5.052  15.389  0.00  0.00    +0.000 A 
ATOM      9  N   UNL     1       7.895   5.893  14.897  0.00  0.00    +0.000 N 
ATOM     10  C   UNL     1       6.426   5.109  16.705  0.00  0.00    +0.000 A 
ATOM     11  H   UNL     1       7.884   5.943  13.889  0.00  0.00    +0.000 HD
ATOM     12  H   UNL     1       7.975   6.786  15.391  0.00  0.00    +0.000 HD
ENDROOT
BRANCH   1  14
ATOM     13  N   UNL     1       8.433   7.027  19.057  0.00  0.00    +0.000 N 
ATOM     14  C   UNL     1       7.616   7.018  17.962  0.00  0.00    +0.000 C 
ATOM     15  O   UNL     1       7.681   7.906  17.118  0.00  0.00    +0.000 OA
ATOM     16  H   UNL     1       9.145   7.739  19.083  0.00  0.00    +0.000 HD
ATOM     17  H   UNL     1       8.548   6.203  19.628  0.00  0.00    +0.000 HD
ENDBRANCH   1  14
BRANCH   3  18
ATOM     18  C   UNL     1       3.946   3.793  19.028  0.00  0.00    +0.000 C 
BRANCH  18  19
ATOM     19  C   UNL     1       4.411   2.476  19.676  0.00  0.00    +0.000 C 
BRANCH  19  20
ATOM     20  O   UNL     1       4.246   1.365  18.791  0.00  0.00    +0.000 OA
ATOM     21  H   UNL     1       4.248   1.728  17.887  0.00  0.00    +0.000 HD
ENDBRANCH  19  20
ENDBRANCH  18  19
BRANCH  18  22
ATOM     22  O   UNL     1       3.399   4.652  20.072  0.00  0.00    +0.000 OA
BRANCH  22  23
ATOM     23  C   UNL     1       1.952   4.693  20.165  0.00  0.00    +0.000 C 
BRANCH  23  24
ATOM     24  C   UNL     1       1.356   3.552  21.002  0.00  0.00    +0.000 C 
BRANCH  24  25
ATOM     25  O   UNL     1       2.102   3.306  22.190  0.00  0.00    +0.000 OA
ATOM     26  H   UNL     1       3.010   3.628  22.061  0.00  0.00    +0.000 HD
ENDBRANCH  24  25
ENDBRANCH  23  24
BRANCH  23  27
ATOM     27  C   UNL     1       1.578   6.053  20.778  0.00  0.00    +0.000 C 
BRANCH  27  28
ATOM     28  O   UNL     1       2.457   7.068  20.291  0.00  0.00    +0.000 OA
ATOM     29  H   UNL     1       1.954   7.901  20.334  0.00  0.00    +0.000 HD
ENDBRANCH  27  28
ENDBRANCH  23  27
ENDBRANCH  22  23
ENDBRANCH  18  22
ENDBRANCH   3  18
TORSDOF 10
ENDMDL
MODEL 9
REMARK VINA RESULT:      -6.3      3.344      5.895
REMARK  Name = 
REMARK  10 active torsions:
REMARK  status: ('A' for Active; 'I' for Inactive)
REMARK    1  A    between atoms: C_2  and  C_4
REMARK    2  A    between atoms: N_6  and  C_7
REMARK    3  A    between atoms: C_7  and  C_8
REMARK    4  A    between atoms: C_7  and  O_10
REMARK    5  A    between atoms: C_8  and  O_9
REMARK    6  A    between atoms: O_10  and  C_11
REMARK    7  A    between atoms: C_11  and  C_12
REMARK    8  A    between atoms: C_11  and  C_14
REMARK    9  A    between atoms: C_12  and  O_13
REMARK   10  A    between atoms: C_14  and  O_15
REMARK                            x       y       z     vdW  Elec       q    Type
REMARK                         _______ _______ _______ _____ _____    ______ ____
ROOT
ATOM      1  C   UNL     1       3.494   6.215  18.304  0.00  0.00    +0.000 A 
ATOM      2  C   UNL     1       4.359   6.043  17.234  0.00  0.00    +0.000 A 
ATOM      3  N   UNL     1       5.049   4.865  17.425  0.00  0.00    +0.000 N 
ATOM      4  C   UNL     1       4.519   4.197  18.495  0.00  0.00    +0.000 A 
ATOM      5  N   UNL     1       4.874   2.969  18.906  0.00  0.00    +0.000 NA
ATOM      6  C   UNL     1       4.178   2.592  19.997  0.00  0.00    +0.000 A 
ATOM      7  N   UNL     1       3.257   3.296  20.680  0.00  0.00    +0.000 NA
ATOM      8  C   UNL     1       2.932   4.525  20.238  0.00  0.00    +0.000 A 
ATOM      9  N   UNL     1       1.969   5.227  20.942  0.00  0.00    +0.000 N 
ATOM     10  C   UNL     1       3.569   5.020  19.088  0.00  0.00    +0.000 A 
ATOM     11  H   UNL     1       1.867   4.889  21.888  0.00  0.00    +0.000 HD
ATOM     12  H   UNL     1       2.017   6.243  20.830  0.00  0.00    +0.000 HD
ENDROOT
BRANCH   1  14
ATOM     13  N   UNL     1       2.294   8.114  17.498  0.00  0.00    +0.000 N 
ATOM     14  C   UNL     1       2.687   7.390  18.588  0.00  0.00    +0.000 C 
ATOM     15  O   UNL     1       2.355   7.722  19.722  0.00  0.00    +0.000 OA
ATOM     16  H   UNL     1       1.647   8.868  17.667  0.00  0.00    +0.000 HD
ATOM     17  H   UNL     1       2.364   7.734  16.566  0.00  0.00    +0.000 HD
ENDBRANCH   1  14
BRANCH   3  18
ATOM     18  C   UNL     1       6.188   4.403  16.631  0.00  0.00    +0.000 C 
BRANCH  18  19
ATOM     19  C   UNL     1       5.886   4.573  15.131  0.00  0.00    +0.000 C 
BRANCH  19  20
ATOM     20  O   UNL     1       6.714   5.574  14.535  0.00  0.00    +0.000 OA
ATOM     21  H   UNL     1       6.531   6.405  15.010  0.00  0.00    +0.000 HD
ENDBRANCH  19  20
ENDBRANCH  18  19
BRANCH  18  22
ATOM     22  O   UNL     1       7.395   5.158  16.945  0.00  0.00    +0.000 OA
BRANCH  22  23
ATOM     23  C   UNL     1       7.373   5.896  18.194  0.00  0.00    +0.000 C 
BRANCH  23  24
ATOM     24  C   UNL     1       8.305   5.319  19.268  0.00  0.00    +0.000 C 
BRANCH  24  25
ATOM     25  O   UNL     1       7.849   5.598  20.588  0.00  0.00    +0.000 OA
ATOM     26  H   UNL     1       7.430   6.476  20.595  0.00  0.00    +0.000 HD
ENDBRANCH  24  25
ENDBRANCH  23  24
BRANCH  23  27
ATOM     27  C   UNL     1       7.771   7.346  17.868  0.00  0.00    +0.000 C 
BRANCH  27  28
ATOM     28  O   UNL     1       8.648   7.852  18.876  0.00  0.00    +0.000 OA
ATOM     29  H   UNL     1       8.188   7.714  19.724  0.00  0.00    +0.000 HD
ENDBRANCH  27  28
ENDBRANCH  23  27
ENDBRANCH  22  23
ENDBRANCH  18  22
ENDBRANCH   3  18
TORSDOF 10
ENDMDL
