MODEL 1
REMARK VINA RESULT:      -6.6      0.000      0.000
REMARK  Name = 
REMARK  14 active torsions:
REMARK  status: ('A' for Active; 'I' for Inactive)
REMARK    1  A    between atoms: C_1  and  C_2
REMARK    2  A    between atoms: N_4  and  CA_5
REMARK    3  A    between atoms: CA_5  and  CB_6
REMARK    4  A    between atoms: CA_5  and  C_11
REMARK    5  A    between atoms: CB_6  and  CG_7
REMARK    6  A    between atoms: CG_7  and  CD_8
REMARK    7  A    between atoms: CD_8  and  CE_9
REMARK    8  A    between atoms: CE_9  and  NZ_10
REMARK    9  A    between atoms: N_13  and  CA_14
REMARK   10  A    between atoms: CA_14  and  C_15
REMARK   11  A    between atoms: CA_14  and  CB_17
REMARK   12  A    between atoms: CB_17  and  CG_18
REMARK   13  A    between atoms: CG_18  and  CD_19
REMARK   14  A    between atoms: CD_19  and  NE_20
REMARK                            x       y       z     vdW  Elec       q    Type
REMARK                         _______ _______ _______ _____ _____    ______ ____
ROOT
ATOM      1  C   LYS A   1       3.901   5.331  17.793  0.00  0.00    +0.000 C 
ATOM      2  O   LYS A   1       3.026   4.620  17.304  0.00  0.00    +0.000 OA
ATOM      3  N   ARG A   2       3.675   6.029  18.963  0.00  0.00    +0.000 N 
ATOM      4  H   ARG A   2       4.228   6.873  19.087  0.00  0.00    +0.000 HD
ENDROOT
BRANCH   1   5
ATOM      5  CA  LYS A   1       5.310   5.488  17.163  0.00  0.00    +0.000 C 
BRANCH   5   9
ATOM      6  C   UNK A   0       8.117   7.713  18.435  0.00  0.00    +0.000 C 
ATOM      7  C   UNK A   0       7.343   6.875  17.455  0.00  0.00    +0.000 C 
ATOM      8  O   UNK A   0       7.721   6.691  16.305  0.00  0.00    +0.000 OA
ATOM      9  N   LYS A   1       6.152   6.393  17.955  0.00  0.00    +0.000 N 
ATOM     10  H   LYS A   1       6.023   6.399  18.960  0.00  0.00    +0.000 HD
ENDBRANCH   5   9
BRANCH   5  11
ATOM     11  CB  LYS A   1       6.037   4.141  16.980  0.00  0.00    +0.000 C 
BRANCH  11  12
ATOM     12  CG  LYS A   1       5.757   3.482  15.629  0.00  0.00    +0.000 C 
BRANCH  12  13
ATOM     13  CD  LYS A   1       5.546   4.485  14.493  0.00  0.00    +0.000 C 
BRANCH  13  14
ATOM     14  CE  LYS A   1       6.721   4.395  13.516  0.00  0.00    +0.000 C 
BRANCH  14  15
ATOM     15  NZ  LYS A   1       7.740   5.389  13.825  0.00  0.00    +0.000 NA
ATOM     16  HZ1 LYS A   1       7.496   6.276  13.388  0.00  0.00    +0.000 HD
ATOM     17  HZ2 LYS A   1       8.621   5.098  13.400  0.00  0.00    +0.000 HD
ENDBRANCH  14  15
ENDBRANCH  13  14
ENDBRANCH  12  13
ENDBRANCH  11  12
ENDBRANCH   5  11
ENDBRANCH   1   5
BRANCH   3  18
ATOM     18  CA  ARG A   2       2.330   6.066  19.533  0.00  0.00    +0.000 C 
BRANCH  18  19
ATOM     19  C   ARG A   2       2.074   7.468  20.075  0.00  0.00    +0.000 C 
ATOM     20  O   ARG A   2       1.318   7.703  21.014  0.00  0.00    +0.000 OA
ENDBRANCH  18  19
BRANCH  18  21
ATOM     21  CB  ARG A   2       2.130   5.012  20.638  0.00  0.00    +0.000 C 
BRANCH  21  22
ATOM     22  CG  ARG A   2       1.018   3.990  20.350  0.00  0.00    +0.000 C 
BRANCH  22  23
ATOM     23  CD  ARG A   2       1.574   2.633  19.924  0.00  0.00    +0.000 C 
BRANCH  23  24
ATOM     24  NE  ARG A   2       2.959   2.485  20.317  0.00  0.00    +0.000 N 
ATOM     25  CZ  ARG A   2       3.910   2.064  19.452  0.00  0.00    +0.000 C 
ATOM     26  NH1 ARG A   2       3.768   1.658  18.246  0.00  0.00    +0.000 NA
ATOM     27  NH2 ARG A   2       5.135   2.071  20.005  0.00  0.00    +0.000 N 
ATOM     28  HE  ARG A   2       3.306   3.217  20.929  0.00  0.00    +0.000 HD
ATOM     29  HH1 ARG A   2       2.791   1.720  17.962  0.00  0.00    +0.000 HD
ATOM     30 HH21 ARG A   2       5.153   1.627  20.913  0.00  0.00    +0.000 HD
ATOM     31 HH22 ARG A   2       5.780   1.603  19.372  0.00  0.00    +0.000 HD
ENDBRANCH  23  24
ENDBRANCH  22  23
ENDBRANCH  21  22
ENDBRANCH  18  21
ENDBRANCH   3  18
TORSDOF 13
ENDMDL
MODEL 2
REMARK VINA RESULT:      -6.5      0.987      1.038
REMARK  Name = 
REMARK  14 active torsions:
REMARK  status: ('A' for Active; 'I' for Inactive)
REMARK    1  A    between atoms: C_1  and  C_2
REMARK    2  A    between atoms: N_4  and  CA_5
REMARK    3  A    between atoms: CA_5  and  CB_6
REMARK    4  A    between atoms: CA_5  and  C_11
REMARK    5  A    between atoms: CB_6  and  CG_7
REMARK    6  A    between atoms: CG_7  and  CD_8
REMARK    7  A    between atoms: CD_8  and  CE_9
REMARK    8  A    between atoms: CE_9  and  NZ_10
REMARK    9  A    between atoms: N_13  and  CA_14
REMARK   10  A    between atoms: CA_14  and  C_15
REMARK   11  A    between atoms: CA_14  and  CB_17
REMARK   12  A    between atoms: CB_17  and  CG_18
REMARK   13  A    between atoms: CG_18  and  CD_19
REMARK   14  A    between atoms: CD_19  and  NE_20
REMARK                            x       y       z     vdW  Elec       q    Type
REMARK                         _______ _______ _______ _____ _____    ______ ____
ROOT
ATOM      1  C   LYS A   1       3.530   5.322  17.843  0.00  0.00    +0.000 C 
ATOM      2  O   LYS A   1       2.597   4.640  17.425  0.00  0.00    +0.000 OA
ATOM      3  N   ARG A   2       3.409   6.047  19.012  0.00  0.00    +0.000 N 
ATOM      4  H   ARG A   2       4.002   6.870  19.085  0.00  0.00    +0.000 HD
ENDROOT
BRANCH   1   5
ATOM      5  CA  LYS A   1       4.900   5.410  17.121  0.00  0.00    +0.000 C 
BRANCH   5   9
ATOM      6  C   UNK A   0       8.119   6.574  18.774  0.00  0.00    +0.000 C 
ATOM      7  C   UNK A   0       7.058   6.476  17.714  0.00  0.00    +0.000 C 
ATOM      8  O   UNK A   0       7.125   7.093  16.657  0.00  0.00    +0.000 OA
ATOM      9  N   LYS A   1       5.987   5.683  18.069  0.00  0.00    +0.000 N 
ATOM     10  H   LYS A   1       6.109   5.043  18.846  0.00  0.00    +0.000 HD
ENDBRANCH   5   9
BRANCH   5  11
ATOM     11  CB  LYS A   1       5.233   4.140  16.313  0.00  0.00    +0.000 C 
BRANCH  11  12
ATOM     12  CG  LYS A   1       5.256   4.375  14.802  0.00  0.00    +0.000 C 
BRANCH  12  13
ATOM     13  CD  LYS A   1       6.605   4.055  14.156  0.00  0.00    +0.000 C 
BRANCH  13  14
ATOM     14  CE  LYS A   1       6.417   3.902  12.644  0.00  0.00    +0.000 C 
BRANCH  14  15
ATOM     15  NZ  LYS A   1       6.239   2.505  12.273  0.00  0.00    +0.000 NA
ATOM     16  HZ1 LYS A   1       5.969   1.966  13.095  0.00  0.00    +0.000 HD
ATOM     17  HZ2 LYS A   1       7.137   2.129  11.971  0.00  0.00    +0.000 HD
ENDBRANCH  14  15
ENDBRANCH  13  14
ENDBRANCH  12  13
ENDBRANCH  11  12
ENDBRANCH   5  11
ENDBRANCH   1   5
BRANCH   3  18
ATOM     18  CA  ARG A   2       2.106   6.150  19.667  0.00  0.00    +0.000 C 
BRANCH  18  19
ATOM     19  C   ARG A   2       1.914   7.586  20.139  0.00  0.00    +0.000 C 
ATOM     20  O   ARG A   2       1.339   7.886  21.182  0.00  0.00    +0.000 OA
ENDBRANCH  18  19
BRANCH  18  21
ATOM     21  CB  ARG A   2       1.961   5.168  20.844  0.00  0.00    +0.000 C 
BRANCH  21  22
ATOM     22  CG  ARG A   2       1.100   3.931  20.541  0.00  0.00    +0.000 C 
BRANCH  22  23
ATOM     23  CD  ARG A   2       1.753   2.637  21.025  0.00  0.00    +0.000 C 
BRANCH  23  24
ATOM     24  NE  ARG A   2       3.170   2.621  20.729  0.00  0.00    +0.000 N 
ATOM     25  CZ  ARG A   2       3.653   2.152  19.556  0.00  0.00    +0.000 C 
ATOM     26  NH1 ARG A   2       3.015   1.593  18.597  0.00  0.00    +0.000 NA
ATOM     27  NH2 ARG A   2       4.985   2.300  19.462  0.00  0.00    +0.000 N 
ATOM     28  HE  ARG A   2       3.678   3.442  21.043  0.00  0.00    +0.000 HD
ATOM     29  HH1 ARG A   2       2.017   1.561  18.804  0.00  0.00    +0.000 HD
ATOM     30 HH21 ARG A   2       5.470   1.974  20.287  0.00  0.00    +0.000 HD
ATOM     31 HH22 ARG A   2       5.311   1.796  18.640  0.00  0.00    +0.000 HD
ENDBRANCH  23  24
ENDBRANCH  22  23
ENDBRANCH  21  22
ENDBRANCH  18  21
ENDBRANCH   3  18
TORSDOF 13
ENDMDL
MODEL 3
REMARK VINA RESULT:      -6.2      1.953      6.141
REMARK  Name = 
REMARK  14 active torsions:
REMARK  status: ('A' for Active; 'I' for Inactive)
REMARK    1  A    between atoms: C_1  and  C_2
REMARK    2  A    between atoms: N_4  and  CA_5
REMARK    3  A    between atoms: CA_5  and  CB_6
REMARK    4  A    between atoms: CA_5  and  C_11
REMARK    5  A    between atoms: CB_6  and  CG_7
REMARK    6  A    between atoms: CG_7  and  CD_8
REMARK    7  A    between atoms: CD_8  and  CE_9
REMARK    8  A    between atoms: CE_9  and  NZ_10
REMARK    9  A    between atoms: N_13  and  CA_14
REMARK   10  A    between atoms: CA_14  and  C_15
REMARK   11  A    between atoms: CA_14  and  CB_17
REMARK   12  A    between atoms: CB_17  and  CG_18
REMARK   13  A    between atoms: CG_18  and  CD_19
REMARK   14  A    between atoms: CD_19  and  NE_20
REMARK                            x       y       z     vdW  Elec       q    Type
REMARK                         _______ _______ _______ _____ _____    ______ ____
ROOT
ATOM      1  C   LYS A   1       4.279   5.090  18.785  0.00  0.00    +0.000 C 
ATOM      2  O   LYS A   1       4.401   3.874  18.922  0.00  0.00    +0.000 OA
ATOM      3  N   ARG A   2       5.273   5.840  18.191  0.00  0.00    +0.000 N 
ATOM      4  H   ARG A   2       5.315   6.818  18.469  0.00  0.00    +0.000 HD
ENDROOT
BRANCH   1   5
ATOM      5  CA  LYS A   1       3.015   5.866  19.242  0.00  0.00    +0.000 C 
BRANCH   5   9
ATOM      6  C   UNK A   0       1.864   9.222  17.879  0.00  0.00    +0.000 C 
ATOM      7  C   UNK A   0       2.072   8.131  18.892  0.00  0.00    +0.000 C 
ATOM      8  O   UNK A   0       1.680   8.224  20.049  0.00  0.00    +0.000 OA
ATOM      9  N   LYS A   1       2.791   7.057  18.413  0.00  0.00    +0.000 N 
ATOM     10  H   LYS A   1       2.881   6.956  17.408  0.00  0.00    +0.000 HD
ENDBRANCH   5   9
BRANCH   5  11
ATOM     11  CB  LYS A   1       1.744   4.994  19.239  0.00  0.00    +0.000 C 
BRANCH  11  12
ATOM     12  CG  LYS A   1       1.516   4.255  20.558  0.00  0.00    +0.000 C 
BRANCH  12  13
ATOM     13  CD  LYS A   1       0.922   2.856  20.379  0.00  0.00    +0.000 C 
BRANCH  13  14
ATOM     14  CE  LYS A   1       1.140   2.397  18.935  0.00  0.00    +0.000 C 
BRANCH  14  15
ATOM     15  NZ  LYS A   1       2.318   1.549  18.824  0.00  0.00    +0.000 NA
ATOM     16  HZ1 LYS A   1       2.733   1.659  17.900  0.00  0.00    +0.000 HD
ATOM     17  HZ2 LYS A   1       2.027   0.573  18.888  0.00  0.00    +0.000 HD
ENDBRANCH  14  15
ENDBRANCH  13  14
ENDBRANCH  12  13
ENDBRANCH  11  12
ENDBRANCH   5  11
ENDBRANCH   1   5
BRANCH   3  18
ATOM     18  CA  ARG A   2       6.560   5.218  17.881  0.00  0.00    +0.000 C 
BRANCH  18  19
ATOM     19  C   ARG A   2       7.578   5.670  18.921  0.00  0.00    +0.000 C 
ATOM     20  O   ARG A   2       7.488   5.404  20.117  0.00  0.00    +0.000 OA
ENDBRANCH  18  19
BRANCH  18  21
ATOM     21  CB  ARG A   2       7.048   5.557  16.460  0.00  0.00    +0.000 C 
BRANCH  21  22
ATOM     22  CG  ARG A   2       5.959   5.488  15.377  0.00  0.00    +0.000 C 
BRANCH  22  23
ATOM     23  CD  ARG A   2       5.577   4.051  15.030  0.00  0.00    +0.000 C 
BRANCH  23  24
ATOM     24  NE  ARG A   2       6.407   3.528  13.965  0.00  0.00    +0.000 N 
ATOM     25  CZ  ARG A   2       5.942   3.369  12.705  0.00  0.00    +0.000 C 
ATOM     26  NH1 ARG A   2       4.753   3.546  12.264  0.00  0.00    +0.000 NA
ATOM     27  NH2 ARG A   2       6.900   2.943  11.863  0.00  0.00    +0.000 N 
ATOM     28  HE  ARG A   2       7.365   3.863  13.973  0.00  0.00    +0.000 HD
ATOM     29  HH1 ARG A   2       4.143   3.878  13.010  0.00  0.00    +0.000 HD
ATOM     30 HH21 ARG A   2       7.419   2.158  12.232  0.00  0.00    +0.000 HD
ATOM     31 HH22 ARG A   2       6.466   2.693  10.978  0.00  0.00    +0.000 HD
ENDBRANCH  23  24
ENDBRANCH  22  23
ENDBRANCH  21  22
ENDBRANCH  18  21
ENDBRANCH   3  18
TORSDOF 13
ENDMDL
MODEL 4
REMARK VINA RESULT:      -6.0      2.382      6.769
REMARK  Name = 
REMARK  14 active torsions:
REMARK  status: ('A' for Active; 'I' for Inactive)
REMARK    1  A    between atoms: C_1  and  C_2
REMARK    2  A    between atoms: N_4  and  CA_5
REMARK    3  A    between atoms: CA_5  and  CB_6
REMARK    4  A    between atoms: CA_5  and  C_11
REMARK    5  A    between atoms: CB_6  and  CG_7
REMARK    6  A    between atoms: CG_7  and  CD_8
REMARK    7  A    between atoms: CD_8  and  CE_9
REMARK    8  A    between atoms: CE_9  and  NZ_10
REMARK    9  A    between atoms: N_13  and  CA_14
REMARK   10  A    between atoms: CA_14  and  C_15
REMARK   11  A    between atoms: CA_14  and  CB_17
REMARK   12  A    between atoms: CB_17  and  CG_18
REMARK   13  A    between atoms: CG_18  and  CD_19
REMARK   14  A    between atoms: CD_19  and  NE_20
REMARK                            x       y       z     vdW  Elec       q    Type
REMARK                         _______ _______ _______ _____ _____    ______ ____
ROOT
ATOM      1  C   LYS A   1       4.121   4.101  17.606  0.00  0.00    +0.000 C 
ATOM      2  O   LYS A   1       4.168   2.906  17.323  0.00  0.00    +0.000 OA
ATOM      3  N   ARG A   2       5.149   4.953  17.255  0.00  0.00    +0.000 N 
ATOM      4  H   ARG A   2       5.260   5.776  17.841  0.00  0.00    +0.000 HD
ENDROOT
BRANCH   1   5
ATOM      5  CA  LYS A   1       2.921   4.746  18.347  0.00  0.00    +0.000 C 
BRANCH   5   9
ATOM      6  C   UNK A   0       2.044   8.430  18.022  0.00  0.00    +0.000 C 
ATOM      7  C   UNK A   0       2.394   7.140  18.711  0.00  0.00    +0.000 C 
ATOM      8  O   UNK A   0       2.497   7.051  19.928  0.00  0.00    +0.000 OA
ATOM      9  N   LYS A   1       2.645   6.097  17.845  0.00  0.00    +0.000 N 
ATOM     10  H   LYS A   1       2.325   6.189  16.887  0.00  0.00    +0.000 HD
ENDBRANCH   5   9
BRANCH   5  11
ATOM     11  CB  LYS A   1       1.637   3.896  18.260  0.00  0.00    +0.000 C 
BRANCH  11  12
ATOM     12  CG  LYS A   1       1.358   3.091  19.530  0.00  0.00    +0.000 C 
BRANCH  12  13
ATOM     13  CD  LYS A   1       2.626   2.657  20.267  0.00  0.00    +0.000 C 
BRANCH  13  14
ATOM     14  CE  LYS A   1       2.371   2.695  21.776  0.00  0.00    +0.000 C 
BRANCH  14  15
ATOM     15  NZ  LYS A   1       0.950   2.586  22.073  0.00  0.00    +0.000 NA
ATOM     16  HZ1 LYS A   1       0.540   3.517  22.125  0.00  0.00    +0.000 HD
ATOM     17  HZ2 LYS A   1       0.839   2.176  23.000  0.00  0.00    +0.000 HD
ENDBRANCH  14  15
ENDBRANCH  13  14
ENDBRANCH  12  13
ENDBRANCH  11  12
ENDBRANCH   5  11
ENDBRANCH   1   5
BRANCH   3  18
ATOM     18  CA  ARG A   2       6.386   4.403  16.701  0.00  0.00    +0.000 C 
BRANCH  18  19
ATOM     19  C   ARG A   2       7.541   4.797  17.613  0.00  0.00    +0.000 C 
ATOM     20  O   ARG A   2       8.504   4.070  17.840  0.00  0.00    +0.000 OA
ENDBRANCH  18  19
BRANCH  18  21
ATOM     21  CB  ARG A   2       6.646   4.877  15.259  0.00  0.00    +0.000 C 
BRANCH  21  22
ATOM     22  CG  ARG A   2       5.800   4.166  14.191  0.00  0.00    +0.000 C 
BRANCH  22  23
ATOM     23  CD  ARG A   2       6.491   4.135  12.829  0.00  0.00    +0.000 C 
BRANCH  23  24
ATOM     24  NE  ARG A   2       6.625   2.781  12.337  0.00  0.00    +0.000 N 
ATOM     25  CZ  ARG A   2       5.664   2.191  11.589  0.00  0.00    +0.000 C 
ATOM     26  NH1 ARG A   2       4.508   2.643  11.274  0.00  0.00    +0.000 NA
ATOM     27  NH2 ARG A   2       6.026   0.964  11.177  0.00  0.00    +0.000 N 
ATOM     28  HE  ARG A   2       7.556   2.537  12.013  0.00  0.00    +0.000 HD
ATOM     29  HH1 ARG A   2       4.381   3.584  11.644  0.00  0.00    +0.000 HD
ATOM     30 HH21 ARG A   2       6.394   0.396  11.929  0.00  0.00    +0.000 HD
ATOM     31 HH22 ARG A   2       5.218   0.510  10.758  0.00  0.00    +0.000 HD
ENDBRANCH  23  24
ENDBRANCH  22  23
ENDBRANCH  21  22
ENDBRANCH  18  21
ENDBRANCH   3  18
TORSDOF 13
ENDMDL
MODEL 5
REMARK VINA RESULT:      -6.0      1.682      3.356
REMARK  Name = 
REMARK  14 active torsions:
REMARK  status: ('A' for Active; 'I' for Inactive)
REMARK    1  A    between atoms: C_1  and  C_2
REMARK    2  A    between atoms: N_4  and  CA_5
REMARK    3  A    between atoms: CA_5  and  CB_6
REMARK    4  A    between atoms: CA_5  and  C_11
REMARK    5  A    between atoms: CB_6  and  CG_7
REMARK    6  A    between atoms: CG_7  and  CD_8
REMARK    7  A    between atoms: CD_8  and  CE_9
REMARK    8  A    between atoms: CE_9  and  NZ_10
REMARK    9  A    between atoms: N_13  and  CA_14
REMARK   10  A    between atoms: CA_14  and  C_15
REMARK   11  A    between atoms: CA_14  and  CB_17
REMARK   12  A    between atoms: CB_17  and  CG_18
REMARK   13  A    between atoms: CG_18  and  CD_19
REMARK   14  A    between atoms: CD_19  and  NE_20
REMARK                            x       y       z     vdW  Elec       q    Type
REMARK                         _______ _______ _______ _____ _____    ______ ____
ROOT
ATOM      1  C   LYS A   1       4.850   5.057  16.620  0.00  0.00    +0.000 C 
ATOM      2  O   LYS A   1       4.633   6.161  16.123  0.00  0.00    +0.000 OA
ATOM      3  N   ARG A   2       3.915   4.453  17.438  0.00  0.00    +0.000 N 
ATOM      4  H   ARG A   2       4.285   3.795  18.119  0.00  0.00    +0.000 HD
ENDROOT
BRANCH   1   5
ATOM      5  CA  LYS A   1       6.154   4.258  16.363  0.00  0.00    +0.000 C 
BRANCH   5   9
ATOM      6  C   UNK A   0       6.363   3.513  12.641  0.00  0.00    +0.000 C 
ATOM      7  C   UNK A   0       6.533   4.296  13.914  0.00  0.00    +0.000 C 
ATOM      8  O   UNK A   0       7.031   5.414  13.936  0.00  0.00    +0.000 OA
ATOM      9  N   LYS A   1       6.134   3.614  15.044  0.00  0.00    +0.000 N 
ATOM     10  H   LYS A   1       5.538   2.803  14.923  0.00  0.00    +0.000 HD
ENDBRANCH   5   9
BRANCH   5  11
ATOM     11  CB  LYS A   1       7.422   5.126  16.490  0.00  0.00    +0.000 C 
BRANCH  11  12
ATOM     12  CG  LYS A   1       7.165   6.478  17.156  0.00  0.00    +0.000 C 
BRANCH  12  13
ATOM     13  CD  LYS A   1       7.869   6.636  18.505  0.00  0.00    +0.000 C 
BRANCH  13  14
ATOM     14  CE  LYS A   1       7.964   5.270  19.189  0.00  0.00    +0.000 C 
BRANCH  14  15
ATOM     15  NZ  LYS A   1       8.136   5.412  20.628  0.00  0.00    +0.000 NA
ATOM     16  HZ1 LYS A   1       8.715   4.651  20.979  0.00  0.00    +0.000 HD
ATOM     17  HZ2 LYS A   1       7.227   5.307  21.079  0.00  0.00    +0.000 HD
ENDBRANCH  14  15
ENDBRANCH  13  14
ENDBRANCH  12  13
ENDBRANCH  11  12
ENDBRANCH   5  11
ENDBRANCH   1   5
BRANCH   3  18
ATOM     18  CA  ARG A   2       2.734   5.203  17.862  0.00  0.00    +0.000 C 
BRANCH  18  19
ATOM     19  C   ARG A   2       3.057   5.911  19.172  0.00  0.00    +0.000 C 
ATOM     20  O   ARG A   2       2.607   7.014  19.474  0.00  0.00    +0.000 OA
ENDBRANCH  18  19
BRANCH  18  21
ATOM     21  CB  ARG A   2       1.494   4.304  18.023  0.00  0.00    +0.000 C 
BRANCH  21  22
ATOM     22  CG  ARG A   2       1.183   3.899  19.473  0.00  0.00    +0.000 C 
BRANCH  22  23
ATOM     23  CD  ARG A   2       1.570   2.451  19.767  0.00  0.00    +0.000 C 
BRANCH  23  24
ATOM     24  NE  ARG A   2       2.929   2.359  20.256  0.00  0.00    +0.000 N 
ATOM     25  CZ  ARG A   2       3.943   1.915  19.479  0.00  0.00    +0.000 C 
ATOM     26  NH1 ARG A   2       3.889   1.441  18.290  0.00  0.00    +0.000 NA
ATOM     27  NH2 ARG A   2       5.129   1.983  20.107  0.00  0.00    +0.000 N 
ATOM     28  HE  ARG A   2       3.219   3.132  20.847  0.00  0.00    +0.000 HD
ATOM     29  HH1 ARG A   2       2.932   1.463  17.942  0.00  0.00    +0.000 HD
ATOM     30 HH21 ARG A   2       5.097   1.590  21.038  0.00  0.00    +0.000 HD
ATOM     31 HH22 ARG A   2       5.824   1.497  19.544  0.00  0.00    +0.000 HD
ENDBRANCH  23  24
ENDBRANCH  22  23
ENDBRANCH  21  22
ENDBRANCH  18  21
ENDBRANCH   3  18
TORSDOF 13
ENDMDL
MODEL 6
REMARK VINA RESULT:      -5.9      2.119      6.440
REMARK  Name = 
REMARK  14 active torsions:
REMARK  status: ('A' for Active; 'I' for Inactive)
REMARK    1  A    between atoms: C_1  and  C_2
REMARK    2  A    between atoms: N_4  and  CA_5
REMARK    3  A    between atoms: CA_5  and  CB_6
REMARK    4  A    between atoms: CA_5  and  C_11
REMARK    5  A    between atoms: CB_6  and  CG_7
REMARK    6  A    between atoms: CG_7  and  CD_8
REMARK    7  A    between atoms: CD_8  and  CE_9
REMARK    8  A    between atoms: CE_9  and  NZ_10
REMARK    9  A    between atoms: N_13  and  CA_14
REMARK   10  A    between atoms: CA_14  and  C_15
REMARK   11  A    between atoms: CA_14  and  CB_17
REMARK   12  A    between atoms: CB_17  and  CG_18
REMARK   13  A    between atoms: CG_18  and  CD_19
REMARK   14  A    between atoms: CD_19  and  NE_20
REMARK                            x       y       z     vdW  Elec       q    Type
REMARK                         _______ _______ _______ _____ _____    ______ ____
ROOT
ATOM      1  C   LYS A   1       4.811   4.984  18.774  0.00  0.00    +0.000 C 
ATOM      2  O   LYS A   1       5.440   4.241  19.525  0.00  0.00    +0.000 OA
ATOM      3  N   ARG A   2       5.399   5.510  17.641  0.00  0.00    +0.000 N 
ATOM      4  H   ARG A   2       5.013   6.390  17.312  0.00  0.00    +0.000 HD
ENDROOT
BRANCH   1   5
ATOM      5  CA  LYS A   1       3.329   5.371  19.019  0.00  0.00    +0.000 C 
BRANCH   5   9
ATOM      6  C   UNK A   0       1.910   8.805  18.217  0.00  0.00    +0.000 C 
ATOM      7  C   UNK A   0       2.218   7.586  19.042  0.00  0.00    +0.000 C 
ATOM      8  O   UNK A   0       1.846   7.467  20.203  0.00  0.00    +0.000 OA
ATOM      9  N   LYS A   1       3.002   6.657  18.392  0.00  0.00    +0.000 N 
ATOM     10  H   LYS A   1       3.077   6.723  17.383  0.00  0.00    +0.000 HD
ENDBRANCH   5   9
BRANCH   5  11
ATOM     11  CB  LYS A   1       2.340   4.295  18.526  0.00  0.00    +0.000 C 
BRANCH  11  12
ATOM     12  CG  LYS A   1       2.667   2.893  19.042  0.00  0.00    +0.000 C 
BRANCH  12  13
ATOM     13  CD  LYS A   1       1.554   2.284  19.898  0.00  0.00    +0.000 C 
BRANCH  13  14
ATOM     14  CE  LYS A   1       1.226   3.236  21.051  0.00  0.00    +0.000 C 
BRANCH  14  15
ATOM     15  NZ  LYS A   1       1.951   2.869  22.260  0.00  0.00    +0.000 NA
ATOM     16  HZ1 LYS A   1       1.954   3.654  22.908  0.00  0.00    +0.000 HD
ATOM     17  HZ2 LYS A   1       2.928   2.699  22.018  0.00  0.00    +0.000 HD
ENDBRANCH  14  15
ENDBRANCH  13  14
ENDBRANCH  12  13
ENDBRANCH  11  12
ENDBRANCH   5  11
ENDBRANCH   1   5
BRANCH   3  18
ATOM     18  CA  ARG A   2       6.834   5.329  17.422  0.00  0.00    +0.000 C 
BRANCH  18  19
ATOM     19  C   ARG A   2       7.493   6.702  17.384  0.00  0.00    +0.000 C 
ATOM     20  O   ARG A   2       8.040   7.218  18.355  0.00  0.00    +0.000 OA
ENDBRANCH  18  19
BRANCH  18  21
ATOM     21  CB  ARG A   2       7.136   4.545  16.131  0.00  0.00    +0.000 C 
BRANCH  21  22
ATOM     22  CG  ARG A   2       5.894   4.174  15.304  0.00  0.00    +0.000 C 
BRANCH  22  23
ATOM     23  CD  ARG A   2       6.108   4.390  13.807  0.00  0.00    +0.000 C 
BRANCH  23  24
ATOM     24  NE  ARG A   2       6.295   3.133  13.115  0.00  0.00    +0.000 N 
ATOM     25  CZ  ARG A   2       5.517   2.766  12.071  0.00  0.00    +0.000 C 
ATOM     26  NH1 ARG A   2       4.491   3.363  11.591  0.00  0.00    +0.000 NA
ATOM     27  NH2 ARG A   2       5.911   1.600  11.532  0.00  0.00    +0.000 N 
ATOM     28  HE  ARG A   2       7.264   2.869  12.972  0.00  0.00    +0.000 HD
ATOM     29  HH1 ARG A   2       4.320   4.235  12.092  0.00  0.00    +0.000 HD
ATOM     30 HH21 ARG A   2       6.063   0.883  12.228  0.00  0.00    +0.000 HD
ATOM     31 HH22 ARG A   2       5.208   1.297  10.862  0.00  0.00    +0.000 HD
ENDBRANCH  23  24
ENDBRANCH  22  23
ENDBRANCH  21  22
ENDBRANCH  18  21
ENDBRANCH   3  18
TORSDOF 13
ENDMDL
MODEL 7
REMARK VINA RESULT:      -5.9      2.303      6.496
REMARK  Name = 
REMARK  14 active torsions:
REMARK  status: ('A' for Active; 'I' for Inactive)
REMARK    1  A    between atoms: C_1  and  C_2
REMARK    2  A    between atoms: N_4  and  CA_5
REMARK    3  A    between atoms: CA_5  and  CB_6
REMARK    4  A    between atoms: CA_5  and  C_11
REMARK    5  A    between atoms: CB_6  and  CG_7
REMARK    6  A    between atoms: CG_7  and  CD_8
REMARK    7  A    between atoms: CD_8  and  CE_9
REMARK    8  A    between atoms: CE_9  and  NZ_10
REMARK    9  A    between atoms: N_13  and  CA_14
REMARK   10  A    between atoms: CA_14  and  C_15
REMARK   11  A    between atoms: CA_14  and  CB_17
REMARK   12  A    between atoms: CB_17  and  CG_18
REMARK   13  A    between atoms: CG_18  and  CD_19
REMARK   14  A    between atoms: CD_19  and  NE_20
REMARK                            x       y       z     vdW  Elec       q    Type
REMARK                         _______ _______ _______ _____ _____    ______ ____
ROOT
ATOM      1  C   LYS A   1       4.205   4.240  18.029  0.00  0.00    +0.000 C 
ATOM      2  O   LYS A   1       4.580   3.174  17.546  0.00  0.00    +0.000 OA
ATOM      3  N   ARG A   2       5.098   5.268  18.257  0.00  0.00    +0.000 N 
ATOM      4  H   ARG A   2       4.844   5.917  18.997  0.00  0.00    +0.000 HD
ENDROOT
BRANCH   1   5
ATOM      5  CA  LYS A   1       2.725   4.523  18.400  0.00  0.00    +0.000 C 
BRANCH   5   9
ATOM      6  C   UNK A   0       1.491   2.730  21.516  0.00  0.00    +0.000 C 
ATOM      7  C   UNK A   0       1.788   2.936  20.056  0.00  0.00    +0.000 C 
ATOM      8  O   UNK A   0       1.523   2.094  19.207  0.00  0.00    +0.000 OA
ATOM      9  N   LYS A   1       2.434   4.122  19.782  0.00  0.00    +0.000 N 
ATOM     10  H   LYS A   1       2.415   4.847  20.489  0.00  0.00    +0.000 HD
ENDBRANCH   5   9
BRANCH   5  11
ATOM     11  CB  LYS A   1       2.331   6.000  18.202  0.00  0.00    +0.000 C 
BRANCH  11  12
ATOM     12  CG  LYS A   1       2.169   6.764  19.516  0.00  0.00    +0.000 C 
BRANCH  12  13
ATOM     13  CD  LYS A   1       2.027   8.276  19.330  0.00  0.00    +0.000 C 
BRANCH  13  14
ATOM     14  CE  LYS A   1       2.313   8.633  17.869  0.00  0.00    +0.000 C 
BRANCH  14  15
ATOM     15  NZ  LYS A   1       1.779   9.946  17.534  0.00  0.00    +0.000 NA
ATOM     16  HZ1 LYS A   1       1.394  10.382  18.370  0.00  0.00    +0.000 HD
ATOM     17  HZ2 LYS A   1       0.996   9.827  16.891  0.00  0.00    +0.000 HD
ENDBRANCH  14  15
ENDBRANCH  13  14
ENDBRANCH  12  13
ENDBRANCH  11  12
ENDBRANCH   5  11
ENDBRANCH   1   5
BRANCH   3  18
ATOM     18  CA  ARG A   2       6.531   5.030  18.089  0.00  0.00    +0.000 C 
BRANCH  18  19
ATOM     19  C   ARG A   2       7.261   5.621  19.289  0.00  0.00    +0.000 C 
ATOM     20  O   ARG A   2       8.303   5.156  19.744  0.00  0.00    +0.000 OA
ENDBRANCH  18  19
BRANCH  18  21
ATOM     21  CB  ARG A   2       7.075   5.623  16.777  0.00  0.00    +0.000 C 
BRANCH  21  22
ATOM     22  CG  ARG A   2       7.174   4.620  15.616  0.00  0.00    +0.000 C 
BRANCH  22  23
ATOM     23  CD  ARG A   2       6.075   4.827  14.575  0.00  0.00    +0.000 C 
BRANCH  23  24
ATOM     24  NE  ARG A   2       5.895   3.645  13.759  0.00  0.00    +0.000 N 
ATOM     25  CZ  ARG A   2       6.483   3.512  12.548  0.00  0.00    +0.000 C 
ATOM     26  NH1 ARG A   2       7.179   4.370  11.900  0.00  0.00    +0.000 NA
ATOM     27  NH2 ARG A   2       6.243   2.310  11.998  0.00  0.00    +0.000 N 
ATOM     28  HE  ARG A   2       5.895   2.770  14.274  0.00  0.00    +0.000 HD
ATOM     29  HH1 ARG A   2       7.285   5.226  12.444  0.00  0.00    +0.000 HD
ATOM     30 HH21 ARG A   2       5.264   2.057  12.031  0.00  0.00    +0.000 HD
ATOM     31 HH22 ARG A   2       6.571   2.321  11.035  0.00  0.00    +0.000 HD
ENDBRANCH  23  24
ENDBRANCH  22  23
ENDBRANCH  21  22
ENDBRANCH  18  21
ENDBRANCH   3  18
TORSDOF 13
ENDMDL
MODEL 8
REMARK VINA RESULT:      -5.9      2.196      6.104
REMARK  Name = 
REMARK  14 active torsions:
REMARK  status: ('A' for Active; 'I' for Inactive)
REMARK    1  A    between atoms: C_1  and  C_2
REMARK    2  A    between atoms: N_4  and  CA_5
REMARK    3  A    between atoms: CA_5  and  CB_6
REMARK    4  A    between atoms: CA_5  and  C_11
REMARK    5  A    between atoms: CB_6  and  CG_7
REMARK    6  A    between atoms: CG_7  and  CD_8
REMARK    7  A    between atoms: CD_8  and  CE_9
REMARK    8  A    between atoms: CE_9  and  NZ_10
REMARK    9  A    between atoms: N_13  and  CA_14
REMARK   10  A    between atoms: CA_14  and  C_15
REMARK   11  A    between atoms: CA_14  and  CB_17
REMARK   12  A    between atoms: CB_17  and  CG_18
REMARK   13  A    between atoms: CG_18  and  CD_19
REMARK   14  A    between atoms: CD_19  and  NE_20
REMARK                            x       y       z     vdW  Elec       q    Type
REMARK                         _______ _______ _______ _____ _____    ______ ____
ROOT
ATOM      1  C   LYS A   1       4.434   5.394  19.056  0.00  0.00    +0.000 C 
ATOM      2  O   LYS A   1       5.233   4.935  19.869  0.00  0.00    +0.000 OA
ATOM      3  N   ARG A   2       4.684   5.325  17.700  0.00  0.00    +0.000 N 
ATOM      4  H   ARG A   2       4.243   6.043  17.132  0.00  0.00    +0.000 HD
ENDROOT
BRANCH   1   5
ATOM      5  CA  LYS A   1       3.096   6.060  19.472  0.00  0.00    +0.000 C 
BRANCH   5   9
ATOM      6  C   UNK A   0       1.623   9.191  17.900  0.00  0.00    +0.000 C 
ATOM      7  C   UNK A   0       1.974   8.216  18.989  0.00  0.00    +0.000 C 
ATOM      8  O   UNK A   0       1.656   8.394  20.159  0.00  0.00    +0.000 OA
ATOM      9  N   LYS A   1       2.734   7.149  18.558  0.00  0.00    +0.000 N 
ATOM     10  H   LYS A   1       2.763   6.960  17.562  0.00  0.00    +0.000 HD
ENDBRANCH   5   9
BRANCH   5  11
ATOM     11  CB  LYS A   1       1.930   5.055  19.559  0.00  0.00    +0.000 C 
BRANCH  11  12
ATOM     12  CG  LYS A   1       2.389   3.597  19.579  0.00  0.00    +0.000 C 
BRANCH  12  13
ATOM     13  CD  LYS A   1       2.059   2.836  18.292  0.00  0.00    +0.000 C 
BRANCH  13  14
ATOM     14  CE  LYS A   1       3.223   1.904  17.945  0.00  0.00    +0.000 C 
BRANCH  14  15
ATOM     15  NZ  LYS A   1       4.345   2.101  18.852  0.00  0.00    +0.000 NA
ATOM     16  HZ1 LYS A   1       4.254   3.004  19.316  0.00  0.00    +0.000 HD
ATOM     17  HZ2 LYS A   1       5.204   2.149  18.306  0.00  0.00    +0.000 HD
ENDBRANCH  14  15
ENDBRANCH  13  14
ENDBRANCH  12  13
ENDBRANCH  11  12
ENDBRANCH   5  11
ENDBRANCH   1   5
BRANCH   3  18
ATOM     18  CA  ARG A   2       5.989   4.863  17.228  0.00  0.00    +0.000 C 
BRANCH  18  19
ATOM     19  C   ARG A   2       6.844   6.082  16.903  0.00  0.00    +0.000 C 
ATOM     20  O   ARG A   2       6.401   7.226  16.852  0.00  0.00    +0.000 OA
ENDBRANCH  18  19
BRANCH  18  21
ATOM     21  CB  ARG A   2       5.877   3.936  16.004  0.00  0.00    +0.000 C 
BRANCH  21  22
ATOM     22  CG  ARG A   2       6.794   4.316  14.830  0.00  0.00    +0.000 C 
BRANCH  22  23
ATOM     23  CD  ARG A   2       6.074   4.241  13.484  0.00  0.00    +0.000 C 
BRANCH  23  24
ATOM     24  NE  ARG A   2       6.360   2.995  12.804  0.00  0.00    +0.000 N 
ATOM     25  CZ  ARG A   2       5.557   2.510  11.829  0.00  0.00    +0.000 C 
ATOM     26  NH1 ARG A   2       4.436   2.969  11.416  0.00  0.00    +0.000 NA
ATOM     27  NH2 ARG A   2       6.049   1.384  11.284  0.00  0.00    +0.000 N 
ATOM     28  HE  ARG A   2       7.341   2.843  12.594  0.00  0.00    +0.000 HD
ATOM     29  HH1 ARG A   2       4.198   3.828  11.911  0.00  0.00    +0.000 HD
ATOM     30 HH21 ARG A   2       6.335   0.709  11.981  0.00  0.00    +0.000 HD
ATOM     31 HH22 ARG A   2       5.340   0.981  10.675  0.00  0.00    +0.000 HD
ENDBRANCH  23  24
ENDBRANCH  22  23
ENDBRANCH  21  22
ENDBRANCH  18  21
ENDBRANCH   3  18
TORSDOF 13
ENDMDL
MODEL 9
REMARK VINA RESULT:      -5.9      3.799      6.746
REMARK  Name = 
REMARK  14 active torsions:
REMARK  status: ('A' for Active; 'I' for Inactive)
REMARK    1  A    between atoms: C_1  and  C_2
REMARK    2  A    between atoms: N_4  and  CA_5
REMARK    3  A    between atoms: CA_5  and  CB_6
REMARK    4  A    between atoms: CA_5  and  C_11
REMARK    5  A    between atoms: CB_6  and  CG_7
REMARK    6  A    between atoms: CG_7  and  CD_8
REMARK    7  A    between atoms: CD_8  and  CE_9
REMARK    8  A    between atoms: CE_9  and  NZ_10
REMARK    9  A    between atoms: N_13  and  CA_14
REMARK   10  A    between atoms: CA_14  and  C_15
REMARK   11  A    between atoms: CA_14  and  CB_17
REMARK   12  A    between atoms: CB_17  and  CG_18
REMARK   13  A    between atoms: CG_18  and  CD_19
REMARK   14  A    between atoms: CD_19  and  NE_20
REMARK                            x       y       z     vdW  Elec       q    Type
REMARK                         _______ _______ _______ _____ _____    ______ ____
ROOT
ATOM      1  C   LYS A   1       2.147   7.230  19.855  0.00  0.00    +0.000 C 
ATOM      2  O   LYS A   1       2.249   8.052  18.947  0.00  0.00    +0.000 OA
ATOM      3  N   ARG A   2       1.524   7.559  21.042  0.00  0.00    +0.000 N 
ATOM      4  H   ARG A   2       1.822   7.031  21.858  0.00  0.00    +0.000 HD
ENDROOT
BRANCH   1   5
ATOM      5  CA  LYS A   1       2.680   5.777  19.741  0.00  0.00    +0.000 C 
BRANCH   5   9
ATOM      6  C   UNK A   0       6.315   5.116  18.846  0.00  0.00    +0.000 C 
ATOM      7  C   UNK A   0       4.821   5.130  18.674  0.00  0.00    +0.000 C 
ATOM      8  O   UNK A   0       4.270   4.680  17.676  0.00  0.00    +0.000 OA
ATOM      9  N   LYS A   1       4.147   5.747  19.706  0.00  0.00    +0.000 N 
ATOM     10  H   LYS A   1       4.643   5.888  20.579  0.00  0.00    +0.000 HD
ENDBRANCH   5   9
BRANCH   5  11
ATOM     11  CB  LYS A   1       2.176   4.864  20.877  0.00  0.00    +0.000 C 
BRANCH  11  12
ATOM     12  CG  LYS A   1       0.987   3.994  20.470  0.00  0.00    +0.000 C 
BRANCH  12  13
ATOM     13  CD  LYS A   1       1.380   2.565  20.089  0.00  0.00    +0.000 C 
BRANCH  13  14
ATOM     14  CE  LYS A   1       0.945   2.289  18.647  0.00  0.00    +0.000 C 
BRANCH  14  15
ATOM     15  NZ  LYS A   1       1.606   3.192  17.715  0.00  0.00    +0.000 NA
ATOM     16  HZ1 LYS A   1       0.984   3.393  16.934  0.00  0.00    +0.000 HD
ATOM     17  HZ2 LYS A   1       2.416   2.717  17.317  0.00  0.00    +0.000 HD
ENDBRANCH  14  15
ENDBRANCH  13  14
ENDBRANCH  12  13
ENDBRANCH  11  12
ENDBRANCH   5  11
ENDBRANCH   1   5
BRANCH   3  18
ATOM     18  CA  ARG A   2       1.139   8.947  21.295  0.00  0.00    +0.000 C 
BRANCH  18  19
ATOM     19  C   ARG A   2       1.469   9.283  22.745  0.00  0.00    +0.000 C 
ATOM     20  O   ARG A   2       0.635   9.675  23.556  0.00  0.00    +0.000 OA
ENDBRANCH  18  19
BRANCH  18  21
ATOM     21  CB  ARG A   2      -0.350   9.206  21.003  0.00  0.00    +0.000 C 
BRANCH  21  22
ATOM     22  CG  ARG A   2      -0.636  10.527  20.270  0.00  0.00    +0.000 C 
BRANCH  22  23
ATOM     23  CD  ARG A   2       0.067  10.602  18.915  0.00  0.00    +0.000 C 
BRANCH  23  24
ATOM     24  NE  ARG A   2      -0.889  10.625  17.828  0.00  0.00    +0.000 N 
ATOM     25  CZ  ARG A   2      -1.512  11.762  17.445  0.00  0.00    +0.000 C 
ATOM     26  NH1 ARG A   2      -1.456  12.923  17.982  0.00  0.00    +0.000 NA
ATOM     27  NH2 ARG A   2      -2.298  11.571  16.371  0.00  0.00    +0.000 N 
ATOM     28  HE  ARG A   2      -0.637  10.047  17.031  0.00  0.00    +0.000 HD
ATOM     29  HH1 ARG A   2      -0.816  12.918  18.775  0.00  0.00    +0.000 HD
ATOM     30 HH21 ARG A   2      -2.898  10.764  16.469  0.00  0.00    +0.000 HD
ATOM     31 HH22 ARG A   2      -2.856  12.409  16.223  0.00  0.00    +0.000 HD
ENDBRANCH  23  24
ENDBRANCH  22  23
ENDBRANCH  21  22
ENDBRANCH  18  21
ENDBRANCH   3  18
TORSDOF 13
ENDMDL
