MODEL 1
REMARK VINA RESULT:      -7.6      0.000      0.000
REMARK  Name = 
REMARK  5 active torsions:
REMARK  status: ('A' for Active; 'I' for Inactive)
REMARK    1  A    between atoms: C_1  and  N_2
REMARK    2  A    between atoms: C_5  and  N_6
REMARK    3  A    between atoms: C_9  and  S_10
REMARK    4  A    between atoms: S_10  and  C_11
REMARK    5  A    between atoms: C_17  and  O_18
REMARK                            x       y       z     vdW  Elec       q    Type
REMARK                         _______ _______ _______ _____ _____    ______ ____
ROOT
ATOM      1  C   UNL     1       4.912   5.029  18.237  0.00  0.00    +0.000 A 
ATOM      2  N   UNL     1       5.659   5.383  19.350  0.00  0.00    +0.000 N 
ATOM      3  C   UNL     1       7.029   5.366  19.325  0.00  0.00    +0.000 A 
ATOM      4  N   UNL     1       7.765   5.071  18.295  0.00  0.00    +0.000 NA
ATOM      5  C   UNL     1       7.063   4.724  17.181  0.00  0.00    +0.000 A 
ATOM      6  N   UNL     1       7.550   4.328  16.041  0.00  0.00    +0.000 NA
ATOM      7  C   UNL     1       6.401   4.088  15.333  0.00  0.00    +0.000 A 
ATOM      8  N   UNL     1       5.239   4.292  15.873  0.00  0.00    +0.000 NA
ATOM      9  C   UNL     1       5.591   4.714  17.128  0.00  0.00    +0.000 A 
ATOM     10  H   UNL     1       5.146   5.496  20.226  0.00  0.00    +0.000 HD
ENDROOT
BRANCH   7  11
ATOM     11  O   UNL     1       6.602   3.642  14.095  0.00  0.00    +0.000 OA
ATOM     12  H   UNL     1       6.273   4.329  13.490  0.00  0.00    +0.000 HD
ENDBRANCH   7  11
BRANCH   1  13
ATOM     13  S   UNL     1       3.170   4.838  18.240  0.00  0.00    +0.000 S 
BRANCH  13  19
ATOM     14  C   UNL     1       1.455   5.845  20.776  0.00  0.00    +0.000 C 
ATOM     15  N   UNL     1       2.170   4.589  20.769  0.00  0.00    +0.000 N 
ATOM     16  C   UNL     1       2.125   3.684  21.799  0.00  0.00    +0.000 A 
ATOM     17  N   UNL     1       2.834   2.611  21.537  0.00  0.00    +0.000 NA
ATOM     18  C   UNL     1       3.352   2.824  20.272  0.00  0.00    +0.000 A 
ATOM     19  C   UNL     1       2.966   4.058  19.778  0.00  0.00    +0.000 A 
BRANCH  18  20
ATOM     20  N   UNL     1       4.161   1.803  19.643  0.00  0.00    +0.000 N 
ATOM     21  O   UNL     1       3.746   1.324  18.575  0.00  0.00    +0.000 OA
ATOM     22  O   UNL     1       5.226   1.494  20.193  0.00  0.00    +0.000 OA
ENDBRANCH  18  20
ENDBRANCH  13  19
ENDBRANCH   1  13
TORSDOF 4
ENDMDL
MODEL 2
REMARK VINA RESULT:      -7.4      1.552      2.697
REMARK  Name = 
REMARK  5 active torsions:
REMARK  status: ('A' for Active; 'I' for Inactive)
REMARK    1  A    between atoms: C_1  and  N_2
REMARK    2  A    between atoms: C_5  and  N_6
REMARK    3  A    between atoms: C_9  and  S_10
REMARK    4  A    between atoms: S_10  and  C_11
REMARK    5  A    between atoms: C_17  and  O_18
REMARK                            x       y       z     vdW  Elec       q    Type
REMARK                         _______ _______ _______ _____ _____    ______ ____
ROOT
ATOM      1  C   UNL     1       4.445   4.951  17.410  0.00  0.00    +0.000 A 
ATOM      2  N   UNL     1       4.595   4.441  16.130  0.00  0.00    +0.000 N 
ATOM      3  C   UNL     1       5.822   4.062  15.650  0.00  0.00    +0.000 A 
ATOM      4  N   UNL     1       6.938   4.091  16.317  0.00  0.00    +0.000 NA
ATOM      5  C   UNL     1       6.826   4.580  17.583  0.00  0.00    +0.000 A 
ATOM      6  N   UNL     1       7.791   4.773  18.435  0.00  0.00    +0.000 NA
ATOM      7  C   UNL     1       7.103   5.306  19.494  0.00  0.00    +0.000 A 
ATOM      8  N   UNL     1       5.818   5.467  19.432  0.00  0.00    +0.000 NA
ATOM      9  C   UNL     1       5.546   5.011  18.168  0.00  0.00    +0.000 A 
ATOM     10  H   UNL     1       3.785   4.516  15.511  0.00  0.00    +0.000 HD
ENDROOT
BRANCH   7  11
ATOM     11  O   UNL     1       7.865   5.625  20.538  0.00  0.00    +0.000 OA
ATOM     12  H   UNL     1       8.709   5.951  20.184  0.00  0.00    +0.000 HD
ENDBRANCH   7  11
BRANCH   1  13
ATOM     13  S   UNL     1       2.956   5.636  18.030  0.00  0.00    +0.000 S 
BRANCH  13  19
ATOM     14  C   UNL     1       1.801   6.066  21.008  0.00  0.00    +0.000 C 
ATOM     15  N   UNL     1       2.031   4.755  20.444  0.00  0.00    +0.000 N 
ATOM     16  C   UNL     1       1.713   3.586  21.087  0.00  0.00    +0.000 A 
ATOM     17  N   UNL     1       1.991   2.534  20.352  0.00  0.00    +0.000 NA
ATOM     18  C   UNL     1       2.502   3.046  19.173  0.00  0.00    +0.000 A 
ATOM     19  C   UNL     1       2.552   4.429  19.211  0.00  0.00    +0.000 A 
BRANCH  18  20
ATOM     20  N   UNL     1       2.878   2.150  18.100  0.00  0.00    +0.000 N 
ATOM     21  O   UNL     1       2.338   2.323  16.996  0.00  0.00    +0.000 OA
ATOM     22  O   UNL     1       3.734   1.289  18.346  0.00  0.00    +0.000 OA
ENDBRANCH  18  20
ENDBRANCH  13  19
ENDBRANCH   1  13
TORSDOF 4
ENDMDL
MODEL 3
REMARK VINA RESULT:      -7.3      0.894      1.207
REMARK  Name = 
REMARK  5 active torsions:
REMARK  status: ('A' for Active; 'I' for Inactive)
REMARK    1  A    between atoms: C_1  and  N_2
REMARK    2  A    between atoms: C_5  and  N_6
REMARK    3  A    between atoms: C_9  and  S_10
REMARK    4  A    between atoms: S_10  and  C_11
REMARK    5  A    between atoms: C_17  and  O_18
REMARK                            x       y       z     vdW  Elec       q    Type
REMARK                         _______ _______ _______ _____ _____    ______ ____
ROOT
ATOM      1  C   UNL     1       4.822   5.371  18.083  0.00  0.00    +0.000 A 
ATOM      2  N   UNL     1       5.479   5.505  19.296  0.00  0.00    +0.000 N 
ATOM      3  C   UNL     1       6.823   5.261  19.412  0.00  0.00    +0.000 A 
ATOM      4  N   UNL     1       7.620   4.932  18.439  0.00  0.00    +0.000 NA
ATOM      5  C   UNL     1       7.009   4.799  17.230  0.00  0.00    +0.000 A 
ATOM      6  N   UNL     1       7.560   4.421  16.113  0.00  0.00    +0.000 NA
ATOM      7  C   UNL     1       6.479   4.434  15.269  0.00  0.00    +0.000 A 
ATOM      8  N   UNL     1       5.308   4.784  15.703  0.00  0.00    +0.000 NA
ATOM      9  C   UNL     1       5.571   5.039  17.024  0.00  0.00    +0.000 A 
ATOM     10  H   UNL     1       4.890   5.630  20.121  0.00  0.00    +0.000 HD
ENDROOT
BRANCH   7  11
ATOM     11  O   UNL     1       6.753   4.063  14.021  0.00  0.00    +0.000 OA
ATOM     12  H   UNL     1       6.104   3.380  13.779  0.00  0.00    +0.000 HD
ENDBRANCH   7  11
BRANCH   1  13
ATOM     13  S   UNL     1       3.084   5.473  17.885  0.00  0.00    +0.000 S 
BRANCH  13  19
ATOM     14  C   UNL     1       1.810   6.207  20.753  0.00  0.00    +0.000 C 
ATOM     15  N   UNL     1       2.019   4.844  20.321  0.00  0.00    +0.000 N 
ATOM     16  C   UNL     1       1.631   3.748  21.048  0.00  0.00    +0.000 A 
ATOM     17  N   UNL     1       1.906   2.626  20.425  0.00  0.00    +0.000 NA
ATOM     18  C   UNL     1       2.488   3.013  19.231  0.00  0.00    +0.000 A 
ATOM     19  C   UNL     1       2.585   4.391  19.148  0.00  0.00    +0.000 A 
BRANCH  18  20
ATOM     20  N   UNL     1       2.881   2.013  18.262  0.00  0.00    +0.000 N 
ATOM     21  O   UNL     1       3.740   1.187  18.612  0.00  0.00    +0.000 OA
ATOM     22  O   UNL     1       2.317   2.027  17.160  0.00  0.00    +0.000 OA
ENDBRANCH  18  20
ENDBRANCH  13  19
ENDBRANCH   1  13
TORSDOF 4
ENDMDL
MODEL 4
REMARK VINA RESULT:      -7.2      2.722      3.307
REMARK  Name = 
REMARK  5 active torsions:
REMARK  status: ('A' for Active; 'I' for Inactive)
REMARK    1  A    between atoms: C_1  and  N_2
REMARK    2  A    between atoms: C_5  and  N_6
REMARK    3  A    between atoms: C_9  and  S_10
REMARK    4  A    between atoms: S_10  and  C_11
REMARK    5  A    between atoms: C_17  and  O_18
REMARK                            x       y       z     vdW  Elec       q    Type
REMARK                         _______ _______ _______ _____ _____    ______ ____
ROOT
ATOM      1  C   UNL     1       6.030   5.112  18.110  0.00  0.00    +0.000 A 
ATOM      2  N   UNL     1       6.659   6.260  18.567  0.00  0.00    +0.000 N 
ATOM      3  C   UNL     1       7.462   7.010  17.748  0.00  0.00    +0.000 A 
ATOM      4  N   UNL     1       7.691   6.775  16.490  0.00  0.00    +0.000 NA
ATOM      5  C   UNL     1       7.083   5.658  16.004  0.00  0.00    +0.000 A 
ATOM      6  N   UNL     1       7.195   5.164  14.805  0.00  0.00    +0.000 NA
ATOM      7  C   UNL     1       6.411   4.044  14.908  0.00  0.00    +0.000 A 
ATOM      8  N   UNL     1       5.803   3.764  16.019  0.00  0.00    +0.000 NA
ATOM      9  C   UNL     1       6.209   4.799  16.821  0.00  0.00    +0.000 A 
ATOM     10  H   UNL     1       6.627   6.426  19.574  0.00  0.00    +0.000 HD
ENDROOT
BRANCH   7  11
ATOM     11  O   UNL     1       6.352   3.312  13.798  0.00  0.00    +0.000 OA
ATOM     12  H   UNL     1       6.246   3.931  13.056  0.00  0.00    +0.000 HD
ENDBRANCH   7  11
BRANCH   1  13
ATOM     13  S   UNL     1       5.149   3.996  19.134  0.00  0.00    +0.000 S 
BRANCH  13  19
ATOM     14  C   UNL     1       3.149   1.695  18.088  0.00  0.00    +0.000 C 
ATOM     15  N   UNL     1       2.794   3.096  18.081  0.00  0.00    +0.000 N 
ATOM     16  C   UNL     1       1.562   3.566  17.705  0.00  0.00    +0.000 A 
ATOM     17  N   UNL     1       1.482   4.871  17.817  0.00  0.00    +0.000 NA
ATOM     18  C   UNL     1       2.717   5.265  18.301  0.00  0.00    +0.000 A 
ATOM     19  C   UNL     1       3.559   4.178  18.459  0.00  0.00    +0.000 A 
BRANCH  18  20
ATOM     20  N   UNL     1       2.967   6.661  18.587  0.00  0.00    +0.000 N 
ATOM     21  O   UNL     1       2.509   7.117  19.648  0.00  0.00    +0.000 OA
ATOM     22  O   UNL     1       3.644   7.302  17.773  0.00  0.00    +0.000 OA
ENDBRANCH  18  20
ENDBRANCH  13  19
ENDBRANCH   1  13
TORSDOF 4
ENDMDL
MODEL 5
REMARK VINA RESULT:      -7.2      1.434      1.823
REMARK  Name = 
REMARK  5 active torsions:
REMARK  status: ('A' for Active; 'I' for Inactive)
REMARK    1  A    between atoms: C_1  and  N_2
REMARK    2  A    between atoms: C_5  and  N_6
REMARK    3  A    between atoms: C_9  and  S_10
REMARK    4  A    between atoms: S_10  and  C_11
REMARK    5  A    between atoms: C_17  and  O_18
REMARK                            x       y       z     vdW  Elec       q    Type
REMARK                         _______ _______ _______ _____ _____    ______ ____
ROOT
ATOM      1  C   UNL     1       5.378   4.293  18.129  0.00  0.00    +0.000 A 
ATOM      2  N   UNL     1       6.082   4.868  19.177  0.00  0.00    +0.000 N 
ATOM      3  C   UNL     1       7.260   5.534  18.966  0.00  0.00    +0.000 A 
ATOM      4  N   UNL     1       7.818   5.739  17.809  0.00  0.00    +0.000 NA
ATOM      5  C   UNL     1       7.150   5.194  16.756  0.00  0.00    +0.000 A 
ATOM      6  N   UNL     1       7.520   5.198  15.508  0.00  0.00    +0.000 NA
ATOM      7  C   UNL     1       6.501   4.486  14.929  0.00  0.00    +0.000 A 
ATOM      8  N   UNL     1       5.519   4.036  15.648  0.00  0.00    +0.000 NA
ATOM      9  C   UNL     1       5.881   4.461  16.901  0.00  0.00    +0.000 A 
ATOM     10  H   UNL     1       5.769   4.630  20.120  0.00  0.00    +0.000 HD
ENDROOT
BRANCH   7  11
ATOM     11  O   UNL     1       6.628   4.314  13.616  0.00  0.00    +0.000 OA
ATOM     12  H   UNL     1       7.398   4.838  13.335  0.00  0.00    +0.000 HD
ENDBRANCH   7  11
BRANCH   1  13
ATOM     13  S   UNL     1       3.974   3.264  18.331  0.00  0.00    +0.000 S 
BRANCH  13  19
ATOM     14  C   UNL     1       2.834   6.261  18.006  0.00  0.00    +0.000 C 
ATOM     15  N   UNL     1       2.627   5.475  19.202  0.00  0.00    +0.000 N 
ATOM     16  C   UNL     1       1.872   5.896  20.266  0.00  0.00    +0.000 A 
ATOM     17  N   UNL     1       1.815   4.989  21.213  0.00  0.00    +0.000 NA
ATOM     18  C   UNL     1       2.556   3.924  20.734  0.00  0.00    +0.000 A 
ATOM     19  C   UNL     1       3.087   4.208  19.488  0.00  0.00    +0.000 A 
BRANCH  18  20
ATOM     20  N   UNL     1       2.669   2.713  21.518  0.00  0.00    +0.000 N 
ATOM     21  O   UNL     1       1.657   2.331  22.128  0.00  0.00    +0.000 OA
ATOM     22  O   UNL     1       3.757   2.121  21.507  0.00  0.00    +0.000 OA
ENDBRANCH  18  20
ENDBRANCH  13  19
ENDBRANCH   1  13
TORSDOF 4
ENDMDL
MODEL 6
REMARK VINA RESULT:      -7.1      1.831      2.383
REMARK  Name = 
REMARK  5 active torsions:
REMARK  status: ('A' for Active; 'I' for Inactive)
REMARK    1  A    between atoms: C_1  and  N_2
REMARK    2  A    between atoms: C_5  and  N_6
REMARK    3  A    between atoms: C_9  and  S_10
REMARK    4  A    between atoms: S_10  and  C_11
REMARK    5  A    between atoms: C_17  and  O_18
REMARK                            x       y       z     vdW  Elec       q    Type
REMARK                         _______ _______ _______ _____ _____    ______ ____
ROOT
ATOM      1  C   UNL     1       4.791   4.861  18.029  0.00  0.00    +0.000 A 
ATOM      2  N   UNL     1       5.425   5.080  19.242  0.00  0.00    +0.000 N 
ATOM      3  C   UNL     1       6.792   5.110  19.340  0.00  0.00    +0.000 A 
ATOM      4  N   UNL     1       7.625   4.987  18.349  0.00  0.00    +0.000 NA
ATOM      5  C   UNL     1       7.036   4.778  17.139  0.00  0.00    +0.000 A 
ATOM      6  N   UNL     1       7.635   4.562  16.004  0.00  0.00    +0.000 NA
ATOM      7  C   UNL     1       6.562   4.387  15.169  0.00  0.00    +0.000 A 
ATOM      8  N   UNL     1       5.351   4.475  15.625  0.00  0.00    +0.000 NA
ATOM      9  C   UNL     1       5.576   4.729  16.953  0.00  0.00    +0.000 A 
ATOM     10  H   UNL     1       4.835   5.052  20.076  0.00  0.00    +0.000 HD
ENDROOT
BRANCH   7  11
ATOM     11  O   UNL     1       6.887   4.126  13.905  0.00  0.00    +0.000 OA
ATOM     12  H   UNL     1       6.134   4.403  13.356  0.00  0.00    +0.000 HD
ENDBRANCH   7  11
BRANCH   1  13
ATOM     13  S   UNL     1       3.066   4.616  17.848  0.00  0.00    +0.000 S 
BRANCH  13  19
ATOM     14  C   UNL     1       2.851   7.829  17.991  0.00  0.00    +0.000 C 
ATOM     15  N   UNL     1       2.424   6.971  19.073  0.00  0.00    +0.000 N 
ATOM     16  C   UNL     1       1.825   7.434  20.217  0.00  0.00    +0.000 A 
ATOM     17  N   UNL     1       1.506   6.454  21.031  0.00  0.00    +0.000 NA
ATOM     18  C   UNL     1       1.903   5.301  20.377  0.00  0.00    +0.000 A 
ATOM     19  C   UNL     1       2.494   5.598  19.161  0.00  0.00    +0.000 A 
BRANCH  18  20
ATOM     20  N   UNL     1       1.658   4.009  20.980  0.00  0.00    +0.000 N 
ATOM     21  O   UNL     1       0.850   3.258  20.410  0.00  0.00    +0.000 OA
ATOM     22  O   UNL     1       2.289   3.725  22.007  0.00  0.00    +0.000 OA
ENDBRANCH  18  20
ENDBRANCH  13  19
ENDBRANCH   1  13
TORSDOF 4
ENDMDL
MODEL 7
REMARK VINA RESULT:      -7.0      1.413      1.591
REMARK  Name = 
REMARK  5 active torsions:
REMARK  status: ('A' for Active; 'I' for Inactive)
REMARK    1  A    between atoms: C_1  and  N_2
REMARK    2  A    between atoms: C_5  and  N_6
REMARK    3  A    between atoms: C_9  and  S_10
REMARK    4  A    between atoms: S_10  and  C_11
REMARK    5  A    between atoms: C_17  and  O_18
REMARK                            x       y       z     vdW  Elec       q    Type
REMARK                         _______ _______ _______ _____ _____    ______ ____
ROOT
ATOM      1  C   UNL     1       5.205   5.953  17.989  0.00  0.00    +0.000 A 
ATOM      2  N   UNL     1       5.811   5.746  19.218  0.00  0.00    +0.000 N 
ATOM      3  C   UNL     1       7.031   5.131  19.320  0.00  0.00    +0.000 A 
ATOM      4  N   UNL     1       7.759   4.723  18.323  0.00  0.00    +0.000 NA
ATOM      5  C   UNL     1       7.198   4.917  17.098  0.00  0.00    +0.000 A 
ATOM      6  N   UNL     1       7.683   4.548  15.948  0.00  0.00    +0.000 NA
ATOM      7  C   UNL     1       6.691   4.965  15.098  0.00  0.00    +0.000 A 
ATOM      8  N   UNL     1       5.636   5.564  15.559  0.00  0.00    +0.000 NA
ATOM      9  C   UNL     1       5.890   5.566  16.906  0.00  0.00    +0.000 A 
ATOM     10  H   UNL     1       5.235   5.921  20.044  0.00  0.00    +0.000 HD
ENDROOT
BRANCH   7  11
ATOM     11  O   UNL     1       6.918   4.695  13.815  0.00  0.00    +0.000 OA
ATOM     12  H   UNL     1       7.796   4.280  13.764  0.00  0.00    +0.000 HD
ENDBRANCH   7  11
BRANCH   1  13
ATOM     13  S   UNL     1       3.571   6.552  17.782  0.00  0.00    +0.000 S 
BRANCH  13  19
ATOM     14  C   UNL     1       1.920   7.446  20.401  0.00  0.00    +0.000 C 
ATOM     15  N   UNL     1       2.044   6.065  19.994  0.00  0.00    +0.000 N 
ATOM     16  C   UNL     1       1.417   5.026  20.631  0.00  0.00    +0.000 A 
ATOM     17  N   UNL     1       1.665   3.875  20.050  0.00  0.00    +0.000 NA
ATOM     18  C   UNL     1       2.481   4.185  18.976  0.00  0.00    +0.000 A 
ATOM     19  C   UNL     1       2.746   5.543  18.929  0.00  0.00    +0.000 A 
BRANCH  18  20
ATOM     20  N   UNL     1       2.917   3.139  18.077  0.00  0.00    +0.000 N 
ATOM     21  O   UNL     1       2.146   2.819  17.157  0.00  0.00    +0.000 OA
ATOM     22  O   UNL     1       4.040   2.653  18.264  0.00  0.00    +0.000 OA
ENDBRANCH  18  20
ENDBRANCH  13  19
ENDBRANCH   1  13
TORSDOF 4
ENDMDL
MODEL 8
REMARK VINA RESULT:      -7.0      2.046      3.011
REMARK  Name = 
REMARK  5 active torsions:
REMARK  status: ('A' for Active; 'I' for Inactive)
REMARK    1  A    between atoms: C_1  and  N_2
REMARK    2  A    between atoms: C_5  and  N_6
REMARK    3  A    between atoms: C_9  and  S_10
REMARK    4  A    between atoms: S_10  and  C_11
REMARK    5  A    between atoms: C_17  and  O_18
REMARK                            x       y       z     vdW  Elec       q    Type
REMARK                         _______ _______ _______ _____ _____    ______ ____
ROOT
ATOM      1  C   UNL     1       4.707   4.906  18.049  0.00  0.00    +0.000 A 
ATOM      2  N   UNL     1       4.531   4.612  16.706  0.00  0.00    +0.000 N 
ATOM      3  C   UNL     1       5.599   4.377  15.880  0.00  0.00    +0.000 A 
ATOM      4  N   UNL     1       6.848   4.359  16.243  0.00  0.00    +0.000 NA
ATOM      5  C   UNL     1       7.057   4.637  17.559  0.00  0.00    +0.000 A 
ATOM      6  N   UNL     1       8.205   4.744  18.163  0.00  0.00    +0.000 NA
ATOM      7  C   UNL     1       7.804   5.067  19.433  0.00  0.00    +0.000 A 
ATOM      8  N   UNL     1       6.544   5.169  19.722  0.00  0.00    +0.000 NA
ATOM      9  C   UNL     1       5.964   4.903  18.508  0.00  0.00    +0.000 A 
ATOM     10  H   UNL     1       3.590   4.740  16.331  0.00  0.00    +0.000 HD
ENDROOT
BRANCH   7  11
ATOM     11  O   UNL     1       8.803   5.257  20.292  0.00  0.00    +0.000 OA
ATOM     12  H   UNL     1       9.309   6.024  19.972  0.00  0.00    +0.000 HD
ENDBRANCH   7  11
BRANCH   1  13
ATOM     13  S   UNL     1       3.418   5.406  19.126  0.00  0.00    +0.000 S 
BRANCH  13  19
ATOM     14  C   UNL     1       0.942   4.579  17.235  0.00  0.00    +0.000 C 
ATOM     15  N   UNL     1       1.464   3.704  18.261  0.00  0.00    +0.000 N 
ATOM     16  C   UNL     1       1.011   2.428  18.472  0.00  0.00    +0.000 A 
ATOM     17  N   UNL     1       1.668   1.831  19.440  0.00  0.00    +0.000 NA
ATOM     18  C   UNL     1       2.600   2.760  19.866  0.00  0.00    +0.000 A 
ATOM     19  C   UNL     1       2.483   3.943  19.158  0.00  0.00    +0.000 A 
BRANCH  18  20
ATOM     20  N   UNL     1       3.538   2.413  20.912  0.00  0.00    +0.000 N 
ATOM     21  O   UNL     1       3.101   2.346  22.072  0.00  0.00    +0.000 OA
ATOM     22  O   UNL     1       4.708   2.180  20.579  0.00  0.00    +0.000 OA
ENDBRANCH  18  20
ENDBRANCH  13  19
ENDBRANCH   1  13
TORSDOF 4
ENDMDL
MODEL 9
REMARK VINA RESULT:      -6.9      2.817      3.804
REMARK  Name = 
REMARK  5 active torsions:
REMARK  status: ('A' for Active; 'I' for Inactive)
REMARK    1  A    between atoms: C_1  and  N_2
REMARK    2  A    between atoms: C_5  and  N_6
REMARK    3  A    between atoms: C_9  and  S_10
REMARK    4  A    between atoms: S_10  and  C_11
REMARK    5  A    between atoms: C_17  and  O_18
REMARK                            x       y       z     vdW  Elec       q    Type
REMARK                         _______ _______ _______ _____ _____    ______ ____
ROOT
ATOM      1  C   UNL     1       5.673   4.380  17.926  0.00  0.00    +0.000 A 
ATOM      2  N   UNL     1       5.220   3.951  16.688  0.00  0.00    +0.000 N 
ATOM      3  C   UNL     1       5.616   4.566  15.529  0.00  0.00    +0.000 A 
ATOM      4  N   UNL     1       6.459   5.552  15.445  0.00  0.00    +0.000 NA
ATOM      5  C   UNL     1       6.932   5.995  16.643  0.00  0.00    +0.000 A 
ATOM      6  N   UNL     1       7.733   7.001  16.845  0.00  0.00    +0.000 NA
ATOM      7  C   UNL     1       7.823   6.994  18.212  0.00  0.00    +0.000 A 
ATOM      8  N   UNL     1       7.189   6.104  18.911  0.00  0.00    +0.000 NA
ATOM      9  C   UNL     1       6.551   5.390  17.930  0.00  0.00    +0.000 A 
ATOM     10  H   UNL     1       4.457   3.271  16.693  0.00  0.00    +0.000 HD
ENDROOT
BRANCH   7  11
ATOM     11  O   UNL     1       8.591   7.957  18.716  0.00  0.00    +0.000 OA
ATOM     12  H   UNL     1       8.611   7.829  19.680  0.00  0.00    +0.000 HD
ENDBRANCH   7  11
BRANCH   1  13
ATOM     13  S   UNL     1       5.071   3.781  19.459  0.00  0.00    +0.000 S 
BRANCH  13  19
ATOM     14  C   UNL     1       3.471   1.201  18.374  0.00  0.00    +0.000 C 
ATOM     15  N   UNL     1       2.820   2.462  18.649  0.00  0.00    +0.000 N 
ATOM     16  C   UNL     1       1.467   2.656  18.547  0.00  0.00    +0.000 A 
ATOM     17  N   UNL     1       1.122   3.878  18.879  0.00  0.00    +0.000 NA
ATOM     18  C   UNL     1       2.307   4.503  19.225  0.00  0.00    +0.000 A 
ATOM     19  C   UNL     1       3.383   3.646  19.074  0.00  0.00    +0.000 A 
BRANCH  18  20
ATOM     20  N   UNL     1       2.291   5.872  19.692  0.00  0.00    +0.000 N 
ATOM     21  O   UNL     1       2.891   6.716  19.006  0.00  0.00    +0.000 OA
ATOM     22  O   UNL     1       1.658   6.119  20.727  0.00  0.00    +0.000 OA
ENDBRANCH  18  20
ENDBRANCH  13  19
ENDBRANCH   1  13
TORSDOF 4
ENDMDL
