MODEL 1
REMARK VINA RESULT:      -8.9      0.000      0.000
REMARK  Name = 
REMARK  4 active torsions:
REMARK  status: ('A' for Active; 'I' for Inactive)
REMARK    1  A    between atoms: C_7  and  C_8
REMARK    2  A    between atoms: C_11  and  C_12
REMARK    3  A    between atoms: C_15  and  C_16
REMARK    4  A    between atoms: C_16  and  N_17
REMARK                            x       y       z     vdW  Elec       q    Type
REMARK                         _______ _______ _______ _____ _____    ______ ____
ROOT
ATOM      1  C   UNL     1       0.617   9.656  20.098  0.00  0.00    +0.000 A 
ATOM      2  C   UNL     1       1.108   8.511  20.724  0.00  0.00    +0.000 A 
ATOM      3  C   UNL     1       1.953   7.654  20.028  0.00  0.00    +0.000 A 
ATOM      4  C   UNL     1       2.300   7.896  18.687  0.00  0.00    +0.000 A 
ATOM      5  C   UNL     1       1.774   9.038  18.065  0.00  0.00    +0.000 A 
ATOM      6  C   UNL     1       0.946   9.909  18.764  0.00  0.00    +0.000 A 
ENDROOT
BRANCH   1  13
ATOM      7  F   UNL     1      -4.040  12.808  24.405  0.00  0.00    +0.000 F 
ATOM      8  C   UNL     1      -3.298  12.551  23.318  0.00  0.00    +0.000 A 
ATOM      9  C   UNL     1      -3.665  13.121  22.097  0.00  0.00    +0.000 A 
ATOM     10  C   UNL     1      -2.895  12.939  20.950  0.00  0.00    +0.000 A 
ATOM     11  C   UNL     1      -1.789  12.104  21.102  0.00  0.00    +0.000 A 
ATOM     12  N   UNL     1      -0.870  11.642  20.204  0.00  0.00    +0.000 N 
ATOM     13  C   UNL     1      -0.132  10.664  20.826  0.00  0.00    +0.000 A 
ATOM     14  N   UNL     1      -0.363  10.667  22.124  0.00  0.00    +0.000 NA
ATOM     15  C   UNL     1      -1.426  11.506  22.300  0.00  0.00    +0.000 A 
ATOM     16  C   UNL     1      -2.165  11.758  23.455  0.00  0.00    +0.000 A 
ATOM     17  H   UNL     1      -0.877  11.824  19.209  0.00  0.00    +0.000 HD
ENDBRANCH   1  13
BRANCH   4  18
ATOM     18  C   UNL     1       3.179   6.967  17.963  0.00  0.00    +0.000 A 
ATOM     19  C   UNL     1       4.153   7.456  17.078  0.00  0.00    +0.000 A 
ATOM     20  C   UNL     1       4.988   6.595  16.381  0.00  0.00    +0.000 A 
ATOM     21  C   UNL     1       4.894   5.216  16.577  0.00  0.00    +0.000 A 
ATOM     22  C   UNL     1       3.934   4.709  17.458  0.00  0.00    +0.000 A 
ATOM     23  C   UNL     1       3.080   5.576  18.134  0.00  0.00    +0.000 A 
BRANCH  21  24
ATOM     24  C   UNL     1       5.843   4.298  15.858  0.00  0.00    +0.000 C 
BRANCH  24  25
ATOM     25  N   UNL     1       5.946   4.591  14.412  0.00  0.00    +0.000 NA
ATOM     26  C   UNL     1       7.339   4.904  14.045  0.00  0.00    +0.000 C 
ATOM     27  C   UNL     1       7.574   4.977  12.537  0.00  0.00    +0.000 C 
ATOM     28  C   UNL     1       7.081   3.712  11.853  0.00  0.00    +0.000 C 
ATOM     29  C   UNL     1       5.606   3.520  12.169  0.00  0.00    +0.000 C 
ATOM     30  C   UNL     1       5.380   3.454  13.676  0.00  0.00    +0.000 C 
ENDBRANCH  24  25
ENDBRANCH  21  24
ENDBRANCH   4  18
TORSDOF 4
ENDMDL
MODEL 2
REMARK VINA RESULT:      -8.9      3.731     11.799
REMARK  Name = 
REMARK  4 active torsions:
REMARK  status: ('A' for Active; 'I' for Inactive)
REMARK    1  A    between atoms: C_7  and  C_8
REMARK    2  A    between atoms: C_11  and  C_12
REMARK    3  A    between atoms: C_15  and  C_16
REMARK    4  A    between atoms: C_16  and  N_17
REMARK                            x       y       z     vdW  Elec       q    Type
REMARK                         _______ _______ _______ _____ _____    ______ ____
ROOT
ATOM      1  C   UNL     1       2.370   7.802  18.697  0.00  0.00    +0.000 A 
ATOM      2  C   UNL     1       1.790   8.849  17.983  0.00  0.00    +0.000 A 
ATOM      3  C   UNL     1       0.922   9.724  18.627  0.00  0.00    +0.000 A 
ATOM      4  C   UNL     1       0.587   9.559  19.983  0.00  0.00    +0.000 A 
ATOM      5  C   UNL     1       1.159   8.484  20.678  0.00  0.00    +0.000 A 
ATOM      6  C   UNL     1       2.043   7.619  20.044  0.00  0.00    +0.000 A 
ENDROOT
BRANCH   1  13
ATOM      7  F   UNL     1       6.460   4.370  14.043  0.00  0.00    +0.000 F 
ATOM      8  C   UNL     1       5.710   4.611  15.128  0.00  0.00    +0.000 A 
ATOM      9  C   UNL     1       5.201   3.532  15.854  0.00  0.00    +0.000 A 
ATOM     10  C   UNL     1       4.469   3.724  17.023  0.00  0.00    +0.000 A 
ATOM     11  C   UNL     1       4.232   5.054  17.365  0.00  0.00    +0.000 A 
ATOM     12  N   UNL     1       3.505   5.617  18.375  0.00  0.00    +0.000 N 
ATOM     13  C   UNL     1       3.404   6.963  18.119  0.00  0.00    +0.000 A 
ATOM     14  N   UNL     1       4.233   7.313  17.156  0.00  0.00    +0.000 NA
ATOM     15  C   UNL     1       4.704   6.139  16.640  0.00  0.00    +0.000 A 
ATOM     16  C   UNL     1       5.498   5.930  15.514  0.00  0.00    +0.000 A 
ATOM     17  H   UNL     1       2.957   5.110  19.059  0.00  0.00    +0.000 HD
ENDBRANCH   1  13
BRANCH   4  18
ATOM     18  C   UNL     1      -0.347  10.484  20.640  0.00  0.00    +0.000 A 
ATOM     19  C   UNL     1      -1.132  11.361  19.874  0.00  0.00    +0.000 A 
ATOM     20  C   UNL     1      -2.015  12.247  20.476  0.00  0.00    +0.000 A 
ATOM     21  C   UNL     1      -2.162  12.255  21.864  0.00  0.00    +0.000 A 
ATOM     22  C   UNL     1      -1.393  11.386  22.645  0.00  0.00    +0.000 A 
ATOM     23  C   UNL     1      -0.489  10.518  22.037  0.00  0.00    +0.000 A 
BRANCH  21  24
ATOM     24  C   UNL     1      -3.163  13.180  22.498  0.00  0.00    +0.000 C 
BRANCH  24  25
ATOM     25  N   UNL     1      -4.483  12.549  22.707  0.00  0.00    +0.000 NA
ATOM     26  C   UNL     1      -5.071  12.987  23.987  0.00  0.00    +0.000 C 
ATOM     27  C   UNL     1      -6.531  12.576  24.164  0.00  0.00    +0.000 C 
ATOM     28  C   UNL     1      -7.365  13.027  22.976  0.00  0.00    +0.000 C 
ATOM     29  C   UNL     1      -6.779  12.434  21.705  0.00  0.00    +0.000 C 
ATOM     30  C   UNL     1      -5.320  12.845  21.538  0.00  0.00    +0.000 C 
ENDBRANCH  24  25
ENDBRANCH  21  24
ENDBRANCH   4  18
TORSDOF 4
ENDMDL
MODEL 3
REMARK VINA RESULT:      -8.8      3.851     11.795
REMARK  Name = 
REMARK  4 active torsions:
REMARK  status: ('A' for Active; 'I' for Inactive)
REMARK    1  A    between atoms: C_7  and  C_8
REMARK    2  A    between atoms: C_11  and  C_12
REMARK    3  A    between atoms: C_15  and  C_16
REMARK    4  A    between atoms: C_16  and  N_17
REMARK                            x       y       z     vdW  Elec       q    Type
REMARK                         _______ _______ _______ _____ _____    ______ ____
ROOT
ATOM      1  C   UNL     1       2.263   7.592  19.072  0.00  0.00    +0.000 A 
ATOM      2  C   UNL     1       1.801   8.727  18.407  0.00  0.00    +0.000 A 
ATOM      3  C   UNL     1       0.980   9.630  19.074  0.00  0.00    +0.000 A 
ATOM      4  C   UNL     1       0.573   9.408  20.402  0.00  0.00    +0.000 A 
ATOM      5  C   UNL     1       1.026   8.247  21.046  0.00  0.00    +0.000 A 
ATOM      6  C   UNL     1       1.864   7.353  20.389  0.00  0.00    +0.000 A 
ENDROOT
BRANCH   1  13
ATOM      7  F   UNL     1       8.286   4.095  17.784  0.00  0.00    +0.000 F 
ATOM      8  C   UNL     1       7.167   4.802  17.573  0.00  0.00    +0.000 A 
ATOM      9  C   UNL     1       7.016   5.488  16.365  0.00  0.00    +0.000 A 
ATOM     10  C   UNL     1       5.847   6.186  16.069  0.00  0.00    +0.000 A 
ATOM     11  C   UNL     1       4.889   6.202  17.082  0.00  0.00    +0.000 A 
ATOM     12  N   UNL     1       3.683   6.833  17.181  0.00  0.00    +0.000 N 
ATOM     13  C   UNL     1       3.250   6.708  18.479  0.00  0.00    +0.000 A 
ATOM     14  N   UNL     1       3.984   5.826  19.128  0.00  0.00    +0.000 NA
ATOM     15  C   UNL     1       5.035   5.552  18.299  0.00  0.00    +0.000 A 
ATOM     16  C   UNL     1       6.179   4.796  18.551  0.00  0.00    +0.000 A 
ATOM     17  H   UNL     1       3.289   7.462  16.493  0.00  0.00    +0.000 HD
ENDBRANCH   1  13
BRANCH   4  18
ATOM     18  C   UNL     1      -0.310  10.365  21.082  0.00  0.00    +0.000 A 
ATOM     19  C   UNL     1      -1.008  11.334  20.344  0.00  0.00    +0.000 A 
ATOM     20  C   UNL     1      -1.842  12.250  20.969  0.00  0.00    +0.000 A 
ATOM     21  C   UNL     1      -2.027  12.200  22.352  0.00  0.00    +0.000 A 
ATOM     22  C   UNL     1      -1.345  11.239  23.105  0.00  0.00    +0.000 A 
ATOM     23  C   UNL     1      -0.488  10.340  22.476  0.00  0.00    +0.000 A 
BRANCH  21  24
ATOM     24  C   UNL     1      -2.977  13.163  23.008  0.00  0.00    +0.000 C 
BRANCH  24  25
ATOM     25  N   UNL     1      -4.389  12.733  22.921  0.00  0.00    +0.000 NA
ATOM     26  C   UNL     1      -4.985  12.636  24.266  0.00  0.00    +0.000 C 
ATOM     27  C   UNL     1      -6.499  12.437  24.253  0.00  0.00    +0.000 C 
ATOM     28  C   UNL     1      -7.176  13.507  23.412  0.00  0.00    +0.000 C 
ATOM     29  C   UNL     1      -6.605  13.465  22.004  0.00  0.00    +0.000 C 
ATOM     30  C   UNL     1      -5.093  13.660  22.026  0.00  0.00    +0.000 C 
ENDBRANCH  24  25
ENDBRANCH  21  24
ENDBRANCH   4  18
TORSDOF 4
ENDMDL
MODEL 4
REMARK VINA RESULT:      -8.8      2.295      3.691
REMARK  Name = 
REMARK  4 active torsions:
REMARK  status: ('A' for Active; 'I' for Inactive)
REMARK    1  A    between atoms: C_7  and  C_8
REMARK    2  A    between atoms: C_11  and  C_12
REMARK    3  A    between atoms: C_15  and  C_16
REMARK    4  A    between atoms: C_16  and  N_17
REMARK                            x       y       z     vdW  Elec       q    Type
REMARK                         _______ _______ _______ _____ _____    ______ ____
ROOT
ATOM      1  C   UNL     1      -0.955  10.882  22.361  0.00  0.00    +0.000 A 
ATOM      2  C   UNL     1      -0.404   9.789  23.027  0.00  0.00    +0.000 A 
ATOM      3  C   UNL     1       0.367   8.870  22.323  0.00  0.00    +0.000 A 
ATOM      4  C   UNL     1       0.579   9.000  20.939  0.00  0.00    +0.000 A 
ATOM      5  C   UNL     1      -0.006  10.091  20.281  0.00  0.00    +0.000 A 
ATOM      6  C   UNL     1      -0.760  11.023  20.985  0.00  0.00    +0.000 A 
ENDROOT
BRANCH   1  13
ATOM      7  F   UNL     1      -5.731  15.730  24.323  0.00  0.00    +0.000 F 
ATOM      8  C   UNL     1      -4.550  15.168  24.029  0.00  0.00    +0.000 A 
ATOM      9  C   UNL     1      -3.453  15.993  23.769  0.00  0.00    +0.000 A 
ATOM     10  C   UNL     1      -2.189  15.462  23.520  0.00  0.00    +0.000 A 
ATOM     11  C   UNL     1      -2.124  14.070  23.485  0.00  0.00    +0.000 A 
ATOM     12  N   UNL     1      -1.098  13.216  23.200  0.00  0.00    +0.000 N 
ATOM     13  C   UNL     1      -1.626  11.953  23.076  0.00  0.00    +0.000 A 
ATOM     14  N   UNL     1      -2.869  11.927  23.514  0.00  0.00    +0.000 NA
ATOM     15  C   UNL     1      -3.210  13.236  23.711  0.00  0.00    +0.000 A 
ATOM     16  C   UNL     1      -4.451  13.782  24.033  0.00  0.00    +0.000 A 
ATOM     17  H   UNL     1      -0.167  13.489  22.915  0.00  0.00    +0.000 HD
ENDBRANCH   1  13
BRANCH   4  18
ATOM     18  C   UNL     1       1.381   8.008  20.210  0.00  0.00    +0.000 A 
ATOM     19  C   UNL     1       1.549   6.713  20.727  0.00  0.00    +0.000 A 
ATOM     20  C   UNL     1       2.308   5.764  20.057  0.00  0.00    +0.000 A 
ATOM     21  C   UNL     1       2.894   6.076  18.829  0.00  0.00    +0.000 A 
ATOM     22  C   UNL     1       2.736   7.359  18.294  0.00  0.00    +0.000 A 
ATOM     23  C   UNL     1       1.996   8.315  18.984  0.00  0.00    +0.000 A 
BRANCH  21  24
ATOM     24  C   UNL     1       3.667   5.021  18.087  0.00  0.00    +0.000 C 
BRANCH  24  25
ATOM     25  N   UNL     1       5.058   5.425  17.789  0.00  0.00    +0.000 NA
ATOM     26  C   UNL     1       5.877   5.405  19.015  0.00  0.00    +0.000 C 
ATOM     27  C   UNL     1       7.374   5.571  18.755  0.00  0.00    +0.000 C 
ATOM     28  C   UNL     1       7.859   4.554  17.735  0.00  0.00    +0.000 C 
ATOM     29  C   UNL     1       7.059   4.715  16.453  0.00  0.00    +0.000 C 
ATOM     30  C   UNL     1       5.566   4.554  16.722  0.00  0.00    +0.000 C 
ENDBRANCH  24  25
ENDBRANCH  21  24
ENDBRANCH   4  18
TORSDOF 4
ENDMDL
MODEL 5
REMARK VINA RESULT:      -8.7      2.203      3.763
REMARK  Name = 
REMARK  4 active torsions:
REMARK  status: ('A' for Active; 'I' for Inactive)
REMARK    1  A    between atoms: C_7  and  C_8
REMARK    2  A    between atoms: C_11  and  C_12
REMARK    3  A    between atoms: C_15  and  C_16
REMARK    4  A    between atoms: C_16  and  N_17
REMARK                            x       y       z     vdW  Elec       q    Type
REMARK                         _______ _______ _______ _____ _____    ______ ____
ROOT
ATOM      1  C   UNL     1      -0.848  11.192  22.433  0.00  0.00    +0.000 A 
ATOM      2  C   UNL     1      -0.274  11.515  21.204  0.00  0.00    +0.000 A 
ATOM      3  C   UNL     1       0.420  10.543  20.491  0.00  0.00    +0.000 A 
ATOM      4  C   UNL     1       0.589   9.242  20.998  0.00  0.00    +0.000 A 
ATOM      5  C   UNL     1       0.028   8.943  22.248  0.00  0.00    +0.000 A 
ATOM      6  C   UNL     1      -0.685   9.906  22.955  0.00  0.00    +0.000 A 
ENDROOT
BRANCH   1  13
ATOM      7  F   UNL     1      -6.346  15.318  24.138  0.00  0.00    +0.000 F 
ATOM      8  C   UNL     1      -5.082  14.910  23.956  0.00  0.00    +0.000 A 
ATOM      9  C   UNL     1      -4.062  15.864  23.909  0.00  0.00    +0.000 A 
ATOM     10  C   UNL     1      -2.726  15.491  23.785  0.00  0.00    +0.000 A 
ATOM     11  C   UNL     1      -2.499  14.123  23.647  0.00  0.00    +0.000 A 
ATOM     12  N   UNL     1      -1.356  13.408  23.431  0.00  0.00    +0.000 N 
ATOM     13  C   UNL     1      -1.718  12.116  23.137  0.00  0.00    +0.000 A 
ATOM     14  N   UNL     1      -2.994  11.922  23.406  0.00  0.00    +0.000 NA
ATOM     15  C   UNL     1      -3.502  13.164  23.662  0.00  0.00    +0.000 A 
ATOM     16  C   UNL     1      -4.828  13.547  23.861  0.00  0.00    +0.000 A 
ATOM     17  H   UNL     1      -0.434  13.801  23.292  0.00  0.00    +0.000 HD
ENDBRANCH   1  13
BRANCH   4  18
ATOM     18  C   UNL     1       1.343   8.236  20.238  0.00  0.00    +0.000 A 
ATOM     19  C   UNL     1       1.558   6.957  20.774  0.00  0.00    +0.000 A 
ATOM     20  C   UNL     1       2.273   5.995  20.074  0.00  0.00    +0.000 A 
ATOM     21  C   UNL     1       2.765   6.278  18.799  0.00  0.00    +0.000 A 
ATOM     22  C   UNL     1       2.557   7.545  18.245  0.00  0.00    +0.000 A 
ATOM     23  C   UNL     1       1.863   8.515  18.963  0.00  0.00    +0.000 A 
BRANCH  21  24
ATOM     24  C   UNL     1       3.489   5.208  18.029  0.00  0.00    +0.000 C 
BRANCH  24  25
ATOM     25  N   UNL     1       4.877   5.582  17.686  0.00  0.00    +0.000 NA
ATOM     26  C   UNL     1       5.827   4.983  18.642  0.00  0.00    +0.000 C 
ATOM     27  C   UNL     1       7.289   5.116  18.219  0.00  0.00    +0.000 C 
ATOM     28  C   UNL     1       7.494   4.582  16.811  0.00  0.00    +0.000 C 
ATOM     29  C   UNL     1       6.577   5.332  15.858  0.00  0.00    +0.000 C 
ATOM     30  C   UNL     1       5.120   5.198  16.290  0.00  0.00    +0.000 C 
ENDBRANCH  24  25
ENDBRANCH  21  24
ENDBRANCH   4  18
TORSDOF 4
ENDMDL
MODEL 6
REMARK VINA RESULT:      -8.7      7.176     10.403
REMARK  Name = 
REMARK  4 active torsions:
REMARK  status: ('A' for Active; 'I' for Inactive)
REMARK    1  A    between atoms: C_7  and  C_8
REMARK    2  A    between atoms: C_11  and  C_12
REMARK    3  A    between atoms: C_15  and  C_16
REMARK    4  A    between atoms: C_16  and  N_17
REMARK                            x       y       z     vdW  Elec       q    Type
REMARK                         _______ _______ _______ _____ _____    ______ ____
ROOT
ATOM      1  C   UNL     1       6.709   6.318  18.056  0.00  0.00    +0.000 A 
ATOM      2  C   UNL     1       7.793   6.292  18.931  0.00  0.00    +0.000 A 
ATOM      3  C   UNL     1       8.553   7.442  19.121  0.00  0.00    +0.000 A 
ATOM      4  C   UNL     1       8.274   8.629  18.421  0.00  0.00    +0.000 A 
ATOM      5  C   UNL     1       7.197   8.628  17.524  0.00  0.00    +0.000 A 
ATOM      6  C   UNL     1       6.422   7.488  17.347  0.00  0.00    +0.000 A 
ENDROOT
BRANCH   1  13
ATOM      7  F   UNL     1       0.813   2.396  18.154  0.00  0.00    +0.000 F 
ATOM      8  C   UNL     1       2.088   2.763  18.341  0.00  0.00    +0.000 A 
ATOM      9  C   UNL     1       2.864   2.067  19.272  0.00  0.00    +0.000 A 
ATOM     10  C   UNL     1       4.212   2.365  19.460  0.00  0.00    +0.000 A 
ATOM     11  C   UNL     1       4.696   3.436  18.711  0.00  0.00    +0.000 A 
ATOM     12  N   UNL     1       5.914   4.052  18.689  0.00  0.00    +0.000 N 
ATOM     13  C   UNL     1       5.789   5.201  17.945  0.00  0.00    +0.000 A 
ATOM     14  N   UNL     1       4.642   5.208  17.295  0.00  0.00    +0.000 NA
ATOM     15  C   UNL     1       3.932   4.158  17.805  0.00  0.00    +0.000 A 
ATOM     16  C   UNL     1       2.605   3.799  17.573  0.00  0.00    +0.000 A 
ATOM     17  H   UNL     1       6.698   3.827  19.286  0.00  0.00    +0.000 HD
ENDBRANCH   1  13
BRANCH   4  18
ATOM     18  C   UNL     1       9.102   9.826  18.622  0.00  0.00    +0.000 A 
ATOM     19  C   UNL     1       9.643  10.507  17.520  0.00  0.00    +0.000 A 
ATOM     20  C   UNL     1      10.432  11.636  17.689  0.00  0.00    +0.000 A 
ATOM     21  C   UNL     1      10.674  12.136  18.971  0.00  0.00    +0.000 A 
ATOM     22  C   UNL     1      10.140  11.475  20.081  0.00  0.00    +0.000 A 
ATOM     23  C   UNL     1       9.372  10.327  19.907  0.00  0.00    +0.000 A 
BRANCH  21  24
ATOM     24  C   UNL     1      11.484  13.392  19.136  0.00  0.00    +0.000 C 
BRANCH  24  25
ATOM     25  N   UNL     1      11.081  14.466  18.204  0.00  0.00    +0.000 NA
ATOM     26  C   UNL     1       9.819  15.089  18.644  0.00  0.00    +0.000 C 
ATOM     27  C   UNL     1       9.463  16.362  17.879  0.00  0.00    +0.000 C 
ATOM     28  C   UNL     1      10.619  17.349  17.907  0.00  0.00    +0.000 C 
ATOM     29  C   UNL     1      11.853  16.684  17.320  0.00  0.00    +0.000 C 
ATOM     30  C   UNL     1      12.199  15.411  18.087  0.00  0.00    +0.000 C 
ENDBRANCH  24  25
ENDBRANCH  21  24
ENDBRANCH   4  18
TORSDOF 4
ENDMDL
MODEL 7
REMARK VINA RESULT:      -8.7      0.361      1.311
REMARK  Name = 
REMARK  4 active torsions:
REMARK  status: ('A' for Active; 'I' for Inactive)
REMARK    1  A    between atoms: C_7  and  C_8
REMARK    2  A    between atoms: C_11  and  C_12
REMARK    3  A    between atoms: C_15  and  C_16
REMARK    4  A    between atoms: C_16  and  N_17
REMARK                            x       y       z     vdW  Elec       q    Type
REMARK                         _______ _______ _______ _____ _____    ______ ____
ROOT
ATOM      1  C   UNL     1       0.722  10.082  20.061  0.00  0.00    +0.000 A 
ATOM      2  C   UNL     1       1.099  10.277  18.733  0.00  0.00    +0.000 A 
ATOM      3  C   UNL     1       1.838   9.300  18.076  0.00  0.00    +0.000 A 
ATOM      4  C   UNL     1       2.246   8.125  18.732  0.00  0.00    +0.000 A 
ATOM      5  C   UNL     1       1.881   7.958  20.075  0.00  0.00    +0.000 A 
ATOM      6  C   UNL     1       1.125   8.923  20.730  0.00  0.00    +0.000 A 
ENDROOT
BRANCH   1  13
ATOM      7  F   UNL     1      -4.378  12.649  24.251  0.00  0.00    +0.000 F 
ATOM      8  C   UNL     1      -3.611  12.457  23.169  0.00  0.00    +0.000 A 
ATOM      9  C   UNL     1      -4.079  12.879  21.922  0.00  0.00    +0.000 A 
ATOM     10  C   UNL     1      -3.297  12.761  20.776  0.00  0.00    +0.000 A 
ATOM     11  C   UNL     1      -2.063  12.139  20.958  0.00  0.00    +0.000 A 
ATOM     12  N   UNL     1      -1.083  11.787  20.074  0.00  0.00    +0.000 N 
ATOM     13  C   UNL     1      -0.184  10.990  20.740  0.00  0.00    +0.000 A 
ATOM     14  N   UNL     1      -0.403  11.033  22.040  0.00  0.00    +0.000 NA
ATOM     15  C   UNL     1      -1.594  11.687  22.184  0.00  0.00    +0.000 A 
ATOM     16  C   UNL     1      -2.357  11.879  23.334  0.00  0.00    +0.000 A 
ATOM     17  H   UNL     1      -1.128  11.903  19.070  0.00  0.00    +0.000 HD
ENDBRANCH   1  13
BRANCH   4  18
ATOM     18  C   UNL     1       3.043   7.113  18.024  0.00  0.00    +0.000 A 
ATOM     19  C   UNL     1       2.700   5.754  18.109  0.00  0.00    +0.000 A 
ATOM     20  C   UNL     1       3.443   4.783  17.453  0.00  0.00    +0.000 A 
ATOM     21  C   UNL     1       4.535   5.150  16.664  0.00  0.00    +0.000 A 
ATOM     22  C   UNL     1       4.890   6.499  16.562  0.00  0.00    +0.000 A 
ATOM     23  C   UNL     1       4.157   7.466  17.245  0.00  0.00    +0.000 A 
BRANCH  21  24
ATOM     24  C   UNL     1       5.297   4.093  15.914  0.00  0.00    +0.000 C 
BRANCH  24  25
ATOM     25  N   UNL     1       5.622   4.488  14.527  0.00  0.00    +0.000 NA
ATOM     26  C   UNL     1       7.061   4.775  14.393  0.00  0.00    +0.000 C 
ATOM     27  C   UNL     1       7.520   4.951  12.947  0.00  0.00    +0.000 C 
ATOM     28  C   UNL     1       7.102   3.761  12.100  0.00  0.00    +0.000 C 
ATOM     29  C   UNL     1       5.592   3.600  12.181  0.00  0.00    +0.000 C 
ATOM     30  C   UNL     1       5.142   3.431  13.629  0.00  0.00    +0.000 C 
ENDBRANCH  24  25
ENDBRANCH  21  24
ENDBRANCH   4  18
TORSDOF 4
ENDMDL
MODEL 8
REMARK VINA RESULT:      -8.5      3.821     11.679
REMARK  Name = 
REMARK  4 active torsions:
REMARK  status: ('A' for Active; 'I' for Inactive)
REMARK    1  A    between atoms: C_7  and  C_8
REMARK    2  A    between atoms: C_11  and  C_12
REMARK    3  A    between atoms: C_15  and  C_16
REMARK    4  A    between atoms: C_16  and  N_17
REMARK                            x       y       z     vdW  Elec       q    Type
REMARK                         _______ _______ _______ _____ _____    ______ ____
ROOT
ATOM      1  C   UNL     1       2.467   7.873  18.794  0.00  0.00    +0.000 A 
ATOM      2  C   UNL     1       1.949   7.827  20.088  0.00  0.00    +0.000 A 
ATOM      3  C   UNL     1       0.947   8.717  20.461  0.00  0.00    +0.000 A 
ATOM      4  C   UNL     1       0.463   9.691  19.570  0.00  0.00    +0.000 A 
ATOM      5  C   UNL     1       1.015   9.740  18.282  0.00  0.00    +0.000 A 
ATOM      6  C   UNL     1       2.002   8.839  17.898  0.00  0.00    +0.000 A 
ENDROOT
BRANCH   1  13
ATOM      7  F   UNL     1       8.331   4.056  17.699  0.00  0.00    +0.000 F 
ATOM      8  C   UNL     1       7.201   4.732  17.452  0.00  0.00    +0.000 A 
ATOM      9  C   UNL     1       6.942   5.167  16.150  0.00  0.00    +0.000 A 
ATOM     10  C   UNL     1       5.754   5.819  15.826  0.00  0.00    +0.000 A 
ATOM     11  C   UNL     1       4.894   6.057  16.896  0.00  0.00    +0.000 A 
ATOM     12  N   UNL     1       3.703   6.722  16.974  0.00  0.00    +0.000 N 
ATOM     13  C   UNL     1       3.391   6.866  18.304  0.00  0.00    +0.000 A 
ATOM     14  N   UNL     1       4.178   6.115  19.048  0.00  0.00    +0.000 NA
ATOM     15  C   UNL     1       5.148   5.658  18.201  0.00  0.00    +0.000 A 
ATOM     16  C   UNL     1       6.307   4.942  18.495  0.00  0.00    +0.000 A 
ATOM     17  H   UNL     1       3.251   7.210  16.212  0.00  0.00    +0.000 HD
ENDBRANCH   1  13
BRANCH   4  18
ATOM     18  C   UNL     1      -0.582  10.634  19.990  0.00  0.00    +0.000 A 
ATOM     19  C   UNL     1      -1.549  11.076  19.074  0.00  0.00    +0.000 A 
ATOM     20  C   UNL     1      -2.541  11.971  19.449  0.00  0.00    +0.000 A 
ATOM     21  C   UNL     1      -2.611  12.424  20.768  0.00  0.00    +0.000 A 
ATOM     22  C   UNL     1      -1.660  11.993  21.698  0.00  0.00    +0.000 A 
ATOM     23  C   UNL     1      -0.652  11.116  21.308  0.00  0.00    +0.000 A 
BRANCH  21  24
ATOM     24  C   UNL     1      -3.724  13.350  21.175  0.00  0.00    +0.000 C 
BRANCH  24  25
ATOM     25  N   UNL     1      -4.813  12.662  21.900  0.00  0.00    +0.000 NA
ATOM     26  C   UNL     1      -5.014  13.266  23.229  0.00  0.00    +0.000 C 
ATOM     27  C   UNL     1      -6.275  12.778  23.941  0.00  0.00    +0.000 C 
ATOM     28  C   UNL     1      -7.496  12.950  23.053  0.00  0.00    +0.000 C 
ATOM     29  C   UNL     1      -7.273  12.195  21.752  0.00  0.00    +0.000 C 
ATOM     30  C   UNL     1      -6.011  12.685  21.051  0.00  0.00    +0.000 C 
ENDBRANCH  24  25
ENDBRANCH  21  24
ENDBRANCH   4  18
TORSDOF 4
ENDMDL
MODEL 9
REMARK VINA RESULT:      -8.5      3.808     11.760
REMARK  Name = 
REMARK  4 active torsions:
REMARK  status: ('A' for Active; 'I' for Inactive)
REMARK    1  A    between atoms: C_7  and  C_8
REMARK    2  A    between atoms: C_11  and  C_12
REMARK    3  A    between atoms: C_15  and  C_16
REMARK    4  A    between atoms: C_16  and  N_17
REMARK                            x       y       z     vdW  Elec       q    Type
REMARK                         _______ _______ _______ _____ _____    ______ ____
ROOT
ATOM      1  C   UNL     1       2.399   8.086  18.668  0.00  0.00    +0.000 A 
ATOM      2  C   UNL     1       1.920   8.026  19.975  0.00  0.00    +0.000 A 
ATOM      3  C   UNL     1       0.892   8.875  20.372  0.00  0.00    +0.000 A 
ATOM      4  C   UNL     1       0.344   9.824  19.491  0.00  0.00    +0.000 A 
ATOM      5  C   UNL     1       0.858   9.889  18.188  0.00  0.00    +0.000 A 
ATOM      6  C   UNL     1       1.870   9.028  17.781  0.00  0.00    +0.000 A 
ENDROOT
BRANCH   1  13
ATOM      7  F   UNL     1       6.250   4.071  14.285  0.00  0.00    +0.000 F 
ATOM      8  C   UNL     1       5.489   4.428  15.329  0.00  0.00    +0.000 A 
ATOM      9  C   UNL     1       4.827   3.436  16.056  0.00  0.00    +0.000 A 
ATOM     10  C   UNL     1       4.074   3.746  17.187  0.00  0.00    +0.000 A 
ATOM     11  C   UNL     1       3.980   5.104  17.486  0.00  0.00    +0.000 A 
ATOM     12  N   UNL     1       3.283   5.775  18.449  0.00  0.00    +0.000 N 
ATOM     13  C   UNL     1       3.351   7.117  18.157  0.00  0.00    +0.000 A 
ATOM     14  N   UNL     1       4.255   7.340  17.223  0.00  0.00    +0.000 NA
ATOM     15  C   UNL     1       4.606   6.105  16.758  0.00  0.00    +0.000 A 
ATOM     16  C   UNL     1       5.417   5.773  15.673  0.00  0.00    +0.000 A 
ATOM     17  H   UNL     1       2.651   5.356  19.119  0.00  0.00    +0.000 HD
ENDBRANCH   1  13
BRANCH   4  18
ATOM     18  C   UNL     1      -0.728  10.725  19.937  0.00  0.00    +0.000 A 
ATOM     19  C   UNL     1      -1.707  11.164  19.032  0.00  0.00    +0.000 A 
ATOM     20  C   UNL     1      -2.723  12.020  19.431  0.00  0.00    +0.000 A 
ATOM     21  C   UNL     1      -2.807  12.434  20.762  0.00  0.00    +0.000 A 
ATOM     22  C   UNL     1      -1.844  12.004  21.681  0.00  0.00    +0.000 A 
ATOM     23  C   UNL     1      -0.811  11.168  21.268  0.00  0.00    +0.000 A 
BRANCH  21  24
ATOM     24  C   UNL     1      -3.946  13.316  21.193  0.00  0.00    +0.000 C 
BRANCH  24  25
ATOM     25  N   UNL     1      -4.982  12.591  21.959  0.00  0.00    +0.000 NA
ATOM     26  C   UNL     1      -5.099  13.139  23.322  0.00  0.00    +0.000 C 
ATOM     27  C   UNL     1      -6.307  12.613  24.094  0.00  0.00    +0.000 C 
ATOM     28  C   UNL     1      -7.585  12.811  23.295  0.00  0.00    +0.000 C 
ATOM     29  C   UNL     1      -7.444  12.111  21.953  0.00  0.00    +0.000 C 
ATOM     30  C   UNL     1      -6.232  12.639  21.191  0.00  0.00    +0.000 C 
ENDBRANCH  24  25
ENDBRANCH  21  24
ENDBRANCH   4  18
TORSDOF 4
ENDMDL
