MODEL 1
REMARK VINA RESULT:      -7.3      0.000      0.000
REMARK  Name = 
REMARK  5 active torsions:
REMARK  status: ('A' for Active; 'I' for Inactive)
REMARK    1  A    between atoms: C_2  and  C_3
REMARK    2  A    between atoms: C_3  and  C_4
REMARK    3  A    between atoms: N_6  and  C_7
REMARK    4  A    between atoms: C_10  and  C_11
REMARK    5  A    between atoms: C_16  and  N_17
REMARK                            x       y       z     vdW  Elec       q    Type
REMARK                         _______ _______ _______ _____ _____    ______ ____
ROOT
ATOM      1  C   UNL     1       4.554   3.754  17.410  0.00  0.00    +0.000 A 
ATOM      2  C   UNL     1       3.438   2.898  17.382  0.00  0.00    +0.000 A 
ATOM      3  C   UNL     1       2.410   3.028  18.310  0.00  0.00    +0.000 A 
ATOM      4  C   UNL     1       2.493   4.007  19.295  0.00  0.00    +0.000 A 
ATOM      5  C   UNL     1       3.603   4.877  19.296  0.00  0.00    +0.000 A 
ATOM      6  C   UNL     1       4.655   4.801  18.359  0.00  0.00    +0.000 A 
ENDROOT
BRANCH   6   7
ATOM      7  N   UNL     1       5.738   5.661  18.499  0.00  0.00    +0.000 N 
ATOM      8  C   UNL     1       5.877   6.951  17.802  0.00  0.00    +0.000 C 
ATOM      9  C   UNL     1       7.338   7.218  17.410  0.00  0.00    +0.000 C 
ATOM     10  O   UNL     1       8.222   7.092  18.531  0.00  0.00    +0.000 OA
ATOM     11  C   UNL     1       8.137   5.764  19.072  0.00  0.00    +0.000 C 
ATOM     12  C   UNL     1       6.720   5.469  19.587  0.00  0.00    +0.000 C 
ENDBRANCH   6   7
BRANCH   1  15
ATOM     13  C   UNL     1       5.548   4.374  15.281  0.00  0.00    +0.000 C 
ATOM     14  O   UNL     1       4.803   5.334  15.102  0.00  0.00    +0.000 OA
ATOM     15  N   UNL     1       5.539   3.560  16.411  0.00  0.00    +0.000 N 
ATOM     16  H   UNL     1       5.864   2.609  16.313  0.00  0.00    +0.000 HD
BRANCH  13  17
ATOM     17  C   UNL     1       6.564   3.998  14.242  0.00  0.00    +0.000 C 
BRANCH  17  19
ATOM     18  N   UNL     1       5.398   3.141  11.867  0.00  0.00    +0.000 NA
ATOM     19  C   UNL     1       5.927   3.530  12.944  0.00  0.00    +0.000 C 
ENDBRANCH  17  19
ENDBRANCH  13  17
ENDBRANCH   1  15
BRANCH   4  20
ATOM     20  C   UNL     1       1.448   4.115  20.378  0.00  0.00    +0.000 C 
ATOM     21  F   UNL     1       0.281   3.481  20.076  0.00  0.00    +0.000 F 
ATOM     22  F   UNL     1       1.865   3.582  21.561  0.00  0.00    +0.000 F 
ATOM     23  F   UNL     1       1.108   5.406  20.650  0.00  0.00    +0.000 F 
ENDBRANCH   4  20
TORSDOF 5
ENDMDL
MODEL 2
REMARK VINA RESULT:      -7.3      0.964      1.312
REMARK  Name = 
REMARK  5 active torsions:
REMARK  status: ('A' for Active; 'I' for Inactive)
REMARK    1  A    between atoms: C_2  and  C_3
REMARK    2  A    between atoms: C_3  and  C_4
REMARK    3  A    between atoms: N_6  and  C_7
REMARK    4  A    between atoms: C_10  and  C_11
REMARK    5  A    between atoms: C_16  and  N_17
REMARK                            x       y       z     vdW  Elec       q    Type
REMARK                         _______ _______ _______ _____ _____    ______ ____
ROOT
ATOM      1  C   UNL     1       4.428   3.719  17.488  0.00  0.00    +0.000 A 
ATOM      2  C   UNL     1       3.288   2.896  17.520  0.00  0.00    +0.000 A 
ATOM      3  C   UNL     1       2.281   3.100  18.458  0.00  0.00    +0.000 A 
ATOM      4  C   UNL     1       2.409   4.122  19.394  0.00  0.00    +0.000 A 
ATOM      5  C   UNL     1       3.544   4.958  19.334  0.00  0.00    +0.000 A 
ATOM      6  C   UNL     1       4.576   4.807  18.384  0.00  0.00    +0.000 A 
ENDROOT
BRANCH   6   7
ATOM      7  N   UNL     1       5.685   5.641  18.464  0.00  0.00    +0.000 N 
ATOM      8  C   UNL     1       5.856   6.880  17.688  0.00  0.00    +0.000 C 
ATOM      9  C   UNL     1       7.321   7.080  17.271  0.00  0.00    +0.000 C 
ATOM     10  O   UNL     1       8.211   6.996  18.393  0.00  0.00    +0.000 OA
ATOM     11  C   UNL     1       8.091   5.707  19.015  0.00  0.00    +0.000 C 
ATOM     12  C   UNL     1       6.669   5.486  19.556  0.00  0.00    +0.000 C 
ENDBRANCH   6   7
BRANCH   1  15
ATOM     13  C   UNL     1       5.404   4.214  15.319  0.00  0.00    +0.000 C 
ATOM     14  O   UNL     1       4.688   5.190  15.110  0.00  0.00    +0.000 OA
ATOM     15  N   UNL     1       5.388   3.450  16.482  0.00  0.00    +0.000 N 
ATOM     16  H   UNL     1       5.680   2.486  16.420  0.00  0.00    +0.000 HD
BRANCH  13  17
ATOM     17  C   UNL     1       6.389   3.760  14.280  0.00  0.00    +0.000 C 
BRANCH  17  19
ATOM     18  N   UNL     1       8.210   5.746  13.593  0.00  0.00    +0.000 NA
ATOM     19  C   UNL     1       7.384   4.845  13.904  0.00  0.00    +0.000 C 
ENDBRANCH  17  19
ENDBRANCH  13  17
ENDBRANCH   1  15
BRANCH   4  20
ATOM     20  C   UNL     1       1.388   4.311  20.488  0.00  0.00    +0.000 C 
ATOM     21  F   UNL     1       1.147   5.617  20.790  0.00  0.00    +0.000 F 
ATOM     22  F   UNL     1       0.177   3.772  20.171  0.00  0.00    +0.000 F 
ATOM     23  F   UNL     1       1.762   3.724  21.659  0.00  0.00    +0.000 F 
ENDBRANCH   4  20
TORSDOF 5
ENDMDL
MODEL 3
REMARK VINA RESULT:      -7.2      4.446      6.715
REMARK  Name = 
REMARK  5 active torsions:
REMARK  status: ('A' for Active; 'I' for Inactive)
REMARK    1  A    between atoms: C_2  and  C_3
REMARK    2  A    between atoms: C_3  and  C_4
REMARK    3  A    between atoms: N_6  and  C_7
REMARK    4  A    between atoms: C_10  and  C_11
REMARK    5  A    between atoms: C_16  and  N_17
REMARK                            x       y       z     vdW  Elec       q    Type
REMARK                         _______ _______ _______ _____ _____    ______ ____
ROOT
ATOM      1  C   UNL     1       3.714   6.098  18.127  0.00  0.00    +0.000 A 
ATOM      2  C   UNL     1       4.467   6.920  17.270  0.00  0.00    +0.000 A 
ATOM      3  C   UNL     1       5.131   6.392  16.168  0.00  0.00    +0.000 A 
ATOM      4  C   UNL     1       5.066   5.025  15.916  0.00  0.00    +0.000 A 
ATOM      5  C   UNL     1       4.285   4.214  16.766  0.00  0.00    +0.000 A 
ATOM      6  C   UNL     1       3.573   4.710  17.879  0.00  0.00    +0.000 A 
ENDROOT
BRANCH   6   7
ATOM      7  N   UNL     1       2.895   3.810  18.693  0.00  0.00    +0.000 N 
ATOM      8  C   UNL     1       1.466   3.479  18.565  0.00  0.00    +0.000 C 
ATOM      9  C   UNL     1       0.820   3.257  19.941  0.00  0.00    +0.000 C 
ATOM     10  O   UNL     1       1.546   2.300  20.723  0.00  0.00    +0.000 OA
ATOM     11  C   UNL     1       2.892   2.758  20.927  0.00  0.00    +0.000 C 
ATOM     12  C   UNL     1       3.636   2.896  19.589  0.00  0.00    +0.000 C 
ENDBRANCH   6   7
BRANCH   1  15
ATOM     13  C   UNL     1       2.158   7.765  18.965  0.00  0.00    +0.000 C 
ATOM     14  O   UNL     1       1.811   8.144  17.849  0.00  0.00    +0.000 OA
ATOM     15  N   UNL     1       3.054   6.729  19.209  0.00  0.00    +0.000 N 
ATOM     16  H   UNL     1       3.577   6.748  20.073  0.00  0.00    +0.000 HD
BRANCH  13  17
ATOM     17  C   UNL     1       1.612   8.430  20.195  0.00  0.00    +0.000 C 
BRANCH  17  19
ATOM     18  N   UNL     1      -0.063  10.570  19.602  0.00  0.00    +0.000 NA
ATOM     19  C   UNL     1       0.697   9.600  19.871  0.00  0.00    +0.000 C 
ENDBRANCH  17  19
ENDBRANCH  13  17
ENDBRANCH   1  15
BRANCH   4  20
ATOM     20  C   UNL     1       5.853   4.400  14.790  0.00  0.00    +0.000 C 
ATOM     21  F   UNL     1       6.380   3.184  15.102  0.00  0.00    +0.000 F 
ATOM     22  F   UNL     1       5.097   4.204  13.673  0.00  0.00    +0.000 F 
ATOM     23  F   UNL     1       6.905   5.171  14.398  0.00  0.00    +0.000 F 
ENDBRANCH   4  20
TORSDOF 5
ENDMDL
MODEL 4
REMARK VINA RESULT:      -7.1      3.102      4.694
REMARK  Name = 
REMARK  5 active torsions:
REMARK  status: ('A' for Active; 'I' for Inactive)
REMARK    1  A    between atoms: C_2  and  C_3
REMARK    2  A    between atoms: C_3  and  C_4
REMARK    3  A    between atoms: N_6  and  C_7
REMARK    4  A    between atoms: C_10  and  C_11
REMARK    5  A    between atoms: C_16  and  N_17
REMARK                            x       y       z     vdW  Elec       q    Type
REMARK                         _______ _______ _______ _____ _____    ______ ____
ROOT
ATOM      1  C   UNL     1       3.420   5.297  18.828  0.00  0.00    +0.000 A 
ATOM      2  C   UNL     1       2.280   5.716  19.537  0.00  0.00    +0.000 A 
ATOM      3  C   UNL     1       1.740   6.983  19.345  0.00  0.00    +0.000 A 
ATOM      4  C   UNL     1       2.346   7.861  18.451  0.00  0.00    +0.000 A 
ATOM      5  C   UNL     1       3.472   7.420  17.724  0.00  0.00    +0.000 A 
ATOM      6  C   UNL     1       4.037   6.135  17.866  0.00  0.00    +0.000 A 
ENDROOT
BRANCH   6   7
ATOM      7  N   UNL     1       5.193   5.831  17.156  0.00  0.00    +0.000 N 
ATOM      8  C   UNL     1       5.251   5.638  15.697  0.00  0.00    +0.000 C 
ATOM      9  C   UNL     1       6.251   4.534  15.320  0.00  0.00    +0.000 C 
ATOM     10  O   UNL     1       7.541   4.762  15.905  0.00  0.00    +0.000 OA
ATOM     11  C   UNL     1       7.428   4.798  17.336  0.00  0.00    +0.000 C 
ATOM     12  C   UNL     1       6.524   5.955  17.789  0.00  0.00    +0.000 C 
ENDBRANCH   6   7
BRANCH   1  15
ATOM     13  C   UNL     1       3.381   2.921  18.325  0.00  0.00    +0.000 C 
ATOM     14  O   UNL     1       2.604   3.033  17.381  0.00  0.00    +0.000 OA
ATOM     15  N   UNL     1       3.883   3.982  19.072  0.00  0.00    +0.000 N 
ATOM     16  H   UNL     1       4.163   3.800  20.026  0.00  0.00    +0.000 HD
BRANCH  13  17
ATOM     17  C   UNL     1       3.861   1.564  18.754  0.00  0.00    +0.000 C 
BRANCH  17  19
ATOM     18  N   UNL     1       5.270   1.635  21.150  0.00  0.00    +0.000 NA
ATOM     19  C   UNL     1       4.631   1.603  20.064  0.00  0.00    +0.000 C 
ENDBRANCH  17  19
ENDBRANCH  13  17
ENDBRANCH   1  15
BRANCH   4  20
ATOM     20  C   UNL     1       1.850   9.277  18.289  0.00  0.00    +0.000 C 
ATOM     21  F   UNL     1       2.781  10.126  17.771  0.00  0.00    +0.000 F 
ATOM     22  F   UNL     1       0.770   9.359  17.462  0.00  0.00    +0.000 F 
ATOM     23  F   UNL     1       1.459   9.831  19.470  0.00  0.00    +0.000 F 
ENDBRANCH   4  20
TORSDOF 5
ENDMDL
MODEL 5
REMARK VINA RESULT:      -7.1      3.960      6.256
REMARK  Name = 
REMARK  5 active torsions:
REMARK  status: ('A' for Active; 'I' for Inactive)
REMARK    1  A    between atoms: C_2  and  C_3
REMARK    2  A    between atoms: C_3  and  C_4
REMARK    3  A    between atoms: N_6  and  C_7
REMARK    4  A    between atoms: C_10  and  C_11
REMARK    5  A    between atoms: C_16  and  N_17
REMARK                            x       y       z     vdW  Elec       q    Type
REMARK                         _______ _______ _______ _____ _____    ______ ____
ROOT
ATOM      1  C   UNL     1       6.736   4.841  15.788  0.00  0.00    +0.000 A 
ATOM      2  C   UNL     1       7.518   4.839  14.619  0.00  0.00    +0.000 A 
ATOM      3  C   UNL     1       7.003   4.381  13.412  0.00  0.00    +0.000 A 
ATOM      4  C   UNL     1       5.699   3.898  13.358  0.00  0.00    +0.000 A 
ATOM      5  C   UNL     1       4.915   3.931  14.531  0.00  0.00    +0.000 A 
ATOM      6  C   UNL     1       5.386   4.413  15.771  0.00  0.00    +0.000 A 
ENDROOT
BRANCH   6   7
ATOM      7  N   UNL     1       4.552   4.329  16.880  0.00  0.00    +0.000 N 
ATOM      8  C   UNL     1       3.810   5.463  17.456  0.00  0.00    +0.000 C 
ATOM      9  C   UNL     1       3.749   5.369  18.988  0.00  0.00    +0.000 C 
ATOM     10  O   UNL     1       3.251   4.097  19.424  0.00  0.00    +0.000 OA
ATOM     11  C   UNL     1       4.104   3.047  18.942  0.00  0.00    +0.000 C 
ATOM     12  C   UNL     1       4.124   3.015  17.406  0.00  0.00    +0.000 C 
ENDBRANCH   6   7
BRANCH   1  15
ATOM     13  C   UNL     1       7.262   6.709  17.251  0.00  0.00    +0.000 C 
ATOM     14  O   UNL     1       6.628   7.529  16.594  0.00  0.00    +0.000 OA
ATOM     15  N   UNL     1       7.338   5.348  16.965  0.00  0.00    +0.000 N 
ATOM     16  H   UNL     1       8.156   4.843  17.276  0.00  0.00    +0.000 HD
BRANCH  13  17
ATOM     17  C   UNL     1       8.036   7.143  18.462  0.00  0.00    +0.000 C 
BRANCH  17  19
ATOM     18  N   UNL     1       8.056   5.216  20.467  0.00  0.00    +0.000 NA
ATOM     19  C   UNL     1       8.047   6.089  19.558  0.00  0.00    +0.000 C 
ENDBRANCH  17  19
ENDBRANCH  13  17
ENDBRANCH   1  15
BRANCH   4  20
ATOM     20  C   UNL     1       5.139   3.301  12.091  0.00  0.00    +0.000 C 
ATOM     21  F   UNL     1       3.778   3.231  12.076  0.00  0.00    +0.000 F 
ATOM     22  F   UNL     1       5.487   4.011  10.981  0.00  0.00    +0.000 F 
ATOM     23  F   UNL     1       5.577   2.030  11.874  0.00  0.00    +0.000 F 
ENDBRANCH   4  20
TORSDOF 5
ENDMDL
MODEL 6
REMARK VINA RESULT:      -7.0      4.092      6.326
REMARK  Name = 
REMARK  5 active torsions:
REMARK  status: ('A' for Active; 'I' for Inactive)
REMARK    1  A    between atoms: C_2  and  C_3
REMARK    2  A    between atoms: C_3  and  C_4
REMARK    3  A    between atoms: N_6  and  C_7
REMARK    4  A    between atoms: C_10  and  C_11
REMARK    5  A    between atoms: C_16  and  N_17
REMARK                            x       y       z     vdW  Elec       q    Type
REMARK                         _______ _______ _______ _____ _____    ______ ____
ROOT
ATOM      1  C   UNL     1       6.845   4.968  15.892  0.00  0.00    +0.000 A 
ATOM      2  C   UNL     1       7.631   4.985  14.725  0.00  0.00    +0.000 A 
ATOM      3  C   UNL     1       7.133   4.507  13.518  0.00  0.00    +0.000 A 
ATOM      4  C   UNL     1       5.844   3.985  13.463  0.00  0.00    +0.000 A 
ATOM      5  C   UNL     1       5.056   3.998  14.634  0.00  0.00    +0.000 A 
ATOM      6  C   UNL     1       5.509   4.498  15.873  0.00  0.00    +0.000 A 
ENDROOT
BRANCH   6   7
ATOM      7  N   UNL     1       4.675   4.393  16.980  0.00  0.00    +0.000 N 
ATOM      8  C   UNL     1       3.909   5.510  17.558  0.00  0.00    +0.000 C 
ATOM      9  C   UNL     1       3.847   5.410  19.090  0.00  0.00    +0.000 C 
ATOM     10  O   UNL     1       3.375   4.127  19.522  0.00  0.00    +0.000 OA
ATOM     11  C   UNL     1       4.251   3.097  19.038  0.00  0.00    +0.000 C 
ATOM     12  C   UNL     1       4.275   3.069  17.502  0.00  0.00    +0.000 C 
ENDBRANCH   6   7
BRANCH   1  15
ATOM     13  C   UNL     1       7.326   6.858  17.341  0.00  0.00    +0.000 C 
ATOM     14  O   UNL     1       6.681   7.661  16.671  0.00  0.00    +0.000 OA
ATOM     15  N   UNL     1       7.429   5.497  17.069  0.00  0.00    +0.000 N 
ATOM     16  H   UNL     1       8.254   5.011  17.391  0.00  0.00    +0.000 HD
BRANCH  13  17
ATOM     17  C   UNL     1       8.082   7.318  18.553  0.00  0.00    +0.000 C 
BRANCH  17  19
ATOM     18  N   UNL     1       8.831   9.992  18.399  0.00  0.00    +0.000 NA
ATOM     19  C   UNL     1       8.491   8.779  18.469  0.00  0.00    +0.000 C 
ENDBRANCH  17  19
ENDBRANCH  13  17
ENDBRANCH   1  15
BRANCH   4  20
ATOM     20  C   UNL     1       5.305   3.366  12.197  0.00  0.00    +0.000 C 
ATOM     21  F   UNL     1       5.554   2.031  12.093  0.00  0.00    +0.000 F 
ATOM     22  F   UNL     1       3.954   3.503  12.084  0.00  0.00    +0.000 F 
ATOM     23  F   UNL     1       5.833   3.929  11.075  0.00  0.00    +0.000 F 
ENDBRANCH   4  20
TORSDOF 5
ENDMDL
MODEL 7
REMARK VINA RESULT:      -7.0      3.786      5.838
REMARK  Name = 
REMARK  5 active torsions:
REMARK  status: ('A' for Active; 'I' for Inactive)
REMARK    1  A    between atoms: C_2  and  C_3
REMARK    2  A    between atoms: C_3  and  C_4
REMARK    3  A    between atoms: N_6  and  C_7
REMARK    4  A    between atoms: C_10  and  C_11
REMARK    5  A    between atoms: C_16  and  N_17
REMARK                            x       y       z     vdW  Elec       q    Type
REMARK                         _______ _______ _______ _____ _____    ______ ____
ROOT
ATOM      1  C   UNL     1       2.407   6.423  20.055  0.00  0.00    +0.000 A 
ATOM      2  C   UNL     1       1.669   7.302  20.868  0.00  0.00    +0.000 A 
ATOM      3  C   UNL     1       1.227   8.528  20.382  0.00  0.00    +0.000 A 
ATOM      4  C   UNL     1       1.535   8.904  19.078  0.00  0.00    +0.000 A 
ATOM      5  C   UNL     1       2.252   8.002  18.264  0.00  0.00    +0.000 A 
ATOM      6  C   UNL     1       2.696   6.737  18.705  0.00  0.00    +0.000 A 
ENDROOT
BRANCH   6   7
ATOM      7  N   UNL     1       3.461   5.960  17.842  0.00  0.00    +0.000 N 
ATOM      8  C   UNL     1       3.100   4.603  17.398  0.00  0.00    +0.000 C 
ATOM      9  C   UNL     1       4.344   3.711  17.266  0.00  0.00    +0.000 C 
ATOM     10  O   UNL     1       5.350   4.318  16.444  0.00  0.00    +0.000 OA
ATOM     11  C   UNL     1       5.754   5.572  17.015  0.00  0.00    +0.000 C 
ATOM     12  C   UNL     1       4.575   6.556  17.075  0.00  0.00    +0.000 C 
ENDBRANCH   6   7
BRANCH   1  15
ATOM     13  C   UNL     1       1.869   4.152  20.730  0.00  0.00    +0.000 C 
ATOM     14  O   UNL     1       0.728   4.183  20.277  0.00  0.00    +0.000 OA
ATOM     15  N   UNL     1       2.793   5.188  20.629  0.00  0.00    +0.000 N 
ATOM     16  H   UNL     1       3.511   5.253  21.337  0.00  0.00    +0.000 HD
BRANCH  13  17
ATOM     17  C   UNL     1       2.361   2.936  21.459  0.00  0.00    +0.000 C 
BRANCH  17  19
ATOM     18  N   UNL     1       4.759   1.970  20.433  0.00  0.00    +0.000 NA
ATOM     19  C   UNL     1       3.671   2.408  20.898  0.00  0.00    +0.000 C 
ENDBRANCH  17  19
ENDBRANCH  13  17
ENDBRANCH   1  15
BRANCH   4  20
ATOM     20  C   UNL     1       1.159  10.265  18.548  0.00  0.00    +0.000 C 
ATOM     21  F   UNL     1       0.956  11.194  19.524  0.00  0.00    +0.000 F 
ATOM     22  F   UNL     1       2.116  10.789  17.730  0.00  0.00    +0.000 F 
ATOM     23  F   UNL     1       0.013  10.243  17.814  0.00  0.00    +0.000 F 
ENDBRANCH   4  20
TORSDOF 5
ENDMDL
MODEL 8
REMARK VINA RESULT:      -7.0      3.970      6.430
REMARK  Name = 
REMARK  5 active torsions:
REMARK  status: ('A' for Active; 'I' for Inactive)
REMARK    1  A    between atoms: C_2  and  C_3
REMARK    2  A    between atoms: C_3  and  C_4
REMARK    3  A    between atoms: N_6  and  C_7
REMARK    4  A    between atoms: C_10  and  C_11
REMARK    5  A    between atoms: C_16  and  N_17
REMARK                            x       y       z     vdW  Elec       q    Type
REMARK                         _______ _______ _______ _____ _____    ______ ____
ROOT
ATOM      1  C   UNL     1       6.708   4.772  15.666  0.00  0.00    +0.000 A 
ATOM      2  C   UNL     1       7.460   4.813  14.478  0.00  0.00    +0.000 A 
ATOM      3  C   UNL     1       6.928   4.362  13.275  0.00  0.00    +0.000 A 
ATOM      4  C   UNL     1       5.638   3.843  13.246  0.00  0.00    +0.000 A 
ATOM      5  C   UNL     1       4.883   3.832  14.437  0.00  0.00    +0.000 A 
ATOM      6  C   UNL     1       5.371   4.304  15.674  0.00  0.00    +0.000 A 
ENDROOT
BRANCH   6   7
ATOM      7  N   UNL     1       4.569   4.176  16.802  0.00  0.00    +0.000 N 
ATOM      8  C   UNL     1       4.530   2.986  17.669  0.00  0.00    +0.000 C 
ATOM      9  C   UNL     1       3.108   2.719  18.186  0.00  0.00    +0.000 C 
ATOM     10  O   UNL     1       2.539   3.881  18.806  0.00  0.00    +0.000 OA
ATOM     11  C   UNL     1       2.480   4.959  17.859  0.00  0.00    +0.000 C 
ATOM     12  C   UNL     1       3.887   5.352  17.382  0.00  0.00    +0.000 C 
ENDBRANCH   6   7
BRANCH   1  15
ATOM     13  C   UNL     1       7.214   6.626  17.153  0.00  0.00    +0.000 C 
ATOM     14  O   UNL     1       6.535   7.438  16.530  0.00  0.00    +0.000 OA
ATOM     15  N   UNL     1       7.326   5.275  16.837  0.00  0.00    +0.000 N 
ATOM     16  H   UNL     1       8.168   4.791  17.115  0.00  0.00    +0.000 HD
BRANCH  13  17
ATOM     17  C   UNL     1       8.006   7.061  18.352  0.00  0.00    +0.000 C 
BRANCH  17  19
ATOM     18  N   UNL     1       7.852   5.245  20.452  0.00  0.00    +0.000 NA
ATOM     19  C   UNL     1       7.922   6.069  19.500  0.00  0.00    +0.000 C 
ENDBRANCH  17  19
ENDBRANCH  13  17
ENDBRANCH   1  15
BRANCH   4  20
ATOM     20  C   UNL     1       5.062   3.252  11.982  0.00  0.00    +0.000 C 
ATOM     21  F   UNL     1       3.709   3.099  12.018  0.00  0.00    +0.000 F 
ATOM     22  F   UNL     1       5.321   4.017  10.884  0.00  0.00    +0.000 F 
ATOM     23  F   UNL     1       5.568   2.018  11.705  0.00  0.00    +0.000 F 
ENDBRANCH   4  20
TORSDOF 5
ENDMDL
MODEL 9
REMARK VINA RESULT:      -6.9      4.309      6.733
REMARK  Name = 
REMARK  5 active torsions:
REMARK  status: ('A' for Active; 'I' for Inactive)
REMARK    1  A    between atoms: C_2  and  C_3
REMARK    2  A    between atoms: C_3  and  C_4
REMARK    3  A    between atoms: N_6  and  C_7
REMARK    4  A    between atoms: C_10  and  C_11
REMARK    5  A    between atoms: C_16  and  N_17
REMARK                            x       y       z     vdW  Elec       q    Type
REMARK                         _______ _______ _______ _____ _____    ______ ____
ROOT
ATOM      1  C   UNL     1       3.387   6.627  18.145  0.00  0.00    +0.000 A 
ATOM      2  C   UNL     1       4.285   7.290  17.290  0.00  0.00    +0.000 A 
ATOM      3  C   UNL     1       5.197   6.580  16.516  0.00  0.00    +0.000 A 
ATOM      4  C   UNL     1       5.237   5.191  16.601  0.00  0.00    +0.000 A 
ATOM      5  C   UNL     1       4.312   4.536  17.441  0.00  0.00    +0.000 A 
ATOM      6  C   UNL     1       3.351   5.213  18.222  0.00  0.00    +0.000 A 
ENDROOT
BRANCH   6   7
ATOM      7  N   UNL     1       2.539   4.472  19.072  0.00  0.00    +0.000 N 
ATOM      8  C   UNL     1       2.600   4.523  20.542  0.00  0.00    +0.000 C 
ATOM      9  C   UNL     1       2.345   3.140  21.160  0.00  0.00    +0.000 C 
ATOM     10  O   UNL     1       1.130   2.555  20.673  0.00  0.00    +0.000 OA
ATOM     11  C   UNL     1       1.199   2.405  19.246  0.00  0.00    +0.000 C 
ATOM     12  C   UNL     1       1.344   3.771  18.555  0.00  0.00    +0.000 C 
ENDBRANCH   6   7
BRANCH   1  15
ATOM     13  C   UNL     1       1.965   8.591  18.301  0.00  0.00    +0.000 C 
ATOM     14  O   UNL     1       2.168   8.951  17.144  0.00  0.00    +0.000 OA
ATOM     15  N   UNL     1       2.480   7.433  18.876  0.00  0.00    +0.000 N 
ATOM     16  H   UNL     1       2.609   7.417  19.877  0.00  0.00    +0.000 HD
BRANCH  13  17
ATOM     17  C   UNL     1       1.108   9.420  19.213  0.00  0.00    +0.000 C 
BRANCH  17  19
ATOM     18  N   UNL     1       1.160   8.520  21.843  0.00  0.00    +0.000 NA
ATOM     19  C   UNL     1       1.137   8.928  20.650  0.00  0.00    +0.000 C 
ENDBRANCH  17  19
ENDBRANCH  13  17
ENDBRANCH   1  15
BRANCH   4  20
ATOM     20  C   UNL     1       6.276   4.393  15.854  0.00  0.00    +0.000 C 
ATOM     21  F   UNL     1       6.611   4.927  14.646  0.00  0.00    +0.000 F 
ATOM     22  F   UNL     1       7.444   4.279  16.547  0.00  0.00    +0.000 F 
ATOM     23  F   UNL     1       5.870   3.119  15.595  0.00  0.00    +0.000 F 
ENDBRANCH   4  20
TORSDOF 5
ENDMDL
