MODEL 1
REMARK VINA RESULT:      -8.6      0.000      0.000
REMARK  Name = 
REMARK  5 active torsions:
REMARK  status: ('A' for Active; 'I' for Inactive)
REMARK    1  A    between atoms: C_1  and  C_2
REMARK    2  A    between atoms: C_4  and  C_5
REMARK    3  A    between atoms: C_7  and  N_8
REMARK    4  A    between atoms: N_13  and  C_14
REMARK    5  A    between atoms: N_22  and  C_23
REMARK                            x       y       z     vdW  Elec       q    Type
REMARK                         _______ _______ _______ _____ _____    ______ ____
ROOT
ATOM      1  N   UNL     1       5.143   5.755  16.965  0.00  0.00    +0.000 NA
ATOM      2  C   UNL     1       6.263   6.383  16.844  0.00  0.00    +0.000 C 
ATOM      3  N   UNL     1       6.558   7.513  17.597  0.00  0.00    +0.000 N 
ATOM      4  C   UNL     1       7.740   8.239  17.536  0.00  0.00    +0.000 C 
ATOM      5  O   UNL     1       8.649   7.922  16.772  0.00  0.00    +0.000 OA
ATOM      6  N   UNL     1       7.783   9.303  18.417  0.00  0.00    +0.000 N 
ATOM      7  N   UNL     1       7.222   5.962  15.945  0.00  0.00    +0.000 N 
ATOM      8  H   UNL     1       5.808   7.811  18.207  0.00  0.00    +0.000 HD
ATOM      9  H   UNL     1       6.990   9.412  19.035  0.00  0.00    +0.000 HD
ATOM     10  H   UNL     1       8.062   6.539  15.933  0.00  0.00    +0.000 HD
ENDROOT
BRANCH   1  17
ATOM     11  C   UNL     1       2.147   9.174  17.895  0.00  0.00    +0.000 C 
ATOM     12  C   UNL     1       2.588   7.777  18.200  0.00  0.00    +0.000 A 
ATOM     13  C   UNL     1       2.132   7.093  19.305  0.00  0.00    +0.000 A 
ATOM     14  C   UNL     1       2.687   5.843  19.540  0.00  0.00    +0.000 A 
ATOM     15  C   UNL     1       2.203   5.027  20.702  0.00  0.00    +0.000 C 
ATOM     16  N   UNL     1       3.655   5.302  18.759  0.00  0.00    +0.000 NA
ATOM     17  C   UNL     1       4.037   6.067  17.723  0.00  0.00    +0.000 A 
ATOM     18  N   UNL     1       3.532   7.266  17.401  0.00  0.00    +0.000 NA
ENDBRANCH   1  17
BRANCH   6  19
ATOM     19  C   UNL     1       8.909  10.129  18.670  0.00  0.00    +0.000 A 
ATOM     20  C   UNL     1       9.558  10.204  19.907  0.00  0.00    +0.000 A 
ATOM     21  C   UNL     1      10.559  11.158  20.141  0.00  0.00    +0.000 A 
ATOM     22  C   UNL     1      10.939  12.034  19.130  0.00  0.00    +0.000 A 
ATOM     23 CL   UNL     1      12.098  13.253  19.516  0.00  0.00    +0.000 Cl
ATOM     24  C   UNL     1      10.359  11.913  17.864  0.00  0.00    +0.000 A 
ATOM     25 CL   UNL     1      10.813  12.933  16.544  0.00  0.00    +0.000 Cl
ATOM     26  C   UNL     1       9.356  10.958  17.634  0.00  0.00    +0.000 A 
ENDBRANCH   6  19
BRANCH   7  27
ATOM     27  C   UNL     1       7.032   5.232  14.752  0.00  0.00    +0.000 A 
ATOM     28  C   UNL     1       7.816   5.572  13.638  0.00  0.00    +0.000 A 
ATOM     29  C   UNL     1       7.663   4.917  12.411  0.00  0.00    +0.000 A 
ATOM     30  C   UNL     1       6.726   3.898  12.279  0.00  0.00    +0.000 A 
ATOM     31  C   UNL     1       5.944   3.540  13.372  0.00  0.00    +0.000 A 
ATOM     32  C   UNL     1       6.099   4.200  14.596  0.00  0.00    +0.000 A 
ENDBRANCH   7  27
TORSDOF 3
ENDMDL
MODEL 2
REMARK VINA RESULT:      -8.3      4.218      7.661
REMARK  Name = 
REMARK  5 active torsions:
REMARK  status: ('A' for Active; 'I' for Inactive)
REMARK    1  A    between atoms: C_1  and  C_2
REMARK    2  A    between atoms: C_4  and  C_5
REMARK    3  A    between atoms: C_7  and  N_8
REMARK    4  A    between atoms: N_13  and  C_14
REMARK    5  A    between atoms: N_22  and  C_23
REMARK                            x       y       z     vdW  Elec       q    Type
REMARK                         _______ _______ _______ _____ _____    ______ ____
ROOT
ATOM      1  N   UNL     1       3.789   5.129  17.766  0.00  0.00    +0.000 NA
ATOM      2  C   UNL     1       2.974   6.029  18.202  0.00  0.00    +0.000 C 
ATOM      3  N   UNL     1       3.156   7.379  17.930  0.00  0.00    +0.000 N 
ATOM      4  C   UNL     1       2.323   8.408  18.349  0.00  0.00    +0.000 C 
ATOM      5  O   UNL     1       1.322   8.186  19.028  0.00  0.00    +0.000 OA
ATOM      6  N   UNL     1       2.721   9.657  17.913  0.00  0.00    +0.000 N 
ATOM      7  N   UNL     1       1.881   5.687  18.972  0.00  0.00    +0.000 N 
ATOM      8  H   UNL     1       3.994   7.586  17.402  0.00  0.00    +0.000 HD
ATOM      9  H   UNL     1       3.529   9.688  17.307  0.00  0.00    +0.000 HD
ATOM     10  H   UNL     1       1.313   6.482  19.264  0.00  0.00    +0.000 HD
ENDROOT
BRANCH   1  17
ATOM     11  C   UNL     1       7.669   7.665  17.568  0.00  0.00    +0.000 C 
ATOM     12  C   UNL     1       6.864   6.558  16.965  0.00  0.00    +0.000 A 
ATOM     13  C   UNL     1       7.156   6.036  15.724  0.00  0.00    +0.000 A 
ATOM     14  C   UNL     1       6.281   5.083  15.224  0.00  0.00    +0.000 A 
ATOM     15  C   UNL     1       6.565   4.443  13.898  0.00  0.00    +0.000 C 
ATOM     16  N   UNL     1       5.166   4.682  15.884  0.00  0.00    +0.000 NA
ATOM     17  C   UNL     1       4.970   5.272  17.075  0.00  0.00    +0.000 A 
ATOM     18  N   UNL     1       5.780   6.173  17.648  0.00  0.00    +0.000 NA
ENDBRANCH   1  17
BRANCH   6  19
ATOM     19  C   UNL     1       1.993  10.865  18.071  0.00  0.00    +0.000 A 
ATOM     20  C   UNL     1       2.561  12.138  17.958  0.00  0.00    +0.000 A 
ATOM     21  C   UNL     1       1.829  13.288  18.287  0.00  0.00    +0.000 A 
ATOM     22  C   UNL     1       0.509  13.178  18.712  0.00  0.00    +0.000 A 
ATOM     23 CL   UNL     1      -0.300  14.620  19.204  0.00  0.00    +0.000 Cl
ATOM     24  C   UNL     1      -0.097  11.919  18.747  0.00  0.00    +0.000 A 
ATOM     25 CL   UNL     1      -1.747  11.706  19.218  0.00  0.00    +0.000 Cl
ATOM     26  C   UNL     1       0.640  10.770  18.418  0.00  0.00    +0.000 A 
ENDBRANCH   6  19
BRANCH   7  27
ATOM     27  C   UNL     1       1.726   4.558  19.805  0.00  0.00    +0.000 A 
ATOM     28  C   UNL     1       2.295   4.601  21.089  0.00  0.00    +0.000 A 
ATOM     29  C   UNL     1       2.212   3.510  21.959  0.00  0.00    +0.000 A 
ATOM     30  C   UNL     1       1.546   2.354  21.566  0.00  0.00    +0.000 A 
ATOM     31  C   UNL     1       0.969   2.292  20.302  0.00  0.00    +0.000 A 
ATOM     32  C   UNL     1       1.057   3.386  19.433  0.00  0.00    +0.000 A 
ENDBRANCH   7  27
TORSDOF 3
ENDMDL
MODEL 3
REMARK VINA RESULT:      -8.2      4.422      7.940
REMARK  Name = 
REMARK  5 active torsions:
REMARK  status: ('A' for Active; 'I' for Inactive)
REMARK    1  A    between atoms: C_1  and  C_2
REMARK    2  A    between atoms: C_4  and  C_5
REMARK    3  A    between atoms: C_7  and  N_8
REMARK    4  A    between atoms: N_13  and  C_14
REMARK    5  A    between atoms: N_22  and  C_23
REMARK                            x       y       z     vdW  Elec       q    Type
REMARK                         _______ _______ _______ _____ _____    ______ ____
ROOT
ATOM      1  N   UNL     1       3.635   5.603  17.818  0.00  0.00    +0.000 NA
ATOM      2  C   UNL     1       2.767   6.417  18.316  0.00  0.00    +0.000 C 
ATOM      3  N   UNL     1       2.861   7.792  18.138  0.00  0.00    +0.000 N 
ATOM      4  C   UNL     1       1.967   8.734  18.628  0.00  0.00    +0.000 C 
ATOM      5  O   UNL     1       0.986   8.403  19.291  0.00  0.00    +0.000 OA
ATOM      6  N   UNL     1       2.283  10.033  18.279  0.00  0.00    +0.000 N 
ATOM      7  N   UNL     1       1.702   5.955  19.063  0.00  0.00    +0.000 N 
ATOM      8  H   UNL     1       3.682   8.087  17.625  0.00  0.00    +0.000 HD
ATOM      9  H   UNL     1       3.084  10.157  17.675  0.00  0.00    +0.000 HD
ATOM     10  H   UNL     1       1.087   6.689  19.409  0.00  0.00    +0.000 HD
ENDROOT
BRANCH   1  17
ATOM     11  C   UNL     1       6.371   4.023  14.420  0.00  0.00    +0.000 C 
ATOM     12  C   UNL     1       6.162   5.056  15.483  0.00  0.00    +0.000 A 
ATOM     13  C   UNL     1       7.170   5.903  15.885  0.00  0.00    +0.000 A 
ATOM     14  C   UNL     1       6.890   6.750  16.947  0.00  0.00    +0.000 A 
ATOM     15  C   UNL     1       7.930   7.729  17.406  0.00  0.00    +0.000 C 
ATOM     16  N   UNL     1       5.702   6.750  17.602  0.00  0.00    +0.000 NA
ATOM     17  C   UNL     1       4.801   5.868  17.138  0.00  0.00    +0.000 A 
ATOM     18  N   UNL     1       4.974   5.040  16.098  0.00  0.00    +0.000 NA
ENDBRANCH   1  17
BRANCH   6  19
ATOM     19  C   UNL     1       1.481  11.178  18.521  0.00  0.00    +0.000 A 
ATOM     20  C   UNL     1       1.998  12.444  18.816  0.00  0.00    +0.000 A 
ATOM     21  C   UNL     1       1.156  13.495  19.207  0.00  0.00    +0.000 A 
ATOM     22  C   UNL     1      -0.219  13.298  19.284  0.00  0.00    +0.000 A 
ATOM     23 CL   UNL     1      -1.186  14.599  19.875  0.00  0.00    +0.000 Cl
ATOM     24  C   UNL     1      -0.755  12.063  18.909  0.00  0.00    +0.000 A 
ATOM     25 CL   UNL     1      -2.457  11.756  18.932  0.00  0.00    +0.000 Cl
ATOM     26  C   UNL     1       0.091  11.013  18.520  0.00  0.00    +0.000 A 
ENDBRANCH   6  19
BRANCH   7  27
ATOM     27  C   UNL     1       1.624   4.763  19.816  0.00  0.00    +0.000 A 
ATOM     28  C   UNL     1       2.245   4.736  21.075  0.00  0.00    +0.000 A 
ATOM     29  C   UNL     1       2.238   3.582  21.866  0.00  0.00    +0.000 A 
ATOM     30  C   UNL     1       1.599   2.432  21.415  0.00  0.00    +0.000 A 
ATOM     31  C   UNL     1       0.971   2.439  20.174  0.00  0.00    +0.000 A 
ATOM     32  C   UNL     1       0.982   3.596  19.385  0.00  0.00    +0.000 A 
ENDBRANCH   7  27
TORSDOF 3
ENDMDL
MODEL 4
REMARK VINA RESULT:      -8.1      3.839      7.617
REMARK  Name = 
REMARK  5 active torsions:
REMARK  status: ('A' for Active; 'I' for Inactive)
REMARK    1  A    between atoms: C_1  and  C_2
REMARK    2  A    between atoms: C_4  and  C_5
REMARK    3  A    between atoms: C_7  and  N_8
REMARK    4  A    between atoms: N_13  and  C_14
REMARK    5  A    between atoms: N_22  and  C_23
REMARK                            x       y       z     vdW  Elec       q    Type
REMARK                         _______ _______ _______ _____ _____    ______ ____
ROOT
ATOM      1  N   UNL     1       3.629   5.604  17.788  0.00  0.00    +0.000 NA
ATOM      2  C   UNL     1       2.788   6.438  18.300  0.00  0.00    +0.000 C 
ATOM      3  N   UNL     1       2.915   7.810  18.126  0.00  0.00    +0.000 N 
ATOM      4  C   UNL     1       2.051   8.773  18.631  0.00  0.00    +0.000 C 
ATOM      5  O   UNL     1       1.070   8.464  19.305  0.00  0.00    +0.000 OA
ATOM      6  N   UNL     1       2.396  10.065  18.283  0.00  0.00    +0.000 N 
ATOM      7  N   UNL     1       1.721   5.999  19.057  0.00  0.00    +0.000 N 
ATOM      8  H   UNL     1       3.736   8.087  17.604  0.00  0.00    +0.000 HD
ATOM      9  H   UNL     1       3.193  10.171  17.670  0.00  0.00    +0.000 HD
ATOM     10  H   UNL     1       1.128   6.748  19.414  0.00  0.00    +0.000 HD
ENDROOT
BRANCH   1  17
ATOM     11  C   UNL     1       6.302   3.948  14.376  0.00  0.00    +0.000 C 
ATOM     12  C   UNL     1       6.122   4.992  15.433  0.00  0.00    +0.000 A 
ATOM     13  C   UNL     1       7.150   5.824  15.818  0.00  0.00    +0.000 A 
ATOM     14  C   UNL     1       6.895   6.684  16.876  0.00  0.00    +0.000 A 
ATOM     15  C   UNL     1       7.957   7.647  17.317  0.00  0.00    +0.000 C 
ATOM     16  N   UNL     1       5.714   6.711  17.542  0.00  0.00    +0.000 NA
ATOM     17  C   UNL     1       4.792   5.842  17.094  0.00  0.00    +0.000 A 
ATOM     18  N   UNL     1       4.940   5.003  16.060  0.00  0.00    +0.000 NA
ENDBRANCH   1  17
BRANCH   6  19
ATOM     19  C   UNL     1       1.626  11.229  18.540  0.00  0.00    +0.000 A 
ATOM     20  C   UNL     1       0.231  11.232  18.653  0.00  0.00    +0.000 A 
ATOM     21  C   UNL     1      -0.484  12.435  18.742  0.00  0.00    +0.000 A 
ATOM     22  C   UNL     1       0.192  13.651  18.743  0.00  0.00    +0.000 A 
ATOM     23 CL   UNL     1      -0.752  15.096  18.745  0.00  0.00    +0.000 Cl
ATOM     24  C   UNL     1       1.590  13.658  18.717  0.00  0.00    +0.000 A 
ATOM     25 CL   UNL     1       2.501  15.127  18.765  0.00  0.00    +0.000 Cl
ATOM     26  C   UNL     1       2.302  12.452  18.627  0.00  0.00    +0.000 A 
ENDBRANCH   6  19
BRANCH   7  27
ATOM     27  C   UNL     1       1.621   4.807  19.807  0.00  0.00    +0.000 A 
ATOM     28  C   UNL     1       2.232   4.768  21.070  0.00  0.00    +0.000 A 
ATOM     29  C   UNL     1       2.205   3.612  21.858  0.00  0.00    +0.000 A 
ATOM     30  C   UNL     1       1.553   2.472  21.399  0.00  0.00    +0.000 A 
ATOM     31  C   UNL     1       0.935   2.491  20.154  0.00  0.00    +0.000 A 
ATOM     32  C   UNL     1       0.967   3.649  19.368  0.00  0.00    +0.000 A 
ENDBRANCH   7  27
TORSDOF 3
ENDMDL
MODEL 5
REMARK VINA RESULT:      -8.0      1.079      1.928
REMARK  Name = 
REMARK  5 active torsions:
REMARK  status: ('A' for Active; 'I' for Inactive)
REMARK    1  A    between atoms: C_1  and  C_2
REMARK    2  A    between atoms: C_4  and  C_5
REMARK    3  A    between atoms: C_7  and  N_8
REMARK    4  A    between atoms: N_13  and  C_14
REMARK    5  A    between atoms: N_22  and  C_23
REMARK                            x       y       z     vdW  Elec       q    Type
REMARK                         _______ _______ _______ _____ _____    ______ ____
ROOT
ATOM      1  N   UNL     1       5.495   4.983  17.117  0.00  0.00    +0.000 NA
ATOM      2  C   UNL     1       6.423   5.842  16.860  0.00  0.00    +0.000 C 
ATOM      3  N   UNL     1       6.614   6.974  17.643  0.00  0.00    +0.000 N 
ATOM      4  C   UNL     1       7.593   7.938  17.444  0.00  0.00    +0.000 C 
ATOM      5  O   UNL     1       8.393   7.858  16.514  0.00  0.00    +0.000 OA
ATOM      6  N   UNL     1       7.578   8.947  18.389  0.00  0.00    +0.000 N 
ATOM      7  N   UNL     1       7.268   5.677  15.782  0.00  0.00    +0.000 N 
ATOM      8  H   UNL     1       5.943   7.076  18.393  0.00  0.00    +0.000 HD
ATOM      9  H   UNL     1       6.906   8.855  19.138  0.00  0.00    +0.000 HD
ATOM     10  H   UNL     1       7.957   6.420  15.675  0.00  0.00    +0.000 HD
ENDROOT
BRANCH   1  17
ATOM     11  C   UNL     1       2.460   2.308  19.389  0.00  0.00    +0.000 C 
ATOM     12  C   UNL     1       2.985   3.690  19.159  0.00  0.00    +0.000 A 
ATOM     13  C   UNL     1       2.319   4.808  19.609  0.00  0.00    +0.000 A 
ATOM     14  C   UNL     1       2.849   6.039  19.251  0.00  0.00    +0.000 A 
ATOM     15  C   UNL     1       2.196   7.296  19.745  0.00  0.00    +0.000 C 
ATOM     16  N   UNL     1       3.950   6.174  18.471  0.00  0.00    +0.000 NA
ATOM     17  C   UNL     1       4.505   5.017  18.073  0.00  0.00    +0.000 A 
ATOM     18  N   UNL     1       4.082   3.788  18.400  0.00  0.00    +0.000 NA
ENDBRANCH   1  17
BRANCH   6  19
ATOM     19  C   UNL     1       8.540   9.982  18.515  0.00  0.00    +0.000 A 
ATOM     20  C   UNL     1       9.671   9.900  19.335  0.00  0.00    +0.000 A 
ATOM     21  C   UNL     1      10.494  11.015  19.545  0.00  0.00    +0.000 A 
ATOM     22  C   UNL     1      10.208  12.223  18.916  0.00  0.00    +0.000 A 
ATOM     23 CL   UNL     1      11.197  13.584  19.302  0.00  0.00    +0.000 Cl
ATOM     24  C   UNL     1       9.131  12.295  18.028  0.00  0.00    +0.000 A 
ATOM     25 CL   UNL     1       8.741  13.746  17.173  0.00  0.00    +0.000 Cl
ATOM     26  C   UNL     1       8.309  11.176  17.822  0.00  0.00    +0.000 A 
ENDBRANCH   6  19
BRANCH   7  27
ATOM     27  C   UNL     1       7.016   4.977  14.582  0.00  0.00    +0.000 A 
ATOM     28  C   UNL     1       7.765   5.324  13.446  0.00  0.00    +0.000 A 
ATOM     29  C   UNL     1       7.550   4.699  12.213  0.00  0.00    +0.000 A 
ATOM     30  C   UNL     1       6.586   3.704  12.095  0.00  0.00    +0.000 A 
ATOM     31  C   UNL     1       5.838   3.339  13.210  0.00  0.00    +0.000 A 
ATOM     32  C   UNL     1       6.055   3.969  14.441  0.00  0.00    +0.000 A 
ENDBRANCH   7  27
TORSDOF 3
ENDMDL
MODEL 6
REMARK VINA RESULT:      -8.0      3.659      7.409
REMARK  Name = 
REMARK  5 active torsions:
REMARK  status: ('A' for Active; 'I' for Inactive)
REMARK    1  A    between atoms: C_1  and  C_2
REMARK    2  A    between atoms: C_4  and  C_5
REMARK    3  A    between atoms: C_7  and  N_8
REMARK    4  A    between atoms: N_13  and  C_14
REMARK    5  A    between atoms: N_22  and  C_23
REMARK                            x       y       z     vdW  Elec       q    Type
REMARK                         _______ _______ _______ _____ _____    ______ ____
ROOT
ATOM      1  N   UNL     1       3.716   5.123  17.777  0.00  0.00    +0.000 NA
ATOM      2  C   UNL     1       2.924   6.017  18.264  0.00  0.00    +0.000 C 
ATOM      3  N   UNL     1       3.115   7.374  18.032  0.00  0.00    +0.000 N 
ATOM      4  C   UNL     1       2.306   8.397  18.507  0.00  0.00    +0.000 C 
ATOM      5  O   UNL     1       1.321   8.165  19.206  0.00  0.00    +0.000 OA
ATOM      6  N   UNL     1       2.708   9.655  18.102  0.00  0.00    +0.000 N 
ATOM      7  N   UNL     1       1.848   5.663  19.053  0.00  0.00    +0.000 N 
ATOM      8  H   UNL     1       3.941   7.588  17.489  0.00  0.00    +0.000 HD
ATOM      9  H   UNL     1       3.500   9.698  17.476  0.00  0.00    +0.000 HD
ATOM     10  H   UNL     1       1.298   6.453  19.385  0.00  0.00    +0.000 HD
ENDROOT
BRANCH   1  17
ATOM     11  C   UNL     1       7.614   7.629  17.551  0.00  0.00    +0.000 C 
ATOM     12  C   UNL     1       6.783   6.547  16.937  0.00  0.00    +0.000 A 
ATOM     13  C   UNL     1       7.037   6.059  15.675  0.00  0.00    +0.000 A 
ATOM     14  C   UNL     1       6.140   5.129  15.171  0.00  0.00    +0.000 A 
ATOM     15  C   UNL     1       6.383   4.524  13.819  0.00  0.00    +0.000 C 
ATOM     16  N   UNL     1       5.039   4.718  15.847  0.00  0.00    +0.000 NA
ATOM     17  C   UNL     1       4.880   5.276  17.060  0.00  0.00    +0.000 A 
ATOM     18  N   UNL     1       5.713   6.153  17.637  0.00  0.00    +0.000 NA
ENDBRANCH   1  17
BRANCH   6  19
ATOM     19  C   UNL     1       2.000  10.866  18.320  0.00  0.00    +0.000 A 
ATOM     20  C   UNL     1       0.642  10.924  18.656  0.00  0.00    +0.000 A 
ATOM     21  C   UNL     1      -0.039  12.149  18.695  0.00  0.00    +0.000 A 
ATOM     22  C   UNL     1       0.636  13.334  18.422  0.00  0.00    +0.000 A 
ATOM     23 CL   UNL     1      -0.284  14.793  18.382  0.00  0.00    +0.000 Cl
ATOM     24  C   UNL     1       2.011  13.297  18.170  0.00  0.00    +0.000 A 
ATOM     25 CL   UNL     1       2.928  14.731  17.870  0.00  0.00    +0.000 Cl
ATOM     26  C   UNL     1       2.689  12.069  18.130  0.00  0.00    +0.000 A 
ENDBRANCH   6  19
BRANCH   7  27
ATOM     27  C   UNL     1       1.701   4.509  19.852  0.00  0.00    +0.000 A 
ATOM     28  C   UNL     1       2.253   4.525  21.143  0.00  0.00    +0.000 A 
ATOM     29  C   UNL     1       2.177   3.408  21.982  0.00  0.00    +0.000 A 
ATOM     30  C   UNL     1       1.536   2.253  21.548  0.00  0.00    +0.000 A 
ATOM     31  C   UNL     1       0.976   2.217  20.275  0.00  0.00    +0.000 A 
ATOM     32  C   UNL     1       1.057   3.336  19.438  0.00  0.00    +0.000 A 
ENDBRANCH   7  27
TORSDOF 3
ENDMDL
MODEL 7
REMARK VINA RESULT:      -8.0      6.418      8.544
REMARK  Name = 
REMARK  5 active torsions:
REMARK  status: ('A' for Active; 'I' for Inactive)
REMARK    1  A    between atoms: C_1  and  C_2
REMARK    2  A    between atoms: C_4  and  C_5
REMARK    3  A    between atoms: C_7  and  N_8
REMARK    4  A    between atoms: N_13  and  C_14
REMARK    5  A    between atoms: N_22  and  C_23
REMARK                            x       y       z     vdW  Elec       q    Type
REMARK                         _______ _______ _______ _____ _____    ______ ____
ROOT
ATOM      1  N   UNL     1      -0.892  10.173  18.320  0.00  0.00    +0.000 NA
ATOM      2  C   UNL     1       0.131  10.848  18.723  0.00  0.00    +0.000 C 
ATOM      3  N   UNL     1       0.231  12.220  18.525  0.00  0.00    +0.000 N 
ATOM      4  C   UNL     1       1.288  13.021  18.935  0.00  0.00    +0.000 C 
ATOM      5  O   UNL     1       2.259  12.550  19.524  0.00  0.00    +0.000 OA
ATOM      6  N   UNL     1       1.118  14.359  18.635  0.00  0.00    +0.000 N 
ATOM      7  N   UNL     1       1.185  10.230  19.364  0.00  0.00    +0.000 N 
ATOM      8  H   UNL     1      -0.542  12.620  18.010  0.00  0.00    +0.000 HD
ATOM      9  H   UNL     1       0.242  14.619  18.205  0.00  0.00    +0.000 HD
ATOM     10  H   UNL     1       1.939  10.862  19.630  0.00  0.00    +0.000 HD
ENDROOT
BRANCH   1  17
ATOM     11  C   UNL     1      -5.087  12.117  18.713  0.00  0.00    +0.000 C 
ATOM     12  C   UNL     1      -4.068  11.507  17.801  0.00  0.00    +0.000 A 
ATOM     13  C   UNL     1      -4.373  11.139  16.510  0.00  0.00    +0.000 A 
ATOM     14  C   UNL     1      -3.377  10.492  15.793  0.00  0.00    +0.000 A 
ATOM     15  C   UNL     1      -3.629  10.103  14.366  0.00  0.00    +0.000 C 
ATOM     16  N   UNL     1      -2.162  10.194  16.314  0.00  0.00    +0.000 NA
ATOM     17  C   UNL     1      -1.983  10.581  17.588  0.00  0.00    +0.000 A 
ATOM     18  N   UNL     1      -2.874  11.240  18.342  0.00  0.00    +0.000 NA
ENDBRANCH   1  17
BRANCH   6  19
ATOM     19  C   UNL     1       1.965  15.419  19.053  0.00  0.00    +0.000 A 
ATOM     20  C   UNL     1       3.137  15.790  18.385  0.00  0.00    +0.000 A 
ATOM     21  C   UNL     1       4.016  16.733  18.937  0.00  0.00    +0.000 A 
ATOM     22  C   UNL     1       3.719  17.335  20.155  0.00  0.00    +0.000 A 
ATOM     23 CL   UNL     1       4.892  18.405  20.830  0.00  0.00    +0.000 Cl
ATOM     24  C   UNL     1       2.510  17.037  20.790  0.00  0.00    +0.000 A 
ATOM     25 CL   UNL     1       2.048  17.780  22.281  0.00  0.00    +0.000 Cl
ATOM     26  C   UNL     1       1.634  16.091  20.235  0.00  0.00    +0.000 A 
ENDBRANCH   6  19
BRANCH   7  27
ATOM     27  C   UNL     1       1.602   8.886  19.251  0.00  0.00    +0.000 A 
ATOM     28  C   UNL     1       1.527   8.073  20.393  0.00  0.00    +0.000 A 
ATOM     29  C   UNL     1       1.952   6.740  20.369  0.00  0.00    +0.000 A 
ATOM     30  C   UNL     1       2.453   6.191  19.193  0.00  0.00    +0.000 A 
ATOM     31  C   UNL     1       2.529   6.976  18.048  0.00  0.00    +0.000 A 
ATOM     32  C   UNL     1       2.105   8.310  18.079  0.00  0.00    +0.000 A 
ENDBRANCH   7  27
TORSDOF 3
ENDMDL
MODEL 8
REMARK VINA RESULT:      -8.0      6.317     10.350
REMARK  Name = 
REMARK  5 active torsions:
REMARK  status: ('A' for Active; 'I' for Inactive)
REMARK    1  A    between atoms: C_1  and  C_2
REMARK    2  A    between atoms: C_4  and  C_5
REMARK    3  A    between atoms: C_7  and  N_8
REMARK    4  A    between atoms: N_13  and  C_14
REMARK    5  A    between atoms: N_22  and  C_23
REMARK                            x       y       z     vdW  Elec       q    Type
REMARK                         _______ _______ _______ _____ _____    ______ ____
ROOT
ATOM      1  N   UNL     1      -1.668  12.067  18.895  0.00  0.00    +0.000 NA
ATOM      2  C   UNL     1      -0.605  11.446  19.281  0.00  0.00    +0.000 C 
ATOM      3  N   UNL     1      -0.159  10.290  18.652  0.00  0.00    +0.000 N 
ATOM      4  C   UNL     1       0.977   9.570  18.996  0.00  0.00    +0.000 C 
ATOM      5  O   UNL     1       1.697   9.915  19.930  0.00  0.00    +0.000 OA
ATOM      6  N   UNL     1       1.206   8.475  18.184  0.00  0.00    +0.000 N 
ATOM      7  N   UNL     1       0.135  11.900  20.353  0.00  0.00    +0.000 N 
ATOM      8  H   UNL     1      -0.758   9.970  17.903  0.00  0.00    +0.000 HD
ATOM      9  H   UNL     1       0.568   8.343  17.412  0.00  0.00    +0.000 HD
ATOM     10  H   UNL     1       0.949  11.326  20.570  0.00  0.00    +0.000 HD
ENDROOT
BRANCH   1  17
ATOM     11  C   UNL     1      -6.192  11.322  18.179  0.00  0.00    +0.000 C 
ATOM     12  C   UNL     1      -4.814  11.324  17.594  0.00  0.00    +0.000 A 
ATOM     13  C   UNL     1      -4.538  10.744  16.376  0.00  0.00    +0.000 A 
ATOM     14  C   UNL     1      -3.208  10.718  15.983  0.00  0.00    +0.000 A 
ATOM     15  C   UNL     1      -2.844  10.141  14.647  0.00  0.00    +0.000 C 
ATOM     16  N   UNL     1      -2.199  11.203  16.747  0.00  0.00    +0.000 NA
ATOM     17  C   UNL     1      -2.582  11.726  17.924  0.00  0.00    +0.000 A 
ATOM     18  N   UNL     1      -3.843  11.824  18.367  0.00  0.00    +0.000 NA
ENDBRANCH   1  17
BRANCH   6  19
ATOM     19  C   UNL     1       2.355   7.643  18.214  0.00  0.00    +0.000 A 
ATOM     20  C   UNL     1       3.468   7.822  17.384  0.00  0.00    +0.000 A 
ATOM     21  C   UNL     1       4.499   6.872  17.345  0.00  0.00    +0.000 A 
ATOM     22  C   UNL     1       4.440   5.743  18.156  0.00  0.00    +0.000 A 
ATOM     23 CL   UNL     1       5.686   4.562  17.980  0.00  0.00    +0.000 Cl
ATOM     24  C   UNL     1       3.377   5.597  19.051  0.00  0.00    +0.000 A 
ATOM     25 CL   UNL     1       3.259   4.245  20.123  0.00  0.00    +0.000 Cl
ATOM     26  C   UNL     1       2.346   6.548  19.086  0.00  0.00    +0.000 A 
ENDBRANCH   6  19
BRANCH   7  27
ATOM     27  C   UNL     1      -0.308  12.672  21.449  0.00  0.00    +0.000 A 
ATOM     28  C   UNL     1      -1.190  12.074  22.364  0.00  0.00    +0.000 A 
ATOM     29  C   UNL     1      -1.699  12.785  23.456  0.00  0.00    +0.000 A 
ATOM     30  C   UNL     1      -1.325  14.109  23.661  0.00  0.00    +0.000 A 
ATOM     31  C   UNL     1      -0.447  14.718  22.772  0.00  0.00    +0.000 A 
ATOM     32  C   UNL     1       0.058  14.004  21.678  0.00  0.00    +0.000 A 
ENDBRANCH   7  27
TORSDOF 3
ENDMDL
MODEL 9
REMARK VINA RESULT:      -7.9      6.547      8.708
REMARK  Name = 
REMARK  5 active torsions:
REMARK  status: ('A' for Active; 'I' for Inactive)
REMARK    1  A    between atoms: C_1  and  C_2
REMARK    2  A    between atoms: C_4  and  C_5
REMARK    3  A    between atoms: C_7  and  N_8
REMARK    4  A    between atoms: N_13  and  C_14
REMARK    5  A    between atoms: N_22  and  C_23
REMARK                            x       y       z     vdW  Elec       q    Type
REMARK                         _______ _______ _______ _____ _____    ______ ____
ROOT
ATOM      1  N   UNL     1      -1.057   9.958  18.594  0.00  0.00    +0.000 NA
ATOM      2  C   UNL     1      -0.074  10.711  18.957  0.00  0.00    +0.000 C 
ATOM      3  N   UNL     1      -0.100  12.089  18.780  0.00  0.00    +0.000 N 
ATOM      4  C   UNL     1       0.906  12.971  19.151  0.00  0.00    +0.000 C 
ATOM      5  O   UNL     1       1.942  12.576  19.683  0.00  0.00    +0.000 OA
ATOM      6  N   UNL     1       0.610  14.294  18.885  0.00  0.00    +0.000 N 
ATOM      7  N   UNL     1       1.059  10.176  19.535  0.00  0.00    +0.000 N 
ATOM      8  H   UNL     1      -0.929  12.430  18.311  0.00  0.00    +0.000 HD
ATOM      9  H   UNL     1      -0.306  14.485  18.503  0.00  0.00    +0.000 HD
ATOM     10  H   UNL     1       1.770  10.866  19.774  0.00  0.00    +0.000 HD
ENDROOT
BRANCH   1  17
ATOM     11  C   UNL     1      -2.978  10.060  14.372  0.00  0.00    +0.000 C 
ATOM     12  C   UNL     1      -3.137  10.364  15.829  0.00  0.00    +0.000 A 
ATOM     13  C   UNL     1      -4.164  11.149  16.302  0.00  0.00    +0.000 A 
ATOM     14  C   UNL     1      -4.152  11.445  17.658  0.00  0.00    +0.000 A 
ATOM     15  C   UNL     1      -5.266  12.259  18.246  0.00  0.00    +0.000 C 
ATOM     16  N   UNL     1      -3.176  11.024  18.500  0.00  0.00    +0.000 NA
ATOM     17  C   UNL     1      -2.214  10.283  17.925  0.00  0.00    +0.000 A 
ATOM     18  N   UNL     1      -2.166   9.920  16.636  0.00  0.00    +0.000 NA
ENDBRANCH   1  17
BRANCH   6  19
ATOM     19  C   UNL     1       1.385  15.416  19.279  0.00  0.00    +0.000 A 
ATOM     20  C   UNL     1       2.550  15.827  18.623  0.00  0.00    +0.000 A 
ATOM     21  C   UNL     1       3.360  16.840  19.157  0.00  0.00    +0.000 A 
ATOM     22  C   UNL     1       3.000  17.470  20.343  0.00  0.00    +0.000 A 
ATOM     23 CL   UNL     1       4.095  18.631  21.002  0.00  0.00    +0.000 Cl
ATOM     24  C   UNL     1       1.795  17.128  20.963  0.00  0.00    +0.000 A 
ATOM     25 CL   UNL     1       1.256  17.900  22.413  0.00  0.00    +0.000 Cl
ATOM     26  C   UNL     1       0.987  16.113  20.426  0.00  0.00    +0.000 A 
ENDBRANCH   6  19
BRANCH   7  27
ATOM     27  C   UNL     1       1.581   8.874  19.377  0.00  0.00    +0.000 A 
ATOM     28  C   UNL     1       2.206   8.556  18.160  0.00  0.00    +0.000 A 
ATOM     29  C   UNL     1       2.718   7.277  17.916  0.00  0.00    +0.000 A 
ATOM     30  C   UNL     1       2.623   6.291  18.892  0.00  0.00    +0.000 A 
ATOM     31  C   UNL     1       2.014   6.586  20.107  0.00  0.00    +0.000 A 
ATOM     32  C   UNL     1       1.501   7.867  20.346  0.00  0.00    +0.000 A 
ENDBRANCH   7  27
TORSDOF 3
ENDMDL
