MODEL 1
REMARK VINA RESULT:      -9.9      0.000      0.000
REMARK  Name = 
REMARK  6 active torsions:
REMARK  status: ('A' for Active; 'I' for Inactive)
REMARK    1  A    between atoms: C_1  and  O_2
REMARK    2  A    between atoms: O_2  and  C_3
REMARK    3  A    between atoms: C_9  and  C_10
REMARK    4  A    between atoms: N_15  and  C_16
REMARK    5  A    between atoms: C_20  and  C_21
REMARK    6  A    between atoms: C_21  and  N_22
REMARK                            x       y       z     vdW  Elec       q    Type
REMARK                         _______ _______ _______ _____ _____    ______ ____
ROOT
ATOM      1  C   UNL     1       9.536  12.155  18.669  0.00  0.00    +0.000 A 
ATOM      2  C   UNL     1       9.701  11.865  20.011  0.00  0.00    +0.000 A 
ATOM      3  C   UNL     1       9.432  10.588  20.400  0.00  0.00    +0.000 A 
ATOM      4  N   UNL     1       8.968   9.665  19.557  0.00  0.00    +0.000 NA
ATOM      5  C   UNL     1       8.732  10.024  18.285  0.00  0.00    +0.000 A 
ATOM      6  N   UNL     1       8.133   9.101  17.421  0.00  0.00    +0.000 N 
ATOM      7  N   UNL     1       9.041  11.233  17.803  0.00  0.00    +0.000 NA
ATOM      8  H   UNL     1       8.094   9.450  16.478  0.00  0.00    +0.000 HD
ENDROOT
BRANCH   1  15
ATOM      9  C   UNL     1       8.950  14.567  18.081  0.00  0.00    +0.000 A 
ATOM     10  C   UNL     1       9.306  15.805  17.527  0.00  0.00    +0.000 A 
ATOM     11  C   UNL     1      10.580  15.999  16.991  0.00  0.00    +0.000 A 
ATOM     12  C   UNL     1      11.498  14.960  17.012  0.00  0.00    +0.000 A 
ATOM     13  C   UNL     1      11.146  13.725  17.561  0.00  0.00    +0.000 A 
ATOM     14  F   UNL     1      12.070  12.750  17.510  0.00  0.00    +0.000 F 
ATOM     15  C   UNL     1       9.873  13.486  18.112  0.00  0.00    +0.000 A 
BRANCH   9  17
ATOM     16  C   UNL     1       6.575  14.541  17.857  0.00  0.00    +0.000 C 
ATOM     17  O   UNL     1       7.726  14.382  18.682  0.00  0.00    +0.000 OA
ENDBRANCH   9  17
ENDBRANCH   1  15
BRANCH   6  18
ATOM     18  C   UNL     1       7.613   7.830  17.708  0.00  0.00    +0.000 A 
ATOM     19  C   UNL     1       8.227   7.010  18.657  0.00  0.00    +0.000 A 
ATOM     20  C   UNL     1       7.637   5.800  19.043  0.00  0.00    +0.000 A 
ATOM     21  C   UNL     1       6.401   5.404  18.511  0.00  0.00    +0.000 A 
ATOM     22  C   UNL     1       5.754   6.212  17.572  0.00  0.00    +0.000 A 
ATOM     23  C   UNL     1       6.400   7.380  17.157  0.00  0.00    +0.000 A 
BRANCH  22  24
ATOM     24  C   UNL     1       4.440   5.847  16.933  0.00  0.00    +0.000 C 
BRANCH  24  25
ATOM     25  N   UNL     1       3.293   5.810  17.830  0.00  0.00    +0.000 N 
ATOM     26  C   UNL     1       3.022   6.873  18.656  0.00  0.00    +0.000 A 
ATOM     27  N   UNL     1       2.459   6.480  19.778  0.00  0.00    +0.000 NA
ATOM     28  C   UNL     1       2.124   5.168  19.555  0.00  0.00    +0.000 A 
ATOM     29  C   UNL     1       1.380   4.318  20.385  0.00  0.00    +0.000 A 
ATOM     30  C   UNL     1       0.911   3.116  19.858  0.00  0.00    +0.000 A 
ATOM     31  C   UNL     1       1.273   2.728  18.561  0.00  0.00    +0.000 A 
ATOM     32  C   UNL     1       2.157   3.496  17.773  0.00  0.00    +0.000 A 
ATOM     33  C   UNL     1       2.545   4.742  18.285  0.00  0.00    +0.000 A 
ENDBRANCH  24  25
ENDBRANCH  22  24
ENDBRANCH   6  18
TORSDOF 5
ENDMDL
MODEL 2
REMARK VINA RESULT:      -9.9      0.746      1.374
REMARK  Name = 
REMARK  6 active torsions:
REMARK  status: ('A' for Active; 'I' for Inactive)
REMARK    1  A    between atoms: C_1  and  O_2
REMARK    2  A    between atoms: O_2  and  C_3
REMARK    3  A    between atoms: C_9  and  C_10
REMARK    4  A    between atoms: N_15  and  C_16
REMARK    5  A    between atoms: C_20  and  C_21
REMARK    6  A    between atoms: C_21  and  N_22
REMARK                            x       y       z     vdW  Elec       q    Type
REMARK                         _______ _______ _______ _____ _____    ______ ____
ROOT
ATOM      1  C   UNL     1       9.600  12.232  18.656  0.00  0.00    +0.000 A 
ATOM      2  C   UNL     1       9.821  11.922  19.985  0.00  0.00    +0.000 A 
ATOM      3  C   UNL     1       9.565  10.640  20.366  0.00  0.00    +0.000 A 
ATOM      4  N   UNL     1       9.062   9.731  19.530  0.00  0.00    +0.000 NA
ATOM      5  C   UNL     1       8.774  10.109  18.274  0.00  0.00    +0.000 A 
ATOM      6  N   UNL     1       8.137   9.201  17.423  0.00  0.00    +0.000 N 
ATOM      7  N   UNL     1       9.066  11.325  17.797  0.00  0.00    +0.000 NA
ATOM      8  H   UNL     1       8.059   9.563  16.488  0.00  0.00    +0.000 HD
ENDROOT
BRANCH   1  15
ATOM      9  C   UNL     1       8.975  14.636  18.070  0.00  0.00    +0.000 A 
ATOM     10  C   UNL     1       9.312  15.881  17.521  0.00  0.00    +0.000 A 
ATOM     11  C   UNL     1      10.586  16.099  16.995  0.00  0.00    +0.000 A 
ATOM     12  C   UNL     1      11.523  15.077  17.020  0.00  0.00    +0.000 A 
ATOM     13  C   UNL     1      11.189  13.834  17.563  0.00  0.00    +0.000 A 
ATOM     14  F   UNL     1      12.131  12.876  17.516  0.00  0.00    +0.000 F 
ATOM     15  C   UNL     1       9.917  13.571  18.104  0.00  0.00    +0.000 A 
BRANCH   9  17
ATOM     16  C   UNL     1       6.606  14.510  17.816  0.00  0.00    +0.000 C 
ATOM     17  O   UNL     1       7.750  14.427  18.661  0.00  0.00    +0.000 OA
ENDBRANCH   9  17
ENDBRANCH   1  15
BRANCH   6  18
ATOM     18  C   UNL     1       7.625   7.926  17.714  0.00  0.00    +0.000 A 
ATOM     19  C   UNL     1       8.267   7.098  18.637  0.00  0.00    +0.000 A 
ATOM     20  C   UNL     1       7.689   5.884  19.028  0.00  0.00    +0.000 A 
ATOM     21  C   UNL     1       6.438   5.493  18.528  0.00  0.00    +0.000 A 
ATOM     22  C   UNL     1       5.764   6.309  17.617  0.00  0.00    +0.000 A 
ATOM     23  C   UNL     1       6.396   7.482  17.194  0.00  0.00    +0.000 A 
BRANCH  22  24
ATOM     24  C   UNL     1       4.432   5.950  17.013  0.00  0.00    +0.000 C 
BRANCH  24  25
ATOM     25  N   UNL     1       3.767   4.792  17.597  0.00  0.00    +0.000 N 
ATOM     26  C   UNL     1       3.603   3.643  16.865  0.00  0.00    +0.000 A 
ATOM     27  N   UNL     1       2.504   3.007  17.207  0.00  0.00    +0.000 NA
ATOM     28  C   UNL     1       2.093   3.623  18.362  0.00  0.00    +0.000 A 
ATOM     29  C   UNL     1       1.044   3.247  19.211  0.00  0.00    +0.000 A 
ATOM     30  C   UNL     1       0.966   3.834  20.474  0.00  0.00    +0.000 A 
ATOM     31  C   UNL     1       1.858   4.854  20.831  0.00  0.00    +0.000 A 
ATOM     32  C   UNL     1       2.814   5.358  19.926  0.00  0.00    +0.000 A 
ATOM     33  C   UNL     1       2.937   4.696  18.696  0.00  0.00    +0.000 A 
ENDBRANCH  24  25
ENDBRANCH  22  24
ENDBRANCH   6  18
TORSDOF 5
ENDMDL
MODEL 3
REMARK VINA RESULT:      -9.0      1.296      1.846
REMARK  Name = 
REMARK  6 active torsions:
REMARK  status: ('A' for Active; 'I' for Inactive)
REMARK    1  A    between atoms: C_1  and  O_2
REMARK    2  A    between atoms: O_2  and  C_3
REMARK    3  A    between atoms: C_9  and  C_10
REMARK    4  A    between atoms: N_15  and  C_16
REMARK    5  A    between atoms: C_20  and  C_21
REMARK    6  A    between atoms: C_21  and  N_22
REMARK                            x       y       z     vdW  Elec       q    Type
REMARK                         _______ _______ _______ _____ _____    ______ ____
ROOT
ATOM      1  C   UNL     1       9.362  12.345  18.818  0.00  0.00    +0.000 A 
ATOM      2  C   UNL     1       9.580  12.013  20.142  0.00  0.00    +0.000 A 
ATOM      3  C   UNL     1       9.385  10.710  20.488  0.00  0.00    +0.000 A 
ATOM      4  N   UNL     1       8.941   9.798  19.622  0.00  0.00    +0.000 NA
ATOM      5  C   UNL     1       8.651  10.193  18.372  0.00  0.00    +0.000 A 
ATOM      6  N   UNL     1       8.072   9.275  17.489  0.00  0.00    +0.000 N 
ATOM      7  N   UNL     1       8.886  11.433  17.930  0.00  0.00    +0.000 NA
ATOM      8  H   UNL     1       7.989   9.657  16.562  0.00  0.00    +0.000 HD
ENDROOT
BRANCH   1  15
ATOM      9  C   UNL     1      10.769  14.047  17.541  0.00  0.00    +0.000 A 
ATOM     10  C   UNL     1      10.981  15.357  17.091  0.00  0.00    +0.000 A 
ATOM     11  C   UNL     1      10.060  16.363  17.387  0.00  0.00    +0.000 A 
ATOM     12  C   UNL     1       8.927  16.060  18.128  0.00  0.00    +0.000 A 
ATOM     13  C   UNL     1       8.715  14.755  18.580  0.00  0.00    +0.000 A 
ATOM     14  F   UNL     1       7.619  14.541  19.328  0.00  0.00    +0.000 F 
ATOM     15  C   UNL     1       9.618  13.712  18.304  0.00  0.00    +0.000 A 
BRANCH   9  17
ATOM     16  C   UNL     1      12.331  12.390  18.256  0.00  0.00    +0.000 C 
ATOM     17  O   UNL     1      11.627  13.028  17.194  0.00  0.00    +0.000 OA
ENDBRANCH   9  17
ENDBRANCH   1  15
BRANCH   6  18
ATOM     18  C   UNL     1       7.622   7.970  17.741  0.00  0.00    +0.000 A 
ATOM     19  C   UNL     1       8.278   7.160  18.670  0.00  0.00    +0.000 A 
ATOM     20  C   UNL     1       7.756   5.909  19.020  0.00  0.00    +0.000 A 
ATOM     21  C   UNL     1       6.545   5.460  18.473  0.00  0.00    +0.000 A 
ATOM     22  C   UNL     1       5.857   6.255  17.553  0.00  0.00    +0.000 A 
ATOM     23  C   UNL     1       6.437   7.469  17.172  0.00  0.00    +0.000 A 
BRANCH  22  24
ATOM     24  C   UNL     1       4.567   5.836  16.899  0.00  0.00    +0.000 C 
BRANCH  24  25
ATOM     25  N   UNL     1       3.395   5.830  17.765  0.00  0.00    +0.000 N 
ATOM     26  C   UNL     1       3.068   6.943  18.499  0.00  0.00    +0.000 A 
ATOM     27  N   UNL     1       2.484   6.617  19.632  0.00  0.00    +0.000 NA
ATOM     28  C   UNL     1       2.195   5.282  19.501  0.00  0.00    +0.000 A 
ATOM     29  C   UNL     1       1.453   4.474  20.372  0.00  0.00    +0.000 A 
ATOM     30  C   UNL     1       1.036   3.221  19.926  0.00  0.00    +0.000 A 
ATOM     31  C   UNL     1       1.448   2.748  18.672  0.00  0.00    +0.000 A 
ATOM     32  C   UNL     1       2.331   3.482  17.853  0.00  0.00    +0.000 A 
ATOM     33  C   UNL     1       2.666   4.776  18.278  0.00  0.00    +0.000 A 
ENDBRANCH  24  25
ENDBRANCH  22  24
ENDBRANCH   6  18
TORSDOF 5
ENDMDL
MODEL 4
REMARK VINA RESULT:      -8.9      5.963      9.372
REMARK  Name = 
REMARK  6 active torsions:
REMARK  status: ('A' for Active; 'I' for Inactive)
REMARK    1  A    between atoms: C_1  and  O_2
REMARK    2  A    between atoms: O_2  and  C_3
REMARK    3  A    between atoms: C_9  and  C_10
REMARK    4  A    between atoms: N_15  and  C_16
REMARK    5  A    between atoms: C_20  and  C_21
REMARK    6  A    between atoms: C_21  and  N_22
REMARK                            x       y       z     vdW  Elec       q    Type
REMARK                         _______ _______ _______ _____ _____    ______ ____
ROOT
ATOM      1  C   UNL     1       3.805   5.275  18.844  0.00  0.00    +0.000 A 
ATOM      2  C   UNL     1       3.326   4.430  19.828  0.00  0.00    +0.000 A 
ATOM      3  C   UNL     1       2.295   4.895  20.586  0.00  0.00    +0.000 A 
ATOM      4  N   UNL     1       1.801   6.126  20.447  0.00  0.00    +0.000 NA
ATOM      5  C   UNL     1       2.366   6.942  19.543  0.00  0.00    +0.000 A 
ATOM      6  N   UNL     1       1.939   8.272  19.469  0.00  0.00    +0.000 N 
ATOM      7  N   UNL     1       3.330   6.541  18.706  0.00  0.00    +0.000 NA
ATOM      8  H   UNL     1       2.366   8.754  18.697  0.00  0.00    +0.000 HD
ENDROOT
BRANCH   1  15
ATOM      9  C   UNL     1       6.254   5.054  18.162  0.00  0.00    +0.000 A 
ATOM     10  C   UNL     1       7.227   4.655  17.235  0.00  0.00    +0.000 A 
ATOM     11  C   UNL     1       6.853   4.049  16.035  0.00  0.00    +0.000 A 
ATOM     12  C   UNL     1       5.510   3.839  15.762  0.00  0.00    +0.000 A 
ATOM     13  C   UNL     1       4.537   4.238  16.682  0.00  0.00    +0.000 A 
ATOM     14  F   UNL     1       3.254   4.042  16.335  0.00  0.00    +0.000 F 
ATOM     15  C   UNL     1       4.870   4.852  17.904  0.00  0.00    +0.000 A 
BRANCH   9  17
ATOM     16  C   UNL     1       7.989   5.872  19.581  0.00  0.00    +0.000 C 
ATOM     17  O   UNL     1       6.608   5.583  19.382  0.00  0.00    +0.000 OA
ENDBRANCH   9  17
ENDBRANCH   1  15
BRANCH   6  18
ATOM     18  C   UNL     1       1.044   8.959  20.303  0.00  0.00    +0.000 A 
ATOM     19  C   UNL     1       0.635   8.403  21.517  0.00  0.00    +0.000 A 
ATOM     20  C   UNL     1      -0.152   9.141  22.410  0.00  0.00    +0.000 A 
ATOM     21  C   UNL     1      -0.514  10.464  22.120  0.00  0.00    +0.000 A 
ATOM     22  C   UNL     1      -0.106  11.053  20.921  0.00  0.00    +0.000 A 
ATOM     23  C   UNL     1       0.621  10.270  20.020  0.00  0.00    +0.000 A 
BRANCH  22  24
ATOM     24  C   UNL     1      -0.475  12.458  20.522  0.00  0.00    +0.000 C 
BRANCH  24  25
ATOM     25  N   UNL     1      -1.803  12.620  19.943  0.00  0.00    +0.000 N 
ATOM     26  C   UNL     1      -2.830  13.133  20.695  0.00  0.00    +0.000 A 
ATOM     27  N   UNL     1      -3.989  12.628  20.333  0.00  0.00    +0.000 NA
ATOM     28  C   UNL     1      -3.731  11.978  19.153  0.00  0.00    +0.000 A 
ATOM     29  C   UNL     1      -4.650  11.381  18.281  0.00  0.00    +0.000 A 
ATOM     30  C   UNL     1      -4.220  11.020  17.004  0.00  0.00    +0.000 A 
ATOM     31  C   UNL     1      -2.871  11.158  16.652  0.00  0.00    +0.000 A 
ATOM     32  C   UNL     1      -1.902  11.603  17.575  0.00  0.00    +0.000 A 
ATOM     33  C   UNL     1      -2.367  12.045  18.822  0.00  0.00    +0.000 A 
ENDBRANCH  24  25
ENDBRANCH  22  24
ENDBRANCH   6  18
TORSDOF 5
ENDMDL
MODEL 5
REMARK VINA RESULT:      -8.9      6.244      9.526
REMARK  Name = 
REMARK  6 active torsions:
REMARK  status: ('A' for Active; 'I' for Inactive)
REMARK    1  A    between atoms: C_1  and  O_2
REMARK    2  A    between atoms: O_2  and  C_3
REMARK    3  A    between atoms: C_9  and  C_10
REMARK    4  A    between atoms: N_15  and  C_16
REMARK    5  A    between atoms: C_20  and  C_21
REMARK    6  A    between atoms: C_21  and  N_22
REMARK                            x       y       z     vdW  Elec       q    Type
REMARK                         _______ _______ _______ _____ _____    ______ ____
ROOT
ATOM      1  C   UNL     1       3.954   6.174  18.006  0.00  0.00    +0.000 A 
ATOM      2  C   UNL     1       3.634   5.667  19.252  0.00  0.00    +0.000 A 
ATOM      3  C   UNL     1       2.578   6.240  19.894  0.00  0.00    +0.000 A 
ATOM      4  N   UNL     1       1.915   7.283  19.392  0.00  0.00    +0.000 NA
ATOM      5  C   UNL     1       2.327   7.799  18.223  0.00  0.00    +0.000 A 
ATOM      6  N   UNL     1       1.719   8.964  17.745  0.00  0.00    +0.000 N 
ATOM      7  N   UNL     1       3.305   7.251  17.492  0.00  0.00    +0.000 NA
ATOM      8  H   UNL     1       2.045   9.199  16.823  0.00  0.00    +0.000 HD
ENDROOT
BRANCH   1  15
ATOM      9  C   UNL     1       6.319   6.169  17.049  0.00  0.00    +0.000 A 
ATOM     10  C   UNL     1       7.302   5.584  16.238  0.00  0.00    +0.000 A 
ATOM     11  C   UNL     1       7.032   4.407  15.538  0.00  0.00    +0.000 A 
ATOM     12  C   UNL     1       5.783   3.814  15.650  0.00  0.00    +0.000 A 
ATOM     13  C   UNL     1       4.801   4.396  16.454  0.00  0.00    +0.000 A 
ATOM     14  F   UNL     1       3.601   3.791  16.484  0.00  0.00    +0.000 F 
ATOM     15  C   UNL     1       5.031   5.581  17.177  0.00  0.00    +0.000 A 
BRANCH   9  17
ATOM     16  C   UNL     1       7.766   8.020  17.466  0.00  0.00    +0.000 C 
ATOM     17  O   UNL     1       6.593   7.286  17.805  0.00  0.00    +0.000 OA
ENDBRANCH   9  17
ENDBRANCH   1  15
BRANCH   6  18
ATOM     18  C   UNL     1       0.769   9.786  18.371  0.00  0.00    +0.000 A 
ATOM     19  C   UNL     1      -0.508   9.936  17.828  0.00  0.00    +0.000 A 
ATOM     20  C   UNL     1      -1.498  10.647  18.518  0.00  0.00    +0.000 A 
ATOM     21  C   UNL     1      -1.237  11.192  19.784  0.00  0.00    +0.000 A 
ATOM     22  C   UNL     1       0.027  11.043  20.361  0.00  0.00    +0.000 A 
ATOM     23  C   UNL     1       1.013  10.387  19.619  0.00  0.00    +0.000 A 
BRANCH  22  24
ATOM     24  C   UNL     1       0.396  11.620  21.702  0.00  0.00    +0.000 C 
BRANCH  24  25
ATOM     25  N   UNL     1      -0.356  12.800  22.109  0.00  0.00    +0.000 N 
ATOM     26  C   UNL     1       0.224  14.043  22.058  0.00  0.00    +0.000 A 
ATOM     27  N   UNL     1      -0.247  14.831  23.001  0.00  0.00    +0.000 NA
ATOM     28  C   UNL     1      -1.337  14.164  23.498  0.00  0.00    +0.000 A 
ATOM     29  C   UNL     1      -2.276  14.625  24.430  0.00  0.00    +0.000 A 
ATOM     30  C   UNL     1      -3.460  13.908  24.594  0.00  0.00    +0.000 A 
ATOM     31  C   UNL     1      -3.648  12.697  23.914  0.00  0.00    +0.000 A 
ATOM     32  C   UNL     1      -2.642  12.136  23.099  0.00  0.00    +0.000 A 
ATOM     33  C   UNL     1      -1.497  12.914  22.877  0.00  0.00    +0.000 A 
ENDBRANCH  24  25
ENDBRANCH  22  24
ENDBRANCH   6  18
TORSDOF 5
ENDMDL
MODEL 6
REMARK VINA RESULT:      -8.9      5.573      7.021
REMARK  Name = 
REMARK  6 active torsions:
REMARK  status: ('A' for Active; 'I' for Inactive)
REMARK    1  A    between atoms: C_1  and  O_2
REMARK    2  A    between atoms: O_2  and  C_3
REMARK    3  A    between atoms: C_9  and  C_10
REMARK    4  A    between atoms: N_15  and  C_16
REMARK    5  A    between atoms: C_20  and  C_21
REMARK    6  A    between atoms: C_21  and  N_22
REMARK                            x       y       z     vdW  Elec       q    Type
REMARK                         _______ _______ _______ _____ _____    ______ ____
ROOT
ATOM      1  C   UNL     1       1.112   9.340  18.954  0.00  0.00    +0.000 A 
ATOM      2  C   UNL     1       0.988   8.502  20.047  0.00  0.00    +0.000 A 
ATOM      3  C   UNL     1       1.935   7.533  20.187  0.00  0.00    +0.000 A 
ATOM      4  N   UNL     1       2.904   7.344  19.290  0.00  0.00    +0.000 NA
ATOM      5  C   UNL     1       2.923   8.122  18.197  0.00  0.00    +0.000 A 
ATOM      6  N   UNL     1       3.859   7.857  17.192  0.00  0.00    +0.000 N 
ATOM      7  N   UNL     1       2.078   9.145  18.019  0.00  0.00    +0.000 NA
ATOM      8  H   UNL     1       3.837   8.559  16.473  0.00  0.00    +0.000 HD
ENDROOT
BRANCH   1  15
ATOM      9  C   UNL     1       0.385  11.756  19.335  0.00  0.00    +0.000 A 
ATOM     10  C   UNL     1      -0.523  12.801  19.118  0.00  0.00    +0.000 A 
ATOM     11  C   UNL     1      -1.643  12.608  18.308  0.00  0.00    +0.000 A 
ATOM     12  C   UNL     1      -1.853  11.373  17.712  0.00  0.00    +0.000 A 
ATOM     13  C   UNL     1      -0.952  10.328  17.929  0.00  0.00    +0.000 A 
ATOM     14  F   UNL     1      -1.239   9.148  17.355  0.00  0.00    +0.000 F 
ATOM     15  C   UNL     1       0.190  10.480  18.738  0.00  0.00    +0.000 A 
BRANCH   9  17
ATOM     16  C   UNL     1       1.629  13.172  20.798  0.00  0.00    +0.000 C 
ATOM     17  O   UNL     1       1.533  11.951  20.068  0.00  0.00    +0.000 OA
ENDBRANCH   9  17
ENDBRANCH   1  15
BRANCH   6  18
ATOM     18  C   UNL     1       4.760   6.786  17.085  0.00  0.00    +0.000 A 
ATOM     19  C   UNL     1       6.137   7.017  17.081  0.00  0.00    +0.000 A 
ATOM     20  C   UNL     1       7.039   5.946  17.108  0.00  0.00    +0.000 A 
ATOM     21  C   UNL     1       6.578   4.623  17.175  0.00  0.00    +0.000 A 
ATOM     22  C   UNL     1       5.206   4.362  17.198  0.00  0.00    +0.000 A 
ATOM     23  C   UNL     1       4.331   5.447  17.102  0.00  0.00    +0.000 A 
BRANCH  22  24
ATOM     24  C   UNL     1       4.629   2.971  17.242  0.00  0.00    +0.000 C 
BRANCH  24  25
ATOM     25  N   UNL     1       3.307   2.858  17.844  0.00  0.00    +0.000 N 
ATOM     26  C   UNL     1       2.180   3.056  17.087  0.00  0.00    +0.000 A 
ATOM     27  N   UNL     1       1.202   3.565  17.805  0.00  0.00    +0.000 NA
ATOM     28  C   UNL     1       1.626   3.444  19.103  0.00  0.00    +0.000 A 
ATOM     29  C   UNL     1       0.904   3.714  20.273  0.00  0.00    +0.000 A 
ATOM     30  C   UNL     1       1.413   3.264  21.490  0.00  0.00    +0.000 A 
ATOM     31  C   UNL     1       2.673   2.652  21.541  0.00  0.00    +0.000 A 
ATOM     32  C   UNL     1       3.485   2.522  20.395  0.00  0.00    +0.000 A 
ATOM     33  C   UNL     1       2.919   2.898  19.169  0.00  0.00    +0.000 A 
ENDBRANCH  24  25
ENDBRANCH  22  24
ENDBRANCH   6  18
TORSDOF 5
ENDMDL
MODEL 7
REMARK VINA RESULT:      -8.9      6.524     10.236
REMARK  Name = 
REMARK  6 active torsions:
REMARK  status: ('A' for Active; 'I' for Inactive)
REMARK    1  A    between atoms: C_1  and  O_2
REMARK    2  A    between atoms: O_2  and  C_3
REMARK    3  A    between atoms: C_9  and  C_10
REMARK    4  A    between atoms: N_15  and  C_16
REMARK    5  A    between atoms: C_20  and  C_21
REMARK    6  A    between atoms: C_21  and  N_22
REMARK                            x       y       z     vdW  Elec       q    Type
REMARK                         _______ _______ _______ _____ _____    ______ ____
ROOT
ATOM      1  C   UNL     1       2.538   6.088  19.060  0.00  0.00    +0.000 A 
ATOM      2  C   UNL     1       2.750   7.021  18.061  0.00  0.00    +0.000 A 
ATOM      3  C   UNL     1       2.334   8.293  18.312  0.00  0.00    +0.000 A 
ATOM      4  N   UNL     1       1.693   8.629  19.432  0.00  0.00    +0.000 NA
ATOM      5  C   UNL     1       1.426   7.666  20.328  0.00  0.00    +0.000 A 
ATOM      6  N   UNL     1       0.651   7.980  21.449  0.00  0.00    +0.000 N 
ATOM      7  N   UNL     1       1.865   6.409  20.196  0.00  0.00    +0.000 NA
ATOM      8  H   UNL     1       0.598   7.207  22.090  0.00  0.00    +0.000 HD
ENDROOT
BRANCH   1  15
ATOM      9  C   UNL     1       4.354   4.304  19.227  0.00  0.00    +0.000 A 
ATOM     10  C   UNL     1       4.769   2.974  19.078  0.00  0.00    +0.000 A 
ATOM     11  C   UNL     1       3.873   1.998  18.639  0.00  0.00    +0.000 A 
ATOM     12  C   UNL     1       2.562   2.351  18.352  0.00  0.00    +0.000 A 
ATOM     13  C   UNL     1       2.146   3.677  18.496  0.00  0.00    +0.000 A 
ATOM     14  F   UNL     1       0.875   3.956  18.161  0.00  0.00    +0.000 F 
ATOM     15  C   UNL     1       3.017   4.691  18.936  0.00  0.00    +0.000 A 
BRANCH   9  17
ATOM     16  C   UNL     1       6.518   5.309  19.182  0.00  0.00    +0.000 C 
ATOM     17  O   UNL     1       5.203   5.262  19.731  0.00  0.00    +0.000 OA
ENDBRANCH   9  17
ENDBRANCH   1  15
BRANCH   6  18
ATOM     18  C   UNL     1      -0.019   9.176  21.754  0.00  0.00    +0.000 A 
ATOM     19  C   UNL     1      -0.406   9.457  23.066  0.00  0.00    +0.000 A 
ATOM     20  C   UNL     1      -0.954  10.703  23.395  0.00  0.00    +0.000 A 
ATOM     21  C   UNL     1      -1.092  11.704  22.422  0.00  0.00    +0.000 A 
ATOM     22  C   UNL     1      -0.698  11.458  21.105  0.00  0.00    +0.000 A 
ATOM     23  C   UNL     1      -0.217  10.183  20.793  0.00  0.00    +0.000 A 
BRANCH  22  24
ATOM     24  C   UNL     1      -0.837  12.468  19.997  0.00  0.00    +0.000 C 
BRANCH  24  25
ATOM     25  N   UNL     1      -2.123  12.476  19.311  0.00  0.00    +0.000 N 
ATOM     26  C   UNL     1      -3.257  12.883  19.968  0.00  0.00    +0.000 A 
ATOM     27  N   UNL     1      -4.322  12.250  19.526  0.00  0.00    +0.000 NA
ATOM     28  C   UNL     1      -3.900  11.618  18.384  0.00  0.00    +0.000 A 
ATOM     29  C   UNL     1      -4.676  10.914  17.454  0.00  0.00    +0.000 A 
ATOM     30  C   UNL     1      -4.108  10.587  16.224  0.00  0.00    +0.000 A 
ATOM     31  C   UNL     1      -2.757  10.867  15.977  0.00  0.00    +0.000 A 
ATOM     32  C   UNL     1      -1.920  11.427  16.964  0.00  0.00    +0.000 A 
ATOM     33  C   UNL     1      -2.529  11.830  18.161  0.00  0.00    +0.000 A 
ENDBRANCH  24  25
ENDBRANCH  22  24
ENDBRANCH   6  18
TORSDOF 5
ENDMDL
MODEL 8
REMARK VINA RESULT:      -8.8      6.282      9.733
REMARK  Name = 
REMARK  6 active torsions:
REMARK  status: ('A' for Active; 'I' for Inactive)
REMARK    1  A    between atoms: C_1  and  O_2
REMARK    2  A    between atoms: O_2  and  C_3
REMARK    3  A    between atoms: C_9  and  C_10
REMARK    4  A    between atoms: N_15  and  C_16
REMARK    5  A    between atoms: C_20  and  C_21
REMARK    6  A    between atoms: C_21  and  N_22
REMARK                            x       y       z     vdW  Elec       q    Type
REMARK                         _______ _______ _______ _____ _____    ______ ____
ROOT
ATOM      1  C   UNL     1       3.838   6.235  18.082  0.00  0.00    +0.000 A 
ATOM      2  C   UNL     1       3.583   5.809  19.373  0.00  0.00    +0.000 A 
ATOM      3  C   UNL     1       2.560   6.422  20.030  0.00  0.00    +0.000 A 
ATOM      4  N   UNL     1       1.868   7.430  19.497  0.00  0.00    +0.000 NA
ATOM      5  C   UNL     1       2.218   7.870  18.278  0.00  0.00    +0.000 A 
ATOM      6  N   UNL     1       1.581   9.002  17.758  0.00  0.00    +0.000 N 
ATOM      7  N   UNL     1       3.158   7.276  17.534  0.00  0.00    +0.000 NA
ATOM      8  H   UNL     1       1.859   9.177  16.808  0.00  0.00    +0.000 HD
ENDROOT
BRANCH   1  15
ATOM      9  C   UNL     1       4.718   4.291  16.684  0.00  0.00    +0.000 A 
ATOM     10  C   UNL     1       5.731   3.713  15.907  0.00  0.00    +0.000 A 
ATOM     11  C   UNL     1       6.917   4.407  15.662  0.00  0.00    +0.000 A 
ATOM     12  C   UNL     1       7.090   5.677  16.190  0.00  0.00    +0.000 A 
ATOM     13  C   UNL     1       6.084   6.256  16.967  0.00  0.00    +0.000 A 
ATOM     14  F   UNL     1       6.334   7.471  17.482  0.00  0.00    +0.000 F 
ATOM     15  C   UNL     1       4.873   5.591  17.238  0.00  0.00    +0.000 A 
BRANCH   9  17
ATOM     16  C   UNL     1       3.513   2.522  17.739  0.00  0.00    +0.000 C 
ATOM     17  O   UNL     1       3.514   3.653  16.871  0.00  0.00    +0.000 OA
ENDBRANCH   9  17
ENDBRANCH   1  15
BRANCH   6  18
ATOM     18  C   UNL     1       0.662   9.862  18.378  0.00  0.00    +0.000 A 
ATOM     19  C   UNL     1      -0.611  10.050  17.836  0.00  0.00    +0.000 A 
ATOM     20  C   UNL     1      -1.574  10.801  18.522  0.00  0.00    +0.000 A 
ATOM     21  C   UNL     1      -1.291  11.349  19.781  0.00  0.00    +0.000 A 
ATOM     22  C   UNL     1      -0.032  11.163  20.357  0.00  0.00    +0.000 A 
ATOM     23  C   UNL     1       0.930  10.467  19.619  0.00  0.00    +0.000 A 
BRANCH  22  24
ATOM     24  C   UNL     1       0.361  11.740  21.691  0.00  0.00    +0.000 C 
BRANCH  24  25
ATOM     25  N   UNL     1      -0.426  12.882  22.140  0.00  0.00    +0.000 N 
ATOM     26  C   UNL     1       0.113  14.144  22.127  0.00  0.00    +0.000 A 
ATOM     27  N   UNL     1      -0.376  14.886  23.096  0.00  0.00    +0.000 NA
ATOM     28  C   UNL     1      -1.442  14.169  23.577  0.00  0.00    +0.000 A 
ATOM     29  C   UNL     1      -2.389  14.569  24.528  0.00  0.00    +0.000 A 
ATOM     30  C   UNL     1      -3.549  13.809  24.674  0.00  0.00    +0.000 A 
ATOM     31  C   UNL     1      -3.702  12.615  23.957  0.00  0.00    +0.000 A 
ATOM     32  C   UNL     1      -2.684  12.114  23.120  0.00  0.00    +0.000 A 
ATOM     33  C   UNL     1      -1.566  12.935  22.916  0.00  0.00    +0.000 A 
ENDBRANCH  24  25
ENDBRANCH  22  24
ENDBRANCH   6  18
TORSDOF 5
ENDMDL
MODEL 9
REMARK VINA RESULT:      -8.8      6.595     10.373
REMARK  Name = 
REMARK  6 active torsions:
REMARK  status: ('A' for Active; 'I' for Inactive)
REMARK    1  A    between atoms: C_1  and  O_2
REMARK    2  A    between atoms: O_2  and  C_3
REMARK    3  A    between atoms: C_9  and  C_10
REMARK    4  A    between atoms: N_15  and  C_16
REMARK    5  A    between atoms: C_20  and  C_21
REMARK    6  A    between atoms: C_21  and  N_22
REMARK                            x       y       z     vdW  Elec       q    Type
REMARK                         _______ _______ _______ _____ _____    ______ ____
ROOT
ATOM      1  C   UNL     1       2.797   6.201  18.602  0.00  0.00    +0.000 A 
ATOM      2  C   UNL     1       3.297   6.972  17.569  0.00  0.00    +0.000 A 
ATOM      3  C   UNL     1       3.018   8.305  17.609  0.00  0.00    +0.000 A 
ATOM      4  N   UNL     1       2.248   8.848  18.553  0.00  0.00    +0.000 NA
ATOM      5  C   UNL     1       1.708   8.040  19.479  0.00  0.00    +0.000 A 
ATOM      6  N   UNL     1       0.803   8.577  20.401  0.00  0.00    +0.000 N 
ATOM      7  N   UNL     1       1.991   6.735  19.557  0.00  0.00    +0.000 NA
ATOM      8  H   UNL     1       0.541   7.900  21.097  0.00  0.00    +0.000 HD
ENDROOT
BRANCH   1  15
ATOM      9  C   UNL     1       4.305   4.257  19.277  0.00  0.00    +0.000 A 
ATOM     10  C   UNL     1       4.559   2.880  19.343  0.00  0.00    +0.000 A 
ATOM     11  C   UNL     1       3.625   1.966  18.852  0.00  0.00    +0.000 A 
ATOM     12  C   UNL     1       2.440   2.427  18.298  0.00  0.00    +0.000 A 
ATOM     13  C   UNL     1       2.186   3.798  18.228  0.00  0.00    +0.000 A 
ATOM     14  F   UNL     1       1.037   4.176  17.642  0.00  0.00    +0.000 F 
ATOM     15  C   UNL     1       3.099   4.754  18.712  0.00  0.00    +0.000 A 
BRANCH   9  17
ATOM     16  C   UNL     1       6.404   5.383  19.129  0.00  0.00    +0.000 C 
ATOM     17  O   UNL     1       5.179   5.168  19.825  0.00  0.00    +0.000 OA
ENDBRANCH   9  17
ENDBRANCH   1  15
BRANCH   6  18
ATOM     18  C   UNL     1       0.257   9.868  20.454  0.00  0.00    +0.000 A 
ATOM     19  C   UNL     1       0.530  10.709  21.535  0.00  0.00    +0.000 A 
ATOM     20  C   UNL     1       0.097  12.041  21.529  0.00  0.00    +0.000 A 
ATOM     21  C   UNL     1      -0.587  12.567  20.423  0.00  0.00    +0.000 A 
ATOM     22  C   UNL     1      -0.858  11.754  19.319  0.00  0.00    +0.000 A 
ATOM     23  C   UNL     1      -0.474  10.412  19.383  0.00  0.00    +0.000 A 
BRANCH  22  24
ATOM     24  C   UNL     1      -1.610  12.232  18.105  0.00  0.00    +0.000 C 
BRANCH  24  25
ATOM     25  N   UNL     1      -2.923  11.634  17.901  0.00  0.00    +0.000 N 
ATOM     26  C   UNL     1      -3.203  10.952  16.743  0.00  0.00    +0.000 A 
ATOM     27  N   UNL     1      -4.472  11.063  16.415  0.00  0.00    +0.000 NA
ATOM     28  C   UNL     1      -5.070  11.606  17.524  0.00  0.00    +0.000 A 
ATOM     29  C   UNL     1      -6.438  11.808  17.752  0.00  0.00    +0.000 A 
ATOM     30  C   UNL     1      -6.861  12.111  19.045  0.00  0.00    +0.000 A 
ATOM     31  C   UNL     1      -5.919  12.313  20.063  0.00  0.00    +0.000 A 
ATOM     32  C   UNL     1      -4.531  12.276  19.812  0.00  0.00    +0.000 A 
ATOM     33  C   UNL     1      -4.128  11.882  18.528  0.00  0.00    +0.000 A 
ENDBRANCH  24  25
ENDBRANCH  22  24
ENDBRANCH   6  18
TORSDOF 5
ENDMDL
