MODEL 1
REMARK VINA RESULT:      -8.9      0.000      0.000
REMARK  Name = 
REMARK  6 active torsions:
REMARK  status: ('A' for Active; 'I' for Inactive)
REMARK    1  A    between atoms: C_1  and  C_2
REMARK    2  A    between atoms: C_2  and  C_3
REMARK    3  A    between atoms: C_2  and  N_4
REMARK    4  A    between atoms: C_6  and  N_7
REMARK    5  A    between atoms: C_8  and  C_10
REMARK    6  A    between atoms: C_13  and  N_14
REMARK                            x       y       z     vdW  Elec       q    Type
REMARK                         _______ _______ _______ _____ _____    ______ ____
ROOT
ATOM      1  C   UNL     1       2.763   7.451  18.519  0.00  0.00    +0.000 A 
ATOM      2  C   UNL     1       2.254   7.356  19.808  0.00  0.00    +0.000 A 
ATOM      3  C   UNL     1       1.334   8.307  20.265  0.00  0.00    +0.000 A 
ATOM      4  C   UNL     1       0.916   9.383  19.477  0.00  0.00    +0.000 A 
ATOM      5  C   UNL     1       1.452   9.492  18.192  0.00  0.00    +0.000 A 
ATOM      6  C   UNL     1       2.383   8.536  17.718  0.00  0.00    +0.000 A 
ENDROOT
BRANCH   4   7
ATOM      7  N   UNL     1      -0.035  10.352  19.939  0.00  0.00    +0.000 N 
ATOM      8  C   UNL     1      -0.243  10.671  21.252  0.00  0.00    +0.000 C 
ATOM      9  O   UNL     1       0.434  10.223  22.182  0.00  0.00    +0.000 OA
ATOM     10  N   UNL     1      -1.278  11.499  21.582  0.00  0.00    +0.000 N 
ATOM     11  C   UNL     1      -1.563  11.589  23.010  0.00  0.00    +0.000 C 
ATOM     12  C   UNL     1      -2.795  12.410  23.085  0.00  0.00    +0.000 A 
ATOM     13  C   UNL     1      -3.593  12.630  24.194  0.00  0.00    +0.000 A 
ATOM     14  C   UNL     1      -4.634  13.542  24.074  0.00  0.00    +0.000 A 
ATOM     15  C   UNL     1      -4.820  14.242  22.872  0.00  0.00    +0.000 A 
ATOM     16  C   UNL     1      -4.030  13.970  21.742  0.00  0.00    +0.000 A 
ATOM     17  C   UNL     1      -3.045  13.005  21.845  0.00  0.00    +0.000 A 
ATOM     18  C   UNL     1      -2.151  12.386  20.798  0.00  0.00    +0.000 C 
ATOM     19  H   UNL     1      -0.615  10.805  19.244  0.00  0.00    +0.000 HD
ENDBRANCH   4   7
BRANCH   1  21
ATOM     20  N   UNL     1       4.594   6.884  17.029  0.00  0.00    +0.000 N 
ATOM     21  C   UNL     1       3.725   6.428  18.010  0.00  0.00    +0.000 C 
ATOM     22  O   UNL     1       3.692   5.302  18.493  0.00  0.00    +0.000 OA
ATOM     23  H   UNL     1       4.590   7.866  16.784  0.00  0.00    +0.000 HD
BRANCH  20  26
ATOM     24  N   UNL     1       6.662   4.946  14.890  0.00  0.00    +0.000 N 
ATOM     25  C   UNL     1       5.501   5.638  15.085  0.00  0.00    +0.000 A 
ATOM     26  C   UNL     1       5.536   6.116  16.368  0.00  0.00    +0.000 A 
ATOM     27  C   UNL     1       6.772   5.652  16.872  0.00  0.00    +0.000 A 
ATOM     28  N   UNL     1       7.460   4.931  15.979  0.00  0.00    +0.000 NA
BRANCH  24  30
ATOM     29  C   UNL     1       5.894   3.613  12.957  0.00  0.00    +0.000 C 
ATOM     30  C   UNL     1       7.074   4.287  13.654  0.00  0.00    +0.000 C 
ATOM     31  C   UNL     1       7.805   5.246  12.717  0.00  0.00    +0.000 C 
ENDBRANCH  24  30
ENDBRANCH  20  26
ENDBRANCH   1  21
TORSDOF 4
ENDMDL
MODEL 2
REMARK VINA RESULT:      -8.7      1.348      1.499
REMARK  Name = 
REMARK  6 active torsions:
REMARK  status: ('A' for Active; 'I' for Inactive)
REMARK    1  A    between atoms: C_1  and  C_2
REMARK    2  A    between atoms: C_2  and  C_3
REMARK    3  A    between atoms: C_2  and  N_4
REMARK    4  A    between atoms: C_6  and  N_7
REMARK    5  A    between atoms: C_8  and  C_10
REMARK    6  A    between atoms: C_13  and  N_14
REMARK                            x       y       z     vdW  Elec       q    Type
REMARK                         _______ _______ _______ _____ _____    ______ ____
ROOT
ATOM      1  C   UNL     1       2.625   7.290  18.628  0.00  0.00    +0.000 A 
ATOM      2  C   UNL     1       2.308   7.047  19.958  0.00  0.00    +0.000 A 
ATOM      3  C   UNL     1       1.470   7.933  20.647  0.00  0.00    +0.000 A 
ATOM      4  C   UNL     1       0.950   9.087  20.054  0.00  0.00    +0.000 A 
ATOM      5  C   UNL     1       1.295   9.344  18.725  0.00  0.00    +0.000 A 
ATOM      6  C   UNL     1       2.140   8.454  18.017  0.00  0.00    +0.000 A 
ENDROOT
BRANCH   4   7
ATOM      7  N   UNL     1       0.084   9.989  20.754  0.00  0.00    +0.000 N 
ATOM      8  C   UNL     1       0.321  11.326  20.916  0.00  0.00    +0.000 C 
ATOM      9  O   UNL     1       1.269  11.922  20.395  0.00  0.00    +0.000 OA
ATOM     10  N   UNL     1      -0.499  12.057  21.728  0.00  0.00    +0.000 N 
ATOM     11  C   UNL     1      -0.029  13.406  22.023  0.00  0.00    +0.000 C 
ATOM     12  C   UNL     1      -0.998  13.919  23.021  0.00  0.00    +0.000 A 
ATOM     13  C   UNL     1      -0.898  15.077  23.772  0.00  0.00    +0.000 A 
ATOM     14  C   UNL     1      -1.987  15.438  24.557  0.00  0.00    +0.000 A 
ATOM     15  C   UNL     1      -3.158  14.664  24.533  0.00  0.00    +0.000 A 
ATOM     16  C   UNL     1      -3.223  13.466  23.801  0.00  0.00    +0.000 A 
ATOM     17  C   UNL     1      -2.108  13.072  23.083  0.00  0.00    +0.000 A 
ATOM     18  C   UNL     1      -1.812  11.794  22.336  0.00  0.00    +0.000 C 
ATOM     19  H   UNL     1      -0.744   9.600  21.186  0.00  0.00    +0.000 HD
ENDBRANCH   4   7
BRANCH   1  21
ATOM     20  N   UNL     1       4.620   6.912  17.296  0.00  0.00    +0.000 N 
ATOM     21  C   UNL     1       3.495   6.339  17.873  0.00  0.00    +0.000 C 
ATOM     22  O   UNL     1       3.174   5.157  17.837  0.00  0.00    +0.000 OA
ATOM     23  H   UNL     1       4.828   7.885  17.483  0.00  0.00    +0.000 HD
BRANCH  20  26
ATOM     24  N   UNL     1       6.559   5.109  14.932  0.00  0.00    +0.000 N 
ATOM     25  C   UNL     1       5.342   5.579  15.333  0.00  0.00    +0.000 A 
ATOM     26  C   UNL     1       5.545   6.252  16.509  0.00  0.00    +0.000 A 
ATOM     27  C   UNL     1       6.934   6.126  16.738  0.00  0.00    +0.000 A 
ATOM     28  N   UNL     1       7.557   5.424  15.785  0.00  0.00    +0.000 NA
BRANCH  24  30
ATOM     29  C   UNL     1       5.545   3.830  13.076  0.00  0.00    +0.000 C 
ATOM     30  C   UNL     1       6.831   4.358  13.710  0.00  0.00    +0.000 C 
ATOM     31  C   UNL     1       7.652   5.174  12.714  0.00  0.00    +0.000 C 
ENDBRANCH  24  30
ENDBRANCH  20  26
ENDBRANCH   1  21
TORSDOF 4
ENDMDL
MODEL 3
REMARK VINA RESULT:      -8.6      1.109      1.777
REMARK  Name = 
REMARK  6 active torsions:
REMARK  status: ('A' for Active; 'I' for Inactive)
REMARK    1  A    between atoms: C_1  and  C_2
REMARK    2  A    between atoms: C_2  and  C_3
REMARK    3  A    between atoms: C_2  and  N_4
REMARK    4  A    between atoms: C_6  and  N_7
REMARK    5  A    between atoms: C_8  and  C_10
REMARK    6  A    between atoms: C_13  and  N_14
REMARK                            x       y       z     vdW  Elec       q    Type
REMARK                         _______ _______ _______ _____ _____    ______ ____
ROOT
ATOM      1  C   UNL     1       2.765   7.149  18.412  0.00  0.00    +0.000 A 
ATOM      2  C   UNL     1       2.360   8.338  17.821  0.00  0.00    +0.000 A 
ATOM      3  C   UNL     1       1.624   9.270  18.563  0.00  0.00    +0.000 A 
ATOM      4  C   UNL     1       1.249   9.041  19.890  0.00  0.00    +0.000 A 
ATOM      5  C   UNL     1       1.633   7.831  20.473  0.00  0.00    +0.000 A 
ATOM      6  C   UNL     1       2.378   6.881  19.732  0.00  0.00    +0.000 A 
ENDROOT
BRANCH   4   7
ATOM      7  N   UNL     1       0.506   9.999  20.656  0.00  0.00    +0.000 N 
ATOM      8  C   UNL     1      -0.642  10.609  20.233  0.00  0.00    +0.000 C 
ATOM      9  O   UNL     1      -1.217  10.331  19.176  0.00  0.00    +0.000 OA
ATOM     10  N   UNL     1      -1.182  11.613  20.985  0.00  0.00    +0.000 N 
ATOM     11  C   UNL     1      -2.259  12.355  20.340  0.00  0.00    +0.000 C 
ATOM     12  C   UNL     1      -2.558  13.459  21.283  0.00  0.00    +0.000 A 
ATOM     13  C   UNL     1      -3.365  14.561  21.061  0.00  0.00    +0.000 A 
ATOM     14  C   UNL     1      -3.613  15.411  22.132  0.00  0.00    +0.000 A 
ATOM     15  C   UNL     1      -3.092  15.113  23.401  0.00  0.00    +0.000 A 
ATOM     16  C   UNL     1      -2.236  14.016  23.597  0.00  0.00    +0.000 A 
ATOM     17  C   UNL     1      -1.931  13.218  22.509  0.00  0.00    +0.000 A 
ATOM     18  C   UNL     1      -0.947  12.083  22.359  0.00  0.00    +0.000 C 
ATOM     19  H   UNL     1       0.878  10.265  21.558  0.00  0.00    +0.000 HD
ENDBRANCH   4   7
BRANCH   1  21
ATOM     20  N   UNL     1       4.764   6.653  17.126  0.00  0.00    +0.000 N 
ATOM     21  C   UNL     1       3.573   6.158  17.639  0.00  0.00    +0.000 C 
ATOM     22  O   UNL     1       3.151   5.012  17.535  0.00  0.00    +0.000 OA
ATOM     23  H   UNL     1       5.051   7.594  17.366  0.00  0.00    +0.000 HD
BRANCH  20  26
ATOM     24  N   UNL     1       6.636   4.840  14.715  0.00  0.00    +0.000 N 
ATOM     25  C   UNL     1       5.465   5.442  15.078  0.00  0.00    +0.000 A 
ATOM     26  C   UNL     1       5.655   5.949  16.337  0.00  0.00    +0.000 A 
ATOM     27  C   UNL     1       6.986   5.593  16.651  0.00  0.00    +0.000 A 
ATOM     28  N   UNL     1       7.587   4.911  15.670  0.00  0.00    +0.000 NA
BRANCH  24  30
ATOM     29  C   UNL     1       5.631   3.653  12.795  0.00  0.00    +0.000 C 
ATOM     30  C   UNL     1       6.909   4.190  13.437  0.00  0.00    +0.000 C 
ATOM     31  C   UNL     1       7.669   5.110  12.484  0.00  0.00    +0.000 C 
ENDBRANCH  24  30
ENDBRANCH  20  26
ENDBRANCH   1  21
TORSDOF 4
ENDMDL
MODEL 4
REMARK VINA RESULT:      -7.9      3.096      4.579
REMARK  Name = 
REMARK  6 active torsions:
REMARK  status: ('A' for Active; 'I' for Inactive)
REMARK    1  A    between atoms: C_1  and  C_2
REMARK    2  A    between atoms: C_2  and  C_3
REMARK    3  A    between atoms: C_2  and  N_4
REMARK    4  A    between atoms: C_6  and  N_7
REMARK    5  A    between atoms: C_8  and  C_10
REMARK    6  A    between atoms: C_13  and  N_14
REMARK                            x       y       z     vdW  Elec       q    Type
REMARK                         _______ _______ _______ _____ _____    ______ ____
ROOT
ATOM      1  C   UNL     1       0.780   9.324  20.999  0.00  0.00    +0.000 A 
ATOM      2  C   UNL     1       0.246   9.122  22.265  0.00  0.00    +0.000 A 
ATOM      3  C   UNL     1      -0.404  10.174  22.923  0.00  0.00    +0.000 A 
ATOM      4  C   UNL     1      -0.519  11.450  22.363  0.00  0.00    +0.000 A 
ATOM      5  C   UNL     1       0.044  11.657  21.102  0.00  0.00    +0.000 A 
ATOM      6  C   UNL     1       0.703  10.601  20.426  0.00  0.00    +0.000 A 
ENDROOT
BRANCH   4   7
ATOM      7  N   UNL     1      -1.194  12.525  23.030  0.00  0.00    +0.000 N 
ATOM      8  C   UNL     1      -2.543  12.740  22.985  0.00  0.00    +0.000 C 
ATOM      9  O   UNL     1      -3.342  11.974  22.439  0.00  0.00    +0.000 OA
ATOM     10  N   UNL     1      -3.057  13.880  23.536  0.00  0.00    +0.000 N 
ATOM     11  C   UNL     1      -4.461  14.133  23.232  0.00  0.00    +0.000 C 
ATOM     12  C   UNL     1      -4.723  15.474  23.806  0.00  0.00    +0.000 A 
ATOM     13  C   UNL     1      -5.845  16.262  23.624  0.00  0.00    +0.000 A 
ATOM     14  C   UNL     1      -5.942  17.436  24.363  0.00  0.00    +0.000 A 
ATOM     15  C   UNL     1      -4.944  17.764  25.294  0.00  0.00    +0.000 A 
ATOM     16  C   UNL     1      -3.788  16.975  25.431  0.00  0.00    +0.000 A 
ATOM     17  C   UNL     1      -3.662  15.850  24.636  0.00  0.00    +0.000 A 
ATOM     18  C   UNL     1      -2.504  14.903  24.437  0.00  0.00    +0.000 C 
ATOM     19  H   UNL     1      -0.625  13.188  23.540  0.00  0.00    +0.000 HD
ENDBRANCH   4   7
BRANCH   1  21
ATOM     20  N   UNL     1       1.523   7.013  20.984  0.00  0.00    +0.000 N 
ATOM     21  C   UNL     1       1.451   8.204  20.275  0.00  0.00    +0.000 C 
ATOM     22  O   UNL     1       1.859   8.403  19.136  0.00  0.00    +0.000 OA
ATOM     23  H   UNL     1       1.059   6.945  21.881  0.00  0.00    +0.000 HD
BRANCH  20  26
ATOM     24  N   UNL     1       3.463   4.382  19.598  0.00  0.00    +0.000 N 
ATOM     25  C   UNL     1       3.222   5.721  19.720  0.00  0.00    +0.000 A 
ATOM     26  C   UNL     1       2.140   5.854  20.550  0.00  0.00    +0.000 A 
ATOM     27  C   UNL     1       1.795   4.523  20.877  0.00  0.00    +0.000 A 
ATOM     28  N   UNL     1       2.592   3.621  20.294  0.00  0.00    +0.000 NA
BRANCH  24  30
ATOM     29  C   UNL     1       4.068   3.312  17.455  0.00  0.00    +0.000 C 
ATOM     30  C   UNL     1       4.544   3.769  18.832  0.00  0.00    +0.000 C 
ATOM     31  C   UNL     1       5.758   4.690  18.728  0.00  0.00    +0.000 C 
ENDBRANCH  24  30
ENDBRANCH  20  26
ENDBRANCH   1  21
TORSDOF 4
ENDMDL
MODEL 5
REMARK VINA RESULT:      -7.8      2.047      2.837
REMARK  Name = 
REMARK  6 active torsions:
REMARK  status: ('A' for Active; 'I' for Inactive)
REMARK    1  A    between atoms: C_1  and  C_2
REMARK    2  A    between atoms: C_2  and  C_3
REMARK    3  A    between atoms: C_2  and  N_4
REMARK    4  A    between atoms: C_6  and  N_7
REMARK    5  A    between atoms: C_8  and  C_10
REMARK    6  A    between atoms: C_13  and  N_14
REMARK                            x       y       z     vdW  Elec       q    Type
REMARK                         _______ _______ _______ _____ _____    ______ ____
ROOT
ATOM      1  C   UNL     1       1.396   8.202  20.319  0.00  0.00    +0.000 A 
ATOM      2  C   UNL     1       0.958   8.198  21.637  0.00  0.00    +0.000 A 
ATOM      3  C   UNL     1       0.149   9.240  22.106  0.00  0.00    +0.000 A 
ATOM      4  C   UNL     1      -0.225  10.318  21.299  0.00  0.00    +0.000 A 
ATOM      5  C   UNL     1       0.241  10.335  19.982  0.00  0.00    +0.000 A 
ATOM      6  C   UNL     1       1.059   9.286  19.496  0.00  0.00    +0.000 A 
ENDROOT
BRANCH   4   7
ATOM      7  N   UNL     1      -1.064  11.380  21.773  0.00  0.00    +0.000 N 
ATOM      8  C   UNL     1      -0.616  12.621  22.133  0.00  0.00    +0.000 C 
ATOM      9  O   UNL     1       0.553  12.993  22.000  0.00  0.00    +0.000 OA
ATOM     10  N   UNL     1      -1.485  13.503  22.710  0.00  0.00    +0.000 N 
ATOM     11  C   UNL     1      -0.866  14.699  23.270  0.00  0.00    +0.000 C 
ATOM     12  C   UNL     1      -1.979  15.400  23.954  0.00  0.00    +0.000 A 
ATOM     13  C   UNL     1      -1.892  16.484  24.809  0.00  0.00    +0.000 A 
ATOM     14  C   UNL     1      -3.077  17.069  25.239  0.00  0.00    +0.000 A 
ATOM     15  C   UNL     1      -4.309  16.588  24.769  0.00  0.00    +0.000 A 
ATOM     16  C   UNL     1      -4.380  15.456  23.940  0.00  0.00    +0.000 A 
ATOM     17  C   UNL     1      -3.200  14.832  23.578  0.00  0.00    +0.000 A 
ATOM     18  C   UNL     1      -2.950  13.538  22.842  0.00  0.00    +0.000 C 
ATOM     19  H   UNL     1      -2.050  11.183  21.880  0.00  0.00    +0.000 HD
ENDBRANCH   4   7
BRANCH   1  21
ATOM     20  N   UNL     1       2.797   7.309  18.548  0.00  0.00    +0.000 N 
ATOM     21  C   UNL     1       2.237   7.084  19.799  0.00  0.00    +0.000 C 
ATOM     22  O   UNL     1       2.386   6.089  20.499  0.00  0.00    +0.000 OA
ATOM     23  H   UNL     1       2.682   8.215  18.113  0.00  0.00    +0.000 HD
BRANCH  20  26
ATOM     24  N   UNL     1       5.141   5.423  16.663  0.00  0.00    +0.000 N 
ATOM     25  C   UNL     1       4.773   6.615  17.220  0.00  0.00    +0.000 A 
ATOM     26  C   UNL     1       3.568   6.407  17.838  0.00  0.00    +0.000 A 
ATOM     27  C   UNL     1       3.289   5.044  17.592  0.00  0.00    +0.000 A 
ATOM     28  N   UNL     1       4.239   4.440  16.870  0.00  0.00    +0.000 NA
BRANCH  24  30
ATOM     29  C   UNL     1       7.453   4.568  16.836  0.00  0.00    +0.000 C 
ATOM     30  C   UNL     1       6.375   5.161  15.929  0.00  0.00    +0.000 C 
ATOM     31  C   UNL     1       6.130   4.284  14.703  0.00  0.00    +0.000 C 
ENDBRANCH  24  30
ENDBRANCH  20  26
ENDBRANCH   1  21
TORSDOF 4
ENDMDL
MODEL 6
REMARK VINA RESULT:      -7.8      3.085      4.668
REMARK  Name = 
REMARK  6 active torsions:
REMARK  status: ('A' for Active; 'I' for Inactive)
REMARK    1  A    between atoms: C_1  and  C_2
REMARK    2  A    between atoms: C_2  and  C_3
REMARK    3  A    between atoms: C_2  and  N_4
REMARK    4  A    between atoms: C_6  and  N_7
REMARK    5  A    between atoms: C_8  and  C_10
REMARK    6  A    between atoms: C_13  and  N_14
REMARK                            x       y       z     vdW  Elec       q    Type
REMARK                         _______ _______ _______ _____ _____    ______ ____
ROOT
ATOM      1  C   UNL     1       0.844   9.126  20.934  0.00  0.00    +0.000 A 
ATOM      2  C   UNL     1       0.629  10.311  20.243  0.00  0.00    +0.000 A 
ATOM      3  C   UNL     1       0.051  11.405  20.900  0.00  0.00    +0.000 A 
ATOM      4  C   UNL     1      -0.350  11.349  22.237  0.00  0.00    +0.000 A 
ATOM      5  C   UNL     1      -0.159  10.145  22.921  0.00  0.00    +0.000 A 
ATOM      6  C   UNL     1       0.425   9.032  22.268  0.00  0.00    +0.000 A 
ENDROOT
BRANCH   4   7
ATOM      7  N   UNL     1      -0.931  12.471  22.915  0.00  0.00    +0.000 N 
ATOM      8  C   UNL     1      -2.272  12.649  23.112  0.00  0.00    +0.000 C 
ATOM      9  O   UNL     1      -3.127  11.813  22.807  0.00  0.00    +0.000 OA
ATOM     10  N   UNL     1      -2.718  13.828  23.640  0.00  0.00    +0.000 N 
ATOM     11  C   UNL     1      -4.164  14.016  23.590  0.00  0.00    +0.000 C 
ATOM     12  C   UNL     1      -4.368  15.403  24.073  0.00  0.00    +0.000 A 
ATOM     13  C   UNL     1      -5.537  16.142  24.036  0.00  0.00    +0.000 A 
ATOM     14  C   UNL     1      -5.541  17.383  24.663  0.00  0.00    +0.000 A 
ATOM     15  C   UNL     1      -4.398  17.827  25.348  0.00  0.00    +0.000 A 
ATOM     16  C   UNL     1      -3.206  17.083  25.334  0.00  0.00    +0.000 A 
ATOM     17  C   UNL     1      -3.186  15.886  24.642  0.00  0.00    +0.000 A 
ATOM     18  C   UNL     1      -2.048  14.950  24.314  0.00  0.00    +0.000 C 
ATOM     19  H   UNL     1      -0.304  13.195  23.240  0.00  0.00    +0.000 HD
ENDBRANCH   4   7
BRANCH   1  21
ATOM     20  N   UNL     1       1.418   6.767  20.957  0.00  0.00    +0.000 N 
ATOM     21  C   UNL     1       1.484   7.961  20.252  0.00  0.00    +0.000 C 
ATOM     22  O   UNL     1       1.986   8.133  19.147  0.00  0.00    +0.000 OA
ATOM     23  H   UNL     1       0.887   6.731  21.818  0.00  0.00    +0.000 HD
BRANCH  20  26
ATOM     24  N   UNL     1       3.217   4.005  19.638  0.00  0.00    +0.000 N 
ATOM     25  C   UNL     1       3.026   5.355  19.702  0.00  0.00    +0.000 A 
ATOM     26  C   UNL     1       1.979   5.567  20.561  0.00  0.00    +0.000 A 
ATOM     27  C   UNL     1       1.602   4.267  20.966  0.00  0.00    +0.000 A 
ATOM     28  N   UNL     1       2.347   3.309  20.401  0.00  0.00    +0.000 NA
BRANCH  24  30
ATOM     29  C   UNL     1       3.790   1.927  18.431  0.00  0.00    +0.000 C 
ATOM     30  C   UNL     1       4.249   3.317  18.868  0.00  0.00    +0.000 C 
ATOM     31  C   UNL     1       4.719   4.152  17.679  0.00  0.00    +0.000 C 
ENDBRANCH  24  30
ENDBRANCH  20  26
ENDBRANCH   1  21
TORSDOF 4
ENDMDL
MODEL 7
REMARK VINA RESULT:      -7.7      3.416     12.082
REMARK  Name = 
REMARK  6 active torsions:
REMARK  status: ('A' for Active; 'I' for Inactive)
REMARK    1  A    between atoms: C_1  and  C_2
REMARK    2  A    between atoms: C_2  and  C_3
REMARK    3  A    between atoms: C_2  and  N_4
REMARK    4  A    between atoms: C_6  and  N_7
REMARK    5  A    between atoms: C_8  and  C_10
REMARK    6  A    between atoms: C_13  and  N_14
REMARK                            x       y       z     vdW  Elec       q    Type
REMARK                         _______ _______ _______ _____ _____    ______ ____
ROOT
ATOM      1  C   UNL     1      -0.494  11.434  22.347  0.00  0.00    +0.000 A 
ATOM      2  C   UNL     1      -0.769  10.308  23.112  0.00  0.00    +0.000 A 
ATOM      3  C   UNL     1      -0.188   9.079  22.776  0.00  0.00    +0.000 A 
ATOM      4  C   UNL     1       0.652   8.925  21.670  0.00  0.00    +0.000 A 
ATOM      5  C   UNL     1       0.903  10.054  20.885  0.00  0.00    +0.000 A 
ATOM      6  C   UNL     1       0.322  11.303  21.215  0.00  0.00    +0.000 A 
ENDROOT
BRANCH   4   7
ATOM      7  N   UNL     1       1.257   7.671  21.331  0.00  0.00    +0.000 N 
ATOM      8  C   UNL     1       1.814   7.380  20.116  0.00  0.00    +0.000 C 
ATOM      9  O   UNL     1       1.938   8.203  19.204  0.00  0.00    +0.000 OA
ATOM     10  N   UNL     1       2.227   6.104  19.858  0.00  0.00    +0.000 N 
ATOM     11  C   UNL     1       2.583   5.841  18.468  0.00  0.00    +0.000 C 
ATOM     12  C   UNL     1       2.843   4.382  18.428  0.00  0.00    +0.000 A 
ATOM     13  C   UNL     1       3.027   3.591  17.308  0.00  0.00    +0.000 A 
ATOM     14  C   UNL     1       3.389   2.263  17.503  0.00  0.00    +0.000 A 
ATOM     15  C   UNL     1       3.605   1.777  18.803  0.00  0.00    +0.000 A 
ATOM     16  C   UNL     1       3.367   2.583  19.929  0.00  0.00    +0.000 A 
ATOM     17  C   UNL     1       2.932   3.880  19.730  0.00  0.00    +0.000 A 
ATOM     18  C   UNL     1       2.452   4.925  20.708  0.00  0.00    +0.000 C 
ATOM     19  H   UNL     1       1.240   6.940  22.030  0.00  0.00    +0.000 HD
ENDBRANCH   4   7
BRANCH   1  21
ATOM     20  N   UNL     1      -2.337  13.004  22.163  0.00  0.00    +0.000 N 
ATOM     21  C   UNL     1      -1.085  12.756  22.710  0.00  0.00    +0.000 C 
ATOM     22  O   UNL     1      -0.454  13.494  23.458  0.00  0.00    +0.000 OA
ATOM     23  H   UNL     1      -2.800  12.272  21.640  0.00  0.00    +0.000 HD
BRANCH  20  26
ATOM     24  N   UNL     1      -4.528  15.702  22.889  0.00  0.00    +0.000 N 
ATOM     25  C   UNL     1      -4.192  14.389  23.055  0.00  0.00    +0.000 A 
ATOM     26  C   UNL     1      -3.062  14.172  22.310  0.00  0.00    +0.000 A 
ATOM     27  C   UNL     1      -2.794  15.430  21.724  0.00  0.00    +0.000 A 
ATOM     28  N   UNL     1      -3.687  16.365  22.066  0.00  0.00    +0.000 NA
BRANCH  24  30
ATOM     29  C   UNL     1      -6.800  15.431  23.821  0.00  0.00    +0.000 C 
ATOM     30  C   UNL     1      -5.648  16.390  23.523  0.00  0.00    +0.000 C 
ATOM     31  C   UNL     1      -5.213  17.149  24.774  0.00  0.00    +0.000 C 
ENDBRANCH  24  30
ENDBRANCH  20  26
ENDBRANCH   1  21
TORSDOF 4
ENDMDL
MODEL 8
REMARK VINA RESULT:      -7.7      3.528     12.216
REMARK  Name = 
REMARK  6 active torsions:
REMARK  status: ('A' for Active; 'I' for Inactive)
REMARK    1  A    between atoms: C_1  and  C_2
REMARK    2  A    between atoms: C_2  and  C_3
REMARK    3  A    between atoms: C_2  and  N_4
REMARK    4  A    between atoms: C_6  and  N_7
REMARK    5  A    between atoms: C_8  and  C_10
REMARK    6  A    between atoms: C_13  and  N_14
REMARK                            x       y       z     vdW  Elec       q    Type
REMARK                         _______ _______ _______ _____ _____    ______ ____
ROOT
ATOM      1  C   UNL     1      -0.452  11.719  21.985  0.00  0.00    +0.000 A 
ATOM      2  C   UNL     1       0.357  11.542  20.870  0.00  0.00    +0.000 A 
ATOM      3  C   UNL     1       0.920  10.286  20.610  0.00  0.00    +0.000 A 
ATOM      4  C   UNL     1       0.722   9.188  21.452  0.00  0.00    +0.000 A 
ATOM      5  C   UNL     1      -0.069   9.377  22.588  0.00  0.00    +0.000 A 
ATOM      6  C   UNL     1      -0.645  10.642  22.861  0.00  0.00    +0.000 A 
ENDROOT
BRANCH   4   7
ATOM      7  N   UNL     1       1.287   7.899  21.181  0.00  0.00    +0.000 N 
ATOM      8  C   UNL     1       1.828   7.524  19.983  0.00  0.00    +0.000 C 
ATOM      9  O   UNL     1       1.973   8.291  19.027  0.00  0.00    +0.000 OA
ATOM     10  N   UNL     1       2.202   6.223  19.796  0.00  0.00    +0.000 N 
ATOM     11  C   UNL     1       2.543   5.872  18.422  0.00  0.00    +0.000 C 
ATOM     12  C   UNL     1       2.758   4.407  18.462  0.00  0.00    +0.000 A 
ATOM     13  C   UNL     1       2.912   3.549  17.388  0.00  0.00    +0.000 A 
ATOM     14  C   UNL     1       3.235   2.224  17.655  0.00  0.00    +0.000 A 
ATOM     15  C   UNL     1       3.442   1.804  18.979  0.00  0.00    +0.000 A 
ATOM     16  C   UNL     1       3.234   2.678  20.060  0.00  0.00    +0.000 A 
ATOM     17  C   UNL     1       2.837   3.975  19.790  0.00  0.00    +0.000 A 
ATOM     18  C   UNL     1       2.395   5.087  20.710  0.00  0.00    +0.000 C 
ATOM     19  H   UNL     1       1.250   7.209  21.921  0.00  0.00    +0.000 HD
ENDBRANCH   4   7
BRANCH   1  21
ATOM     20  N   UNL     1      -1.328  13.306  23.600  0.00  0.00    +0.000 N 
ATOM     21  C   UNL     1      -1.080  13.046  22.259  0.00  0.00    +0.000 C 
ATOM     22  O   UNL     1      -1.304  13.794  21.314  0.00  0.00    +0.000 OA
ATOM     23  H   UNL     1      -1.005  12.649  24.298  0.00  0.00    +0.000 HD
BRANCH  20  26
ATOM     24  N   UNL     1      -3.398  15.968  24.712  0.00  0.00    +0.000 N 
ATOM     25  C   UNL     1      -3.280  14.754  24.098  0.00  0.00    +0.000 A 
ATOM     26  C   UNL     1      -1.947  14.438  24.098  0.00  0.00    +0.000 A 
ATOM     27  C   UNL     1      -1.336  15.539  24.739  0.00  0.00    +0.000 A 
ATOM     28  N   UNL     1      -2.213  16.479  25.109  0.00  0.00    +0.000 NA
BRANCH  24  30
ATOM     29  C   UNL     1      -4.423  18.197  25.004  0.00  0.00    +0.000 C 
ATOM     30  C   UNL     1      -4.643  16.686  24.967  0.00  0.00    +0.000 C 
ATOM     31  C   UNL     1      -5.733  16.303  23.969  0.00  0.00    +0.000 C 
ENDBRANCH  24  30
ENDBRANCH  20  26
ENDBRANCH   1  21
TORSDOF 4
ENDMDL
MODEL 9
REMARK VINA RESULT:      -7.7      1.602      1.821
REMARK  Name = 
REMARK  6 active torsions:
REMARK  status: ('A' for Active; 'I' for Inactive)
REMARK    1  A    between atoms: C_1  and  C_2
REMARK    2  A    between atoms: C_2  and  C_3
REMARK    3  A    between atoms: C_2  and  N_4
REMARK    4  A    between atoms: C_6  and  N_7
REMARK    5  A    between atoms: C_8  and  C_10
REMARK    6  A    between atoms: C_13  and  N_14
REMARK                            x       y       z     vdW  Elec       q    Type
REMARK                         _______ _______ _______ _____ _____    ______ ____
ROOT
ATOM      1  C   UNL     1       1.950   7.565  19.686  0.00  0.00    +0.000 A 
ATOM      2  C   UNL     1       1.375   7.552  20.950  0.00  0.00    +0.000 A 
ATOM      3  C   UNL     1       0.481   8.565  21.318  0.00  0.00    +0.000 A 
ATOM      4  C   UNL     1       0.156   9.624  20.465  0.00  0.00    +0.000 A 
ATOM      5  C   UNL     1       0.759   9.649  19.205  0.00  0.00    +0.000 A 
ATOM      6  C   UNL     1       1.664   8.629  18.821  0.00  0.00    +0.000 A 
ENDROOT
BRANCH   4   7
ATOM      7  N   UNL     1      -0.768  10.656  20.835  0.00  0.00    +0.000 N 
ATOM      8  C   UNL     1      -0.443  11.761  21.571  0.00  0.00    +0.000 C 
ATOM      9  O   UNL     1       0.709  12.038  21.920  0.00  0.00    +0.000 OA
ATOM     10  N   UNL     1      -1.435  12.602  21.989  0.00  0.00    +0.000 N 
ATOM     11  C   UNL     1      -1.021  13.610  22.958  0.00  0.00    +0.000 C 
ATOM     12  C   UNL     1      -2.284  14.276  23.354  0.00  0.00    +0.000 A 
ATOM     13  C   UNL     1      -2.473  15.172  24.391  0.00  0.00    +0.000 A 
ATOM     14  C   UNL     1      -3.718  15.779  24.506  0.00  0.00    +0.000 A 
ATOM     15  C   UNL     1      -4.720  15.512  23.559  0.00  0.00    +0.000 A 
ATOM     16  C   UNL     1      -4.526  14.563  22.542  0.00  0.00    +0.000 A 
ATOM     17  C   UNL     1      -3.310  13.906  22.479  0.00  0.00    +0.000 A 
ATOM     18  C   UNL     1      -2.852  12.751  21.623  0.00  0.00    +0.000 C 
ATOM     19  H   UNL     1      -1.734  10.538  20.560  0.00  0.00    +0.000 HD
ENDBRANCH   4   7
BRANCH   1  21
ATOM     20  N   UNL     1       3.099   6.383  17.903  0.00  0.00    +0.000 N 
ATOM     21  C   UNL     1       2.884   6.475  19.271  0.00  0.00    +0.000 C 
ATOM     22  O   UNL     1       3.393   5.778  20.141  0.00  0.00    +0.000 OA
ATOM     23  H   UNL     1       2.698   7.084  17.293  0.00  0.00    +0.000 HD
BRANCH  20  26
ATOM     24  N   UNL     1       5.360   4.373  16.044  0.00  0.00    +0.000 N 
ATOM     25  C   UNL     1       4.889   5.613  16.368  0.00  0.00    +0.000 A 
ATOM     26  C   UNL     1       3.877   5.429  17.273  0.00  0.00    +0.000 A 
ATOM     27  C   UNL     1       3.811   4.026  17.430  0.00  0.00    +0.000 A 
ATOM     28  N   UNL     1       4.706   3.376  16.678  0.00  0.00    +0.000 NA
BRANCH  24  30
ATOM     29  C   UNL     1       5.973   3.870  13.704  0.00  0.00    +0.000 C 
ATOM     30  C   UNL     1       6.464   4.081  15.135  0.00  0.00    +0.000 C 
ATOM     31  C   UNL     1       7.550   5.152  15.201  0.00  0.00    +0.000 C 
ENDBRANCH  24  30
ENDBRANCH  20  26
ENDBRANCH   1  21
TORSDOF 4
ENDMDL
