MODEL 1
REMARK VINA RESULT:      -6.2      0.000      0.000
REMARK  Name = 
REMARK  6 active torsions:
REMARK  status: ('A' for Active; 'I' for Inactive)
REMARK    1  A    between atoms: C_1  and  C_2
REMARK    2  A    between atoms: C_3  and  C_4
REMARK    3  A    between atoms: C_11  and  S_12
REMARK    4  A    between atoms: S_12  and  C_13
REMARK    5  A    between atoms: C_13  and  C_14
REMARK    6  A    between atoms: C_14  and  O_16
REMARK                            x       y       z     vdW  Elec       q    Type
REMARK                         _______ _______ _______ _____ _____    ______ ____
ROOT
ATOM      1  C   UNL     1       3.950   2.847  19.093  0.00  0.00    +0.000 C 
ATOM      2  C   UNL     1       3.227   4.117  19.438  0.00  0.00    +0.000 A 
ATOM      3  C   UNL     1       2.363   4.247  20.521  0.00  0.00    +0.000 A 
ATOM      4  S   UNL     1       1.700   5.811  20.646  0.00  0.00    +0.000 S 
ATOM      5  C   UNL     1       2.543   6.349  19.278  0.00  0.00    +0.000 A 
ATOM      6  N   UNL     1       2.385   7.615  18.863  0.00  0.00    +0.000 NA
ATOM      7  C   UNL     1       3.111   7.906  17.788  0.00  0.00    +0.000 A 
ATOM      8  N   UNL     1       3.950   7.092  17.127  0.00  0.00    +0.000 NA
ATOM      9  C   UNL     1       4.053   5.811  17.559  0.00  0.00    +0.000 A 
ATOM     10  C   UNL     1       3.341   5.373  18.696  0.00  0.00    +0.000 A 
ENDROOT
BRANCH   3  11
ATOM     11  C   UNL     1       2.030   3.219  21.458  0.00  0.00    +0.000 C 
ATOM     12  N   UNL     1       1.770   2.369  22.206  0.00  0.00    +0.000 NA
ENDBRANCH   3  11
BRANCH   9  13
ATOM     13  S   UNL     1       5.065   4.691  16.637  0.00  0.00    +0.000 S 
BRANCH  13  14
ATOM     14  C   UNL     1       6.714   5.418  16.828  0.00  0.00    +0.000 C 
BRANCH  14  15
ATOM     15  C   UNL     1       7.489   4.767  17.950  0.00  0.00    +0.000 C 
ATOM     16  O   UNL     1       8.481   4.072  17.787  0.00  0.00    +0.000 OA
BRANCH  15  17
ATOM     17  O   UNL     1       6.977   5.015  19.179  0.00  0.00    +0.000 OA
ATOM     18  H   UNL     1       7.552   4.658  19.892  0.00  0.00    +0.000 HD
ENDBRANCH  15  17
ENDBRANCH  14  15
ENDBRANCH  13  14
ENDBRANCH   9  13
TORSDOF 5
ENDMDL
MODEL 2
REMARK VINA RESULT:      -6.2      1.671      1.830
REMARK  Name = 
REMARK  6 active torsions:
REMARK  status: ('A' for Active; 'I' for Inactive)
REMARK    1  A    between atoms: C_1  and  C_2
REMARK    2  A    between atoms: C_3  and  C_4
REMARK    3  A    between atoms: C_11  and  S_12
REMARK    4  A    between atoms: S_12  and  C_13
REMARK    5  A    between atoms: C_13  and  C_14
REMARK    6  A    between atoms: C_14  and  O_16
REMARK                            x       y       z     vdW  Elec       q    Type
REMARK                         _______ _______ _______ _____ _____    ______ ____
ROOT
ATOM      1  C   UNL     1       3.685   2.359  19.104  0.00  0.00    +0.000 C 
ATOM      2  C   UNL     1       3.146   3.730  19.395  0.00  0.00    +0.000 A 
ATOM      3  C   UNL     1       2.313   4.023  20.470  0.00  0.00    +0.000 A 
ATOM      4  S   UNL     1       1.874   5.668  20.529  0.00  0.00    +0.000 S 
ATOM      5  C   UNL     1       2.778   6.027  19.142  0.00  0.00    +0.000 A 
ATOM      6  N   UNL     1       2.795   7.285  18.675  0.00  0.00    +0.000 NA
ATOM      7  C   UNL     1       3.550   7.428  17.590  0.00  0.00    +0.000 A 
ATOM      8  N   UNL     1       4.266   6.478  16.964  0.00  0.00    +0.000 NA
ATOM      9  C   UNL     1       4.192   5.214  17.449  0.00  0.00    +0.000 A 
ATOM     10  C   UNL     1       3.431   4.927  18.602  0.00  0.00    +0.000 A 
ENDROOT
BRANCH   3  11
ATOM     11  C   UNL     1       1.845   3.090  21.448  0.00  0.00    +0.000 C 
ATOM     12  N   UNL     1       1.455   2.350  22.253  0.00  0.00    +0.000 NA
ENDBRANCH   3  11
BRANCH   9  13
ATOM     13  S   UNL     1       5.035   3.928  16.575  0.00  0.00    +0.000 S 
BRANCH  13  14
ATOM     14  C   UNL     1       6.662   4.669  16.279  0.00  0.00    +0.000 C 
BRANCH  14  15
ATOM     15  C   UNL     1       7.025   4.661  14.813  0.00  0.00    +0.000 C 
ATOM     16  O   UNL     1       7.744   5.493  14.277  0.00  0.00    +0.000 OA
BRANCH  15  17
ATOM     17  O   UNL     1       6.470   3.638  14.120  0.00  0.00    +0.000 OA
ATOM     18  H   UNL     1       6.888   3.525  13.239  0.00  0.00    +0.000 HD
ENDBRANCH  15  17
ENDBRANCH  14  15
ENDBRANCH  13  14
ENDBRANCH   9  13
TORSDOF 5
ENDMDL
MODEL 3
REMARK VINA RESULT:      -6.1      1.214      1.305
REMARK  Name = 
REMARK  6 active torsions:
REMARK  status: ('A' for Active; 'I' for Inactive)
REMARK    1  A    between atoms: C_1  and  C_2
REMARK    2  A    between atoms: C_3  and  C_4
REMARK    3  A    between atoms: C_11  and  S_12
REMARK    4  A    between atoms: S_12  and  C_13
REMARK    5  A    between atoms: C_13  and  C_14
REMARK    6  A    between atoms: C_14  and  O_16
REMARK                            x       y       z     vdW  Elec       q    Type
REMARK                         _______ _______ _______ _____ _____    ______ ____
ROOT
ATOM      1  C   UNL     1       3.692   2.434  19.079  0.00  0.00    +0.000 C 
ATOM      2  C   UNL     1       3.140   3.796  19.388  0.00  0.00    +0.000 A 
ATOM      3  C   UNL     1       2.309   4.067  20.470  0.00  0.00    +0.000 A 
ATOM      4  S   UNL     1       1.852   5.707  20.550  0.00  0.00    +0.000 S 
ATOM      5  C   UNL     1       2.745   6.091  19.161  0.00  0.00    +0.000 A 
ATOM      6  N   UNL     1       2.746   7.354  18.709  0.00  0.00    +0.000 NA
ATOM      7  C   UNL     1       3.494   7.517  17.622  0.00  0.00    +0.000 A 
ATOM      8  N   UNL     1       4.217   6.583  16.982  0.00  0.00    +0.000 NA
ATOM      9  C   UNL     1       4.159   5.312  17.454  0.00  0.00    +0.000 A 
ATOM     10  C   UNL     1       3.407   5.004  18.606  0.00  0.00    +0.000 A 
ENDROOT
BRANCH   3  11
ATOM     11  C   UNL     1       1.855   3.119  21.440  0.00  0.00    +0.000 C 
ATOM     12  N   UNL     1       1.467   2.349  22.218  0.00  0.00    +0.000 NA
ENDBRANCH   3  11
BRANCH   9  13
ATOM     13  S   UNL     1       5.013   4.045  16.562  0.00  0.00    +0.000 S 
BRANCH  13  14
ATOM     14  C   UNL     1       6.747   4.429  16.916  0.00  0.00    +0.000 C 
BRANCH  14  15
ATOM     15  C   UNL     1       7.297   5.474  15.974  0.00  0.00    +0.000 C 
ATOM     16  O   UNL     1       7.582   5.263  14.803  0.00  0.00    +0.000 OA
BRANCH  15  17
ATOM     17  O   UNL     1       7.462   6.690  16.547  0.00  0.00    +0.000 OA
ATOM     18  H   UNL     1       8.381   7.019  16.444  0.00  0.00    +0.000 HD
ENDBRANCH  15  17
ENDBRANCH  14  15
ENDBRANCH  13  14
ENDBRANCH   9  13
TORSDOF 5
ENDMDL
MODEL 4
REMARK VINA RESULT:      -6.0      2.002      3.602
REMARK  Name = 
REMARK  6 active torsions:
REMARK  status: ('A' for Active; 'I' for Inactive)
REMARK    1  A    between atoms: C_1  and  C_2
REMARK    2  A    between atoms: C_3  and  C_4
REMARK    3  A    between atoms: C_11  and  S_12
REMARK    4  A    between atoms: S_12  and  C_13
REMARK    5  A    between atoms: C_13  and  C_14
REMARK    6  A    between atoms: C_14  and  O_16
REMARK                            x       y       z     vdW  Elec       q    Type
REMARK                         _______ _______ _______ _____ _____    ______ ____
ROOT
ATOM      1  C   UNL     1       3.558   6.936  17.816  0.00  0.00    +0.000 C 
ATOM      2  C   UNL     1       3.002   5.872  18.718  0.00  0.00    +0.000 A 
ATOM      3  C   UNL     1       2.226   6.138  19.842  0.00  0.00    +0.000 A 
ATOM      4  S   UNL     1       1.748   4.721  20.657  0.00  0.00    +0.000 S 
ATOM      5  C   UNL     1       2.550   3.729  19.541  0.00  0.00    +0.000 A 
ATOM      6  N   UNL     1       2.520   2.398  19.703  0.00  0.00    +0.000 NA
ATOM      7  C   UNL     1       3.180   1.742  18.753  0.00  0.00    +0.000 A 
ATOM      8  N   UNL     1       3.826   2.267  17.699  0.00  0.00    +0.000 NA
ATOM      9  C   UNL     1       3.860   3.619  17.593  0.00  0.00    +0.000 A 
ATOM     10  C   UNL     1       3.194   4.433  18.532  0.00  0.00    +0.000 A 
ENDROOT
BRANCH   3  11
ATOM     11  C   UNL     1       1.841   7.433  20.310  0.00  0.00    +0.000 C 
ATOM     12  N   UNL     1       1.508   8.482  20.681  0.00  0.00    +0.000 NA
ENDBRANCH   3  11
BRANCH   9  13
ATOM     13  S   UNL     1       4.800   4.335  16.277  0.00  0.00    +0.000 S 
BRANCH  13  14
ATOM     14  C   UNL     1       6.395   4.654  17.074  0.00  0.00    +0.000 C 
BRANCH  14  15
ATOM     15  C   UNL     1       7.212   5.672  16.314  0.00  0.00    +0.000 C 
ATOM     16  O   UNL     1       7.590   6.738  16.780  0.00  0.00    +0.000 OA
BRANCH  15  17
ATOM     17  O   UNL     1       7.489   5.305  15.040  0.00  0.00    +0.000 OA
ATOM     18  H   UNL     1       8.453   5.337  14.854  0.00  0.00    +0.000 HD
ENDBRANCH  15  17
ENDBRANCH  14  15
ENDBRANCH  13  14
ENDBRANCH   9  13
TORSDOF 5
ENDMDL
MODEL 5
REMARK VINA RESULT:      -5.9      1.619      3.381
REMARK  Name = 
REMARK  6 active torsions:
REMARK  status: ('A' for Active; 'I' for Inactive)
REMARK    1  A    between atoms: C_1  and  C_2
REMARK    2  A    between atoms: C_3  and  C_4
REMARK    3  A    between atoms: C_11  and  S_12
REMARK    4  A    between atoms: S_12  and  C_13
REMARK    5  A    between atoms: C_13  and  C_14
REMARK    6  A    between atoms: C_14  and  O_16
REMARK                            x       y       z     vdW  Elec       q    Type
REMARK                         _______ _______ _______ _____ _____    ______ ____
ROOT
ATOM      1  C   UNL     1       3.437   7.592  17.828  0.00  0.00    +0.000 C 
ATOM      2  C   UNL     1       3.018   6.468  18.731  0.00  0.00    +0.000 A 
ATOM      3  C   UNL     1       2.206   6.634  19.848  0.00  0.00    +0.000 A 
ATOM      4  S   UNL     1       1.909   5.169  20.665  0.00  0.00    +0.000 S 
ATOM      5  C   UNL     1       2.841   4.286  19.559  0.00  0.00    +0.000 A 
ATOM      6  N   UNL     1       2.983   2.963  19.726  0.00  0.00    +0.000 NA
ATOM      7  C   UNL     1       3.729   2.395  18.783  0.00  0.00    +0.000 A 
ATOM      8  N   UNL     1       4.310   2.997  17.731  0.00  0.00    +0.000 NA
ATOM      9  C   UNL     1       4.169   4.341  17.621  0.00  0.00    +0.000 A 
ATOM     10  C   UNL     1       3.395   5.065  18.552  0.00  0.00    +0.000 A 
ENDROOT
BRANCH   3  11
ATOM     11  C   UNL     1       1.652   7.870  20.308  0.00  0.00    +0.000 C 
ATOM     12  N   UNL     1       1.185   8.862  20.689  0.00  0.00    +0.000 NA
ENDBRANCH   3  11
BRANCH   9  13
ATOM     13  S   UNL     1       5.018   5.169  16.308  0.00  0.00    +0.000 S 
BRANCH  13  14
ATOM     14  C   UNL     1       6.420   5.922  17.173  0.00  0.00    +0.000 C 
BRANCH  14  15
ATOM     15  C   UNL     1       7.354   4.881  17.745  0.00  0.00    +0.000 C 
ATOM     16  O   UNL     1       7.574   4.735  18.939  0.00  0.00    +0.000 OA
BRANCH  15  17
ATOM     17  O   UNL     1       7.949   4.110  16.804  0.00  0.00    +0.000 OA
ATOM     18  H   UNL     1       7.685   3.167  16.885  0.00  0.00    +0.000 HD
ENDBRANCH  15  17
ENDBRANCH  14  15
ENDBRANCH  13  14
ENDBRANCH   9  13
TORSDOF 5
ENDMDL
MODEL 6
REMARK VINA RESULT:      -5.9      2.408      4.226
REMARK  Name = 
REMARK  6 active torsions:
REMARK  status: ('A' for Active; 'I' for Inactive)
REMARK    1  A    between atoms: C_1  and  C_2
REMARK    2  A    between atoms: C_3  and  C_4
REMARK    3  A    between atoms: C_11  and  S_12
REMARK    4  A    between atoms: S_12  and  C_13
REMARK    5  A    between atoms: C_13  and  C_14
REMARK    6  A    between atoms: C_14  and  O_16
REMARK                            x       y       z     vdW  Elec       q    Type
REMARK                         _______ _______ _______ _____ _____    ______ ____
ROOT
ATOM      1  C   UNL     1       4.891   7.157  16.777  0.00  0.00    +0.000 C 
ATOM      2  C   UNL     1       4.018   6.574  17.851  0.00  0.00    +0.000 A 
ATOM      3  C   UNL     1       2.880   7.200  18.349  0.00  0.00    +0.000 A 
ATOM      4  S   UNL     1       2.106   6.286  19.560  0.00  0.00    +0.000 S 
ATOM      5  C   UNL     1       3.255   5.044  19.450  0.00  0.00    +0.000 A 
ATOM      6  N   UNL     1       3.145   3.973  20.249  0.00  0.00    +0.000 NA
ATOM      7  C   UNL     1       4.104   3.074  20.050  0.00  0.00    +0.000 A 
ATOM      8  N   UNL     1       5.109   3.137  19.161  0.00  0.00    +0.000 NA
ATOM      9  C   UNL     1       5.202   4.254  18.397  0.00  0.00    +0.000 A 
ATOM     10  C   UNL     1       4.243   5.283  18.503  0.00  0.00    +0.000 A 
ENDROOT
BRANCH   3  11
ATOM     11  C   UNL     1       2.367   8.467  17.929  0.00  0.00    +0.000 C 
ATOM     12  N   UNL     1       1.934   9.486  17.577  0.00  0.00    +0.000 NA
ENDBRANCH   3  11
BRANCH   9  13
ATOM     13  S   UNL     1       6.581   4.410  17.300  0.00  0.00    +0.000 S 
BRANCH  13  14
ATOM     14  C   UNL     1       5.905   3.776  15.743  0.00  0.00    +0.000 C 
BRANCH  14  15
ATOM     15  C   UNL     1       6.673   4.285  14.546  0.00  0.00    +0.000 C 
ATOM     16  O   UNL     1       7.440   5.237  14.575  0.00  0.00    +0.000 OA
BRANCH  15  17
ATOM     17  O   UNL     1       6.430   3.591  13.409  0.00  0.00    +0.000 OA
ATOM     18  H   UNL     1       6.477   4.166  12.614  0.00  0.00    +0.000 HD
ENDBRANCH  15  17
ENDBRANCH  14  15
ENDBRANCH  13  14
ENDBRANCH   9  13
TORSDOF 5
ENDMDL
MODEL 7
REMARK VINA RESULT:      -5.9      2.354      3.762
REMARK  Name = 
REMARK  6 active torsions:
REMARK  status: ('A' for Active; 'I' for Inactive)
REMARK    1  A    between atoms: C_1  and  C_2
REMARK    2  A    between atoms: C_3  and  C_4
REMARK    3  A    between atoms: C_11  and  S_12
REMARK    4  A    between atoms: S_12  and  C_13
REMARK    5  A    between atoms: C_13  and  C_14
REMARK    6  A    between atoms: C_14  and  O_16
REMARK                            x       y       z     vdW  Elec       q    Type
REMARK                         _______ _______ _______ _____ _____    ______ ____
ROOT
ATOM      1  C   UNL     1       3.246   7.280  18.125  0.00  0.00    +0.000 C 
ATOM      2  C   UNL     1       2.847   6.083  18.938  0.00  0.00    +0.000 A 
ATOM      3  C   UNL     1       2.088   6.155  20.102  0.00  0.00    +0.000 A 
ATOM      4  S   UNL     1       1.802   4.625  20.794  0.00  0.00    +0.000 S 
ATOM      5  C   UNL     1       2.669   3.836  19.570  0.00  0.00    +0.000 A 
ATOM      6  N   UNL     1       2.794   2.502  19.607  0.00  0.00    +0.000 NA
ATOM      7  C   UNL     1       3.488   2.014  18.583  0.00  0.00    +0.000 A 
ATOM      8  N   UNL     1       4.032   2.702  17.566  0.00  0.00    +0.000 NA
ATOM      9  C   UNL     1       3.911   4.053  17.586  0.00  0.00    +0.000 A 
ATOM     10  C   UNL     1       3.192   4.698  18.614  0.00  0.00    +0.000 A 
ENDROOT
BRANCH   3  11
ATOM     11  C   UNL     1       1.577   7.351  20.699  0.00  0.00    +0.000 C 
ATOM     12  N   UNL     1       1.142   8.317  21.175  0.00  0.00    +0.000 NA
ENDBRANCH   3  11
BRANCH   9  13
ATOM     13  S   UNL     1       4.715   4.988  16.318  0.00  0.00    +0.000 S 
BRANCH  13  14
ATOM     14  C   UNL     1       6.126   3.932  15.900  0.00  0.00    +0.000 C 
BRANCH  14  15
ATOM     15  C   UNL     1       6.767   4.338  14.593  0.00  0.00    +0.000 C 
ATOM     16  O   UNL     1       7.508   5.301  14.461  0.00  0.00    +0.000 OA
BRANCH  15  17
ATOM     17  O   UNL     1       6.437   3.535  13.554  0.00  0.00    +0.000 OA
ATOM     18  H   UNL     1       6.383   4.035  12.710  0.00  0.00    +0.000 HD
ENDBRANCH  15  17
ENDBRANCH  14  15
ENDBRANCH  13  14
ENDBRANCH   9  13
TORSDOF 5
ENDMDL
MODEL 8
REMARK VINA RESULT:      -5.6      2.886      4.840
REMARK  Name = 
REMARK  6 active torsions:
REMARK  status: ('A' for Active; 'I' for Inactive)
REMARK    1  A    between atoms: C_1  and  C_2
REMARK    2  A    between atoms: C_3  and  C_4
REMARK    3  A    between atoms: C_11  and  S_12
REMARK    4  A    between atoms: S_12  and  C_13
REMARK    5  A    between atoms: C_13  and  C_14
REMARK    6  A    between atoms: C_14  and  O_16
REMARK                            x       y       z     vdW  Elec       q    Type
REMARK                         _______ _______ _______ _____ _____    ______ ____
ROOT
ATOM      1  C   UNL     1       5.005   3.721  19.181  0.00  0.00    +0.000 C 
ATOM      2  C   UNL     1       4.830   5.016  18.441  0.00  0.00    +0.000 A 
ATOM      3  C   UNL     1       5.680   5.451  17.429  0.00  0.00    +0.000 A 
ATOM      4  S   UNL     1       5.215   6.958  16.785  0.00  0.00    +0.000 S 
ATOM      5  C   UNL     1       3.880   7.064  17.824  0.00  0.00    +0.000 A 
ATOM      6  N   UNL     1       3.083   8.141  17.764  0.00  0.00    +0.000 NA
ATOM      7  C   UNL     1       2.071   8.090  18.625  0.00  0.00    +0.000 A 
ATOM      8  N   UNL     1       1.787   7.103  19.491  0.00  0.00    +0.000 NA
ATOM      9  C   UNL     1       2.638   6.048  19.542  0.00  0.00    +0.000 A 
ATOM     10  C   UNL     1       3.749   5.975  18.676  0.00  0.00    +0.000 A 
ENDROOT
BRANCH   3  11
ATOM     11  C   UNL     1       6.831   4.755  16.942  0.00  0.00    +0.000 C 
ATOM     12  N   UNL     1       7.775   4.194  16.565  0.00  0.00    +0.000 NA
ENDBRANCH   3  11
BRANCH   9  13
ATOM     13  S   UNL     1       2.347   4.791  20.752  0.00  0.00    +0.000 S 
BRANCH  13  14
ATOM     14  C   UNL     1       0.948   3.888  20.037  0.00  0.00    +0.000 C 
BRANCH  14  15
ATOM     15  C   UNL     1       1.370   3.029  18.868  0.00  0.00    +0.000 C 
ATOM     16  O   UNL     1       1.875   1.921  18.976  0.00  0.00    +0.000 OA
BRANCH  15  17
ATOM     17  O   UNL     1       1.148   3.605  17.662  0.00  0.00    +0.000 OA
ATOM     18  H   UNL     1       1.202   4.585  17.711  0.00  0.00    +0.000 HD
ENDBRANCH  15  17
ENDBRANCH  14  15
ENDBRANCH  13  14
ENDBRANCH   9  13
TORSDOF 5
ENDMDL
MODEL 9
REMARK VINA RESULT:      -5.5      1.740      3.852
REMARK  Name = 
REMARK  6 active torsions:
REMARK  status: ('A' for Active; 'I' for Inactive)
REMARK    1  A    between atoms: C_1  and  C_2
REMARK    2  A    between atoms: C_3  and  C_4
REMARK    3  A    between atoms: C_11  and  S_12
REMARK    4  A    between atoms: S_12  and  C_13
REMARK    5  A    between atoms: C_13  and  C_14
REMARK    6  A    between atoms: C_14  and  O_16
REMARK                            x       y       z     vdW  Elec       q    Type
REMARK                         _______ _______ _______ _____ _____    ______ ____
ROOT
ATOM      1  C   UNL     1       3.661   7.249  17.092  0.00  0.00    +0.000 C 
ATOM      2  C   UNL     1       2.942   6.930  18.371  0.00  0.00    +0.000 A 
ATOM      3  C   UNL     1       2.125   7.832  19.045  0.00  0.00    +0.000 A 
ATOM      4  S   UNL     1       1.451   7.171  20.463  0.00  0.00    +0.000 S 
ATOM      5  C   UNL     1       2.220   5.682  20.214  0.00  0.00    +0.000 A 
ATOM      6  N   UNL     1       2.043   4.693  21.102  0.00  0.00    +0.000 NA
ATOM      7  C   UNL     1       2.693   3.579  20.779  0.00  0.00    +0.000 A 
ATOM      8  N   UNL     1       3.458   3.367  19.695  0.00  0.00    +0.000 NA
ATOM      9  C   UNL     1       3.637   4.405  18.841  0.00  0.00    +0.000 A 
ATOM     10  C   UNL     1       2.997   5.642  19.063  0.00  0.00    +0.000 A 
ENDROOT
BRANCH   3  11
ATOM     11  C   UNL     1       1.844   9.175  18.642  0.00  0.00    +0.000 C 
ATOM     12  N   UNL     1       1.596  10.265  18.325  0.00  0.00    +0.000 NA
ENDBRANCH   3  11
BRANCH   9  13
ATOM     13  S   UNL     1       4.730   4.184  17.467  0.00  0.00    +0.000 S 
BRANCH  13  14
ATOM     14  C   UNL     1       6.274   4.900  18.087  0.00  0.00    +0.000 C 
BRANCH  14  15
ATOM     15  C   UNL     1       7.440   4.602  17.174  0.00  0.00    +0.000 C 
ATOM     16  O   UNL     1       7.480   4.900  15.989  0.00  0.00    +0.000 OA
BRANCH  15  17
ATOM     17  O   UNL     1       8.459   3.954  17.788  0.00  0.00    +0.000 OA
ATOM     18  H   UNL     1       8.293   3.841  18.749  0.00  0.00    +0.000 HD
ENDBRANCH  15  17
ENDBRANCH  14  15
ENDBRANCH  13  14
ENDBRANCH   9  13
TORSDOF 5
ENDMDL
