MODEL 1
REMARK VINA RESULT:      -8.1      0.000      0.000
REMARK  Name = 
REMARK  4 active torsions:
REMARK  status: ('A' for Active; 'I' for Inactive)
REMARK    1  A    between atoms: C_1  and  C_2
REMARK    2  A    between atoms: C_5  and  C_6
REMARK    3  A    between atoms: C_7  and  N_8
REMARK    4  A    between atoms: N_14  and  C_15
REMARK                            x       y       z     vdW  Elec       q    Type
REMARK                         _______ _______ _______ _____ _____    ______ ____
ROOT
ATOM      1  N   UNL     1       2.362   7.073  18.254  0.00  0.00    +0.000 N 
ATOM      2  C   UNL     1       1.994   7.564  19.498  0.00  0.00    +0.000 C 
ATOM      3  O   UNL     1       2.079   6.861  20.503  0.00  0.00    +0.000 OA
ATOM      4  N   UNL     1       1.548   8.902  19.483  0.00  0.00    +0.000 N 
ATOM      5  C   UNL     1       1.560   9.705  18.250  0.00  0.00    +0.000 C 
ATOM      6  C   UNL     1       1.603  11.205  18.495  0.00  0.00    +0.000 C 
ATOM      7  N   UNL     1       0.448  11.565  19.277  0.00  0.00    +0.000 N 
ATOM      8  C   UNL     1      -0.123  12.887  19.175  0.00  0.00    +0.000 C 
ATOM      9  C   UNL     1       0.284  10.836  20.460  0.00  0.00    +0.000 A 
ATOM     10  N   UNL     1      -0.463  11.417  21.434  0.00  0.00    +0.000 NA
ATOM     11  C   UNL     1      -0.686  10.726  22.569  0.00  0.00    +0.000 A 
ATOM     12  C   UNL     1      -0.191   9.462  22.797  0.00  0.00    +0.000 A 
ATOM     13  C   UNL     1       0.576   8.862  21.804  0.00  0.00    +0.000 A 
ATOM     14  C   UNL     1       0.828   9.524  20.593  0.00  0.00    +0.000 A 
ATOM     15  H   UNL     1       2.660   7.729  17.558  0.00  0.00    +0.000 HD
ENDROOT
BRANCH   1  22
ATOM     16  C   UNL     1       1.616   2.205  18.330  0.00  0.00    +0.000 C 
ATOM     17  C   UNL     1       2.507   3.375  18.034  0.00  0.00    +0.000 A 
ATOM     18  C   UNL     1       3.752   3.206  17.426  0.00  0.00    +0.000 A 
ATOM     19  C   UNL     1       4.549   4.306  17.122  0.00  0.00    +0.000 A 
ATOM     20  C   UNL     1       4.114   5.610  17.405  0.00  0.00    +0.000 A 
ATOM     21  C   UNL     1       5.021   6.767  17.111  0.00  0.00    +0.000 C 
ATOM     22  C   UNL     1       2.863   5.773  18.036  0.00  0.00    +0.000 A 
ATOM     23  C   UNL     1       2.079   4.664  18.358  0.00  0.00    +0.000 A 
ENDBRANCH   1  22
TORSDOF 1
ENDMDL
MODEL 2
REMARK VINA RESULT:      -7.9      1.250      3.226
REMARK  Name = 
REMARK  4 active torsions:
REMARK  status: ('A' for Active; 'I' for Inactive)
REMARK    1  A    between atoms: C_1  and  C_2
REMARK    2  A    between atoms: C_5  and  C_6
REMARK    3  A    between atoms: C_7  and  N_8
REMARK    4  A    between atoms: N_14  and  C_15
REMARK                            x       y       z     vdW  Elec       q    Type
REMARK                         _______ _______ _______ _____ _____    ______ ____
ROOT
ATOM      1  N   UNL     1       2.700   6.765  19.047  0.00  0.00    +0.000 N 
ATOM      2  C   UNL     1       2.171   8.000  18.705  0.00  0.00    +0.000 C 
ATOM      3  O   UNL     1       2.382   8.492  17.598  0.00  0.00    +0.000 OA
ATOM      4  N   UNL     1       1.387   8.593  19.717  0.00  0.00    +0.000 N 
ATOM      5  C   UNL     1       1.109   7.899  20.983  0.00  0.00    +0.000 C 
ATOM      6  C   UNL     1      -0.149   8.384  21.685  0.00  0.00    +0.000 C 
ATOM      7  N   UNL     1      -0.003   9.792  21.947  0.00  0.00    +0.000 N 
ATOM      8  C   UNL     1      -0.679  10.405  23.065  0.00  0.00    +0.000 C 
ATOM      9  C   UNL     1       0.318  10.572  20.830  0.00  0.00    +0.000 A 
ATOM     10  N   UNL     1       0.009  11.892  20.899  0.00  0.00    +0.000 NA
ATOM     11  C   UNL     1       0.347  12.686  19.864  0.00  0.00    +0.000 A 
ATOM     12  C   UNL     1       0.986  12.225  18.734  0.00  0.00    +0.000 A 
ATOM     13  C   UNL     1       1.304  10.875  18.655  0.00  0.00    +0.000 A 
ATOM     14  C   UNL     1       0.993  10.002  19.709  0.00  0.00    +0.000 A 
ATOM     15  H   UNL     1       2.221   6.222  19.740  0.00  0.00    +0.000 HD
ENDROOT
BRANCH   1  22
ATOM     16  C   UNL     1       7.040   5.983  16.853  0.00  0.00    +0.000 C 
ATOM     17  C   UNL     1       5.627   5.555  17.118  0.00  0.00    +0.000 A 
ATOM     18  C   UNL     1       5.132   4.341  16.642  0.00  0.00    +0.000 A 
ATOM     19  C   UNL     1       3.830   3.942  16.931  0.00  0.00    +0.000 A 
ATOM     20  C   UNL     1       2.990   4.743  17.720  0.00  0.00    +0.000 A 
ATOM     21  C   UNL     1       1.577   4.306  17.967  0.00  0.00    +0.000 C 
ATOM     22  C   UNL     1       3.490   5.979  18.182  0.00  0.00    +0.000 A 
ATOM     23  C   UNL     1       4.790   6.382  17.870  0.00  0.00    +0.000 A 
ENDBRANCH   1  22
TORSDOF 1
ENDMDL
MODEL 3
REMARK VINA RESULT:      -7.5      0.878      2.029
REMARK  Name = 
REMARK  4 active torsions:
REMARK  status: ('A' for Active; 'I' for Inactive)
REMARK    1  A    between atoms: C_1  and  C_2
REMARK    2  A    between atoms: C_5  and  C_6
REMARK    3  A    between atoms: C_7  and  N_8
REMARK    4  A    between atoms: N_14  and  C_15
REMARK                            x       y       z     vdW  Elec       q    Type
REMARK                         _______ _______ _______ _____ _____    ______ ____
ROOT
ATOM      1  N   UNL     1       2.589   7.214  18.053  0.00  0.00    +0.000 N 
ATOM      2  C   UNL     1       2.266   7.659  19.326  0.00  0.00    +0.000 C 
ATOM      3  O   UNL     1       2.639   7.043  20.323  0.00  0.00    +0.000 OA
ATOM      4  N   UNL     1       1.512   8.851  19.348  0.00  0.00    +0.000 N 
ATOM      5  C   UNL     1       1.181   9.577  18.112  0.00  0.00    +0.000 C 
ATOM      6  C   UNL     1       0.889  11.053  18.327  0.00  0.00    +0.000 C 
ATOM      7  N   UNL     1      -0.215  11.164  19.244  0.00  0.00    +0.000 N 
ATOM      8  C   UNL     1      -1.097  12.306  19.197  0.00  0.00    +0.000 C 
ATOM      9  C   UNL     1      -0.055  10.471  20.450  0.00  0.00    +0.000 A 
ATOM     10  N   UNL     1      -0.797  10.901  21.502  0.00  0.00    +0.000 NA
ATOM     11  C   UNL     1      -0.709  10.230  22.667  0.00  0.00    +0.000 A 
ATOM     12  C   UNL     1       0.101   9.131  22.848  0.00  0.00    +0.000 A 
ATOM     13  C   UNL     1       0.865   8.686  21.775  0.00  0.00    +0.000 A 
ATOM     14  C   UNL     1       0.802   9.333  20.532  0.00  0.00    +0.000 A 
ATOM     15  H   UNL     1       2.634   7.890  17.314  0.00  0.00    +0.000 HD
ENDROOT
BRANCH   1  22
ATOM     16  C   UNL     1       7.029   5.145  17.537  0.00  0.00    +0.000 C 
ATOM     17  C   UNL     1       5.535   5.015  17.568  0.00  0.00    +0.000 A 
ATOM     18  C   UNL     1       4.910   3.770  17.483  0.00  0.00    +0.000 A 
ATOM     19  C   UNL     1       3.524   3.664  17.553  0.00  0.00    +0.000 A 
ATOM     20  C   UNL     1       2.723   4.804  17.726  0.00  0.00    +0.000 A 
ATOM     21  C   UNL     1       1.231   4.658  17.745  0.00  0.00    +0.000 C 
ATOM     22  C   UNL     1       3.359   6.062  17.792  0.00  0.00    +0.000 A 
ATOM     23  C   UNL     1       4.749   6.162  17.700  0.00  0.00    +0.000 A 
ENDBRANCH   1  22
TORSDOF 1
ENDMDL
MODEL 4
REMARK VINA RESULT:      -7.4      1.462      1.584
REMARK  Name = 
REMARK  4 active torsions:
REMARK  status: ('A' for Active; 'I' for Inactive)
REMARK    1  A    between atoms: C_1  and  C_2
REMARK    2  A    between atoms: C_5  and  C_6
REMARK    3  A    between atoms: C_7  and  N_8
REMARK    4  A    between atoms: N_14  and  C_15
REMARK                            x       y       z     vdW  Elec       q    Type
REMARK                         _______ _______ _______ _____ _____    ______ ____
ROOT
ATOM      1  N   UNL     1       1.983   7.425  19.467  0.00  0.00    +0.000 N 
ATOM      2  C   UNL     1       1.491   8.165  20.532  0.00  0.00    +0.000 C 
ATOM      3  O   UNL     1       1.491   7.706  21.672  0.00  0.00    +0.000 OA
ATOM      4  N   UNL     1       1.028   9.450  20.178  0.00  0.00    +0.000 N 
ATOM      5  C   UNL     1       1.144   9.960  18.803  0.00  0.00    +0.000 C 
ATOM      6  C   UNL     1       1.140  11.477  18.709  0.00  0.00    +0.000 C 
ATOM      7  N   UNL     1      -0.089  11.959  19.284  0.00  0.00    +0.000 N 
ATOM      8  C   UNL     1      -0.669  13.204  18.838  0.00  0.00    +0.000 C 
ATOM      9  C   UNL     1      -0.355  11.505  20.580  0.00  0.00    +0.000 A 
ATOM     10  N   UNL     1      -1.200  12.259  21.329  0.00  0.00    +0.000 NA
ATOM     11  C   UNL     1      -1.520  11.829  22.565  0.00  0.00    +0.000 A 
ATOM     12  C   UNL     1      -1.028  10.665  23.113  0.00  0.00    +0.000 A 
ATOM     13  C   UNL     1      -0.161   9.888  22.353  0.00  0.00    +0.000 A 
ATOM     14  C   UNL     1       0.195  10.275  21.052  0.00  0.00    +0.000 A 
ATOM     15  H   UNL     1       2.336   7.921  18.671  0.00  0.00    +0.000 HD
ENDROOT
BRANCH   1  22
ATOM     16  C   UNL     1       1.792   2.967  21.552  0.00  0.00    +0.000 C 
ATOM     17  C   UNL     1       2.427   3.916  20.579  0.00  0.00    +0.000 A 
ATOM     18  C   UNL     1       3.439   3.501  19.712  0.00  0.00    +0.000 A 
ATOM     19  C   UNL     1       3.989   4.386  18.788  0.00  0.00    +0.000 A 
ATOM     20  C   UNL     1       3.531   5.710  18.698  0.00  0.00    +0.000 A 
ATOM     21  C   UNL     1       4.184   6.648  17.728  0.00  0.00    +0.000 C 
ATOM     22  C   UNL     1       2.522   6.128  19.591  0.00  0.00    +0.000 A 
ATOM     23  C   UNL     1       1.990   5.241  20.529  0.00  0.00    +0.000 A 
ENDBRANCH   1  22
TORSDOF 1
ENDMDL
MODEL 5
REMARK VINA RESULT:      -7.4      1.495      3.299
REMARK  Name = 
REMARK  4 active torsions:
REMARK  status: ('A' for Active; 'I' for Inactive)
REMARK    1  A    between atoms: C_1  and  C_2
REMARK    2  A    between atoms: C_5  and  C_6
REMARK    3  A    between atoms: C_7  and  N_8
REMARK    4  A    between atoms: N_14  and  C_15
REMARK                            x       y       z     vdW  Elec       q    Type
REMARK                         _______ _______ _______ _____ _____    ______ ____
ROOT
ATOM      1  N   UNL     1       2.286   6.569  20.358  0.00  0.00    +0.000 N 
ATOM      2  C   UNL     1       1.950   7.705  19.636  0.00  0.00    +0.000 C 
ATOM      3  O   UNL     1       2.302   7.835  18.465  0.00  0.00    +0.000 OA
ATOM      4  N   UNL     1       1.182   8.643  20.358  0.00  0.00    +0.000 N 
ATOM      5  C   UNL     1       0.725   8.373  21.730  0.00  0.00    +0.000 C 
ATOM      6  C   UNL     1      -0.504   9.170  22.135  0.00  0.00    +0.000 C 
ATOM      7  N   UNL     1      -0.191  10.570  22.013  0.00  0.00    +0.000 N 
ATOM      8  C   UNL     1      -0.858  11.546  22.843  0.00  0.00    +0.000 C 
ATOM      9  C   UNL     1       0.308  10.959  20.765  0.00  0.00    +0.000 A 
ATOM     10  N   UNL     1       0.173  12.269  20.436  0.00  0.00    +0.000 NA
ATOM     11  C   UNL     1       0.685  12.693  19.264  0.00  0.00    +0.000 A 
ATOM     12  C   UNL     1       1.336  11.864  18.377  0.00  0.00    +0.000 A 
ATOM     13  C   UNL     1       1.477  10.521  18.707  0.00  0.00    +0.000 A 
ATOM     14  C   UNL     1       0.980  10.024  19.922  0.00  0.00    +0.000 A 
ATOM     15  H   UNL     1       1.692   6.302  21.120  0.00  0.00    +0.000 HD
ENDROOT
BRANCH   1  22
ATOM     16  C   UNL     1       6.507   4.879  18.465  0.00  0.00    +0.000 C 
ATOM     17  C   UNL     1       5.102   4.628  18.929  0.00  0.00    +0.000 A 
ATOM     18  C   UNL     1       4.570   3.338  18.973  0.00  0.00    +0.000 A 
ATOM     19  C   UNL     1       3.278   3.119  19.443  0.00  0.00    +0.000 A 
ATOM     20  C   UNL     1       2.486   4.187  19.896  0.00  0.00    +0.000 A 
ATOM     21  C   UNL     1       1.081   3.920  20.346  0.00  0.00    +0.000 C 
ATOM     22  C   UNL     1       3.023   5.490  19.830  0.00  0.00    +0.000 A 
ATOM     23  C   UNL     1       4.312   5.704  19.338  0.00  0.00    +0.000 A 
ENDBRANCH   1  22
TORSDOF 1
ENDMDL
MODEL 6
REMARK VINA RESULT:      -7.3      3.529      6.069
REMARK  Name = 
REMARK  4 active torsions:
REMARK  status: ('A' for Active; 'I' for Inactive)
REMARK    1  A    between atoms: C_1  and  C_2
REMARK    2  A    between atoms: C_5  and  C_6
REMARK    3  A    between atoms: C_7  and  N_8
REMARK    4  A    between atoms: N_14  and  C_15
REMARK                            x       y       z     vdW  Elec       q    Type
REMARK                         _______ _______ _______ _____ _____    ______ ____
ROOT
ATOM      1  N   UNL     1       5.113   3.753  16.461  0.00  0.00    +0.000 N 
ATOM      2  C   UNL     1       4.254   4.692  17.012  0.00  0.00    +0.000 C 
ATOM      3  O   UNL     1       4.158   5.819  16.529  0.00  0.00    +0.000 OA
ATOM      4  N   UNL     1       3.526   4.226  18.127  0.00  0.00    +0.000 N 
ATOM      5  C   UNL     1       3.632   2.834  18.589  0.00  0.00    +0.000 C 
ATOM      6  C   UNL     1       2.426   2.356  19.382  0.00  0.00    +0.000 C 
ATOM      7  N   UNL     1       2.270   3.218  20.524  0.00  0.00    +0.000 N 
ATOM      8  C   UNL     1       1.657   2.727  21.736  0.00  0.00    +0.000 C 
ATOM      9  C   UNL     1       2.208   4.585  20.231  0.00  0.00    +0.000 A 
ATOM     10  N   UNL     1       1.606   5.379  21.153  0.00  0.00    +0.000 NA
ATOM     11  C   UNL     1       1.570   6.708  20.930  0.00  0.00    +0.000 A 
ATOM     12  C   UNL     1       2.107   7.303  19.811  0.00  0.00    +0.000 A 
ATOM     13  C   UNL     1       2.724   6.496  18.862  0.00  0.00    +0.000 A 
ATOM     14  C   UNL     1       2.808   5.107  19.047  0.00  0.00    +0.000 A 
ATOM     15  H   UNL     1       4.899   2.783  16.593  0.00  0.00    +0.000 HD
ENDROOT
BRANCH   1  22
ATOM     16  C   UNL     1       5.835   3.201  11.620  0.00  0.00    +0.000 C 
ATOM     17  C   UNL     1       6.276   3.760  12.940  0.00  0.00    +0.000 A 
ATOM     18  C   UNL     1       7.376   4.613  13.038  0.00  0.00    +0.000 A 
ATOM     19  C   UNL     1       7.747   5.155  14.266  0.00  0.00    +0.000 A 
ATOM     20  C   UNL     1       7.017   4.869  15.430  0.00  0.00    +0.000 A 
ATOM     21  C   UNL     1       7.477   5.428  16.742  0.00  0.00    +0.000 C 
ATOM     22  C   UNL     1       5.917   3.990  15.327  0.00  0.00    +0.000 A 
ATOM     23  C   UNL     1       5.564   3.434  14.096  0.00  0.00    +0.000 A 
ENDBRANCH   1  22
TORSDOF 1
ENDMDL
MODEL 7
REMARK VINA RESULT:      -7.1      1.826      7.491
REMARK  Name = 
REMARK  4 active torsions:
REMARK  status: ('A' for Active; 'I' for Inactive)
REMARK    1  A    between atoms: C_1  and  C_2
REMARK    2  A    between atoms: C_5  and  C_6
REMARK    3  A    between atoms: C_7  and  N_8
REMARK    4  A    between atoms: N_14  and  C_15
REMARK                            x       y       z     vdW  Elec       q    Type
REMARK                         _______ _______ _______ _____ _____    ______ ____
ROOT
ATOM      1  N   UNL     1       1.258   8.089  19.666  0.00  0.00    +0.000 N 
ATOM      2  C   UNL     1       2.363   7.874  18.856  0.00  0.00    +0.000 C 
ATOM      3  O   UNL     1       2.895   8.805  18.253  0.00  0.00    +0.000 OA
ATOM      4  N   UNL     1       2.798   6.532  18.815  0.00  0.00    +0.000 N 
ATOM      5  C   UNL     1       2.162   5.491  19.636  0.00  0.00    +0.000 C 
ATOM      6  C   UNL     1       3.057   4.293  19.911  0.00  0.00    +0.000 C 
ATOM      7  N   UNL     1       3.442   3.722  18.647  0.00  0.00    +0.000 N 
ATOM      8  C   UNL     1       3.754   2.316  18.541  0.00  0.00    +0.000 C 
ATOM      9  C   UNL     1       4.017   4.621  17.741  0.00  0.00    +0.000 A 
ATOM     10  N   UNL     1       4.806   4.089  16.773  0.00  0.00    +0.000 NA
ATOM     11  C   UNL     1       5.338   4.916  15.851  0.00  0.00    +0.000 A 
ATOM     12  C   UNL     1       5.127   6.277  15.844  0.00  0.00    +0.000 A 
ATOM     13  C   UNL     1       4.322   6.829  16.834  0.00  0.00    +0.000 A 
ATOM     14  C   UNL     1       3.726   6.016  17.810  0.00  0.00    +0.000 A 
ATOM     15  H   UNL     1       1.096   7.451  20.421  0.00  0.00    +0.000 HD
ENDROOT
BRANCH   1  22
ATOM     16  C   UNL     1      -1.387  11.852  17.906  0.00  0.00    +0.000 C 
ATOM     17  C   UNL     1      -0.657  11.202  19.044  0.00  0.00    +0.000 A 
ATOM     18  C   UNL     1      -0.667  11.754  20.325  0.00  0.00    +0.000 A 
ATOM     19  C   UNL     1      -0.018  11.116  21.379  0.00  0.00    +0.000 A 
ATOM     20  C   UNL     1       0.649   9.896  21.180  0.00  0.00    +0.000 A 
ATOM     21  C   UNL     1       1.381   9.265  22.326  0.00  0.00    +0.000 C 
ATOM     22  C   UNL     1       0.672   9.354  19.878  0.00  0.00    +0.000 A 
ATOM     23  C   UNL     1       0.036  10.010  18.823  0.00  0.00    +0.000 A 
ENDBRANCH   1  22
TORSDOF 1
ENDMDL
MODEL 8
REMARK VINA RESULT:      -7.0      3.396      5.808
REMARK  Name = 
REMARK  4 active torsions:
REMARK  status: ('A' for Active; 'I' for Inactive)
REMARK    1  A    between atoms: C_1  and  C_2
REMARK    2  A    between atoms: C_5  and  C_6
REMARK    3  A    between atoms: C_7  and  N_8
REMARK    4  A    between atoms: N_14  and  C_15
REMARK                            x       y       z     vdW  Elec       q    Type
REMARK                         _______ _______ _______ _____ _____    ______ ____
ROOT
ATOM      1  N   UNL     1       4.716   4.979  15.793  0.00  0.00    +0.000 N 
ATOM      2  C   UNL     1       4.297   4.167  16.837  0.00  0.00    +0.000 C 
ATOM      3  O   UNL     1       4.507   2.956  16.819  0.00  0.00    +0.000 OA
ATOM      4  N   UNL     1       3.647   4.859  17.881  0.00  0.00    +0.000 N 
ATOM      5  C   UNL     1       3.513   6.324  17.870  0.00  0.00    +0.000 C 
ATOM      6  C   UNL     1       3.324   6.934  19.249  0.00  0.00    +0.000 C 
ATOM      7  N   UNL     1       2.141   6.361  19.836  0.00  0.00    +0.000 N 
ATOM      8  C   UNL     1       1.368   7.103  20.803  0.00  0.00    +0.000 C 
ATOM      9  C   UNL     1       2.111   4.962  19.863  0.00  0.00    +0.000 A 
ATOM     10  N   UNL     1       1.299   4.387  20.787  0.00  0.00    +0.000 NA
ATOM     11  C   UNL     1       1.204   3.043  20.812  0.00  0.00    +0.000 A 
ATOM     12  C   UNL     1       1.895   2.219  19.951  0.00  0.00    +0.000 A 
ATOM     13  C   UNL     1       2.730   2.800  19.004  0.00  0.00    +0.000 A 
ATOM     14  C   UNL     1       2.856   4.195  18.917  0.00  0.00    +0.000 A 
ATOM     15  H   UNL     1       4.897   5.944  15.990  0.00  0.00    +0.000 HD
ENDROOT
BRANCH   1  22
ATOM     16  C   UNL     1       4.572   2.949  11.308  0.00  0.00    +0.000 C 
ATOM     17  C   UNL     1       5.362   3.541  12.437  0.00  0.00    +0.000 A 
ATOM     18  C   UNL     1       6.736   3.756  12.329  0.00  0.00    +0.000 A 
ATOM     19  C   UNL     1       7.447   4.344  13.372  0.00  0.00    +0.000 A 
ATOM     20  C   UNL     1       6.797   4.746  14.550  0.00  0.00    +0.000 A 
ATOM     21  C   UNL     1       7.603   5.327  15.673  0.00  0.00    +0.000 C 
ATOM     22  C   UNL     1       5.411   4.508  14.660  0.00  0.00    +0.000 A 
ATOM     23  C   UNL     1       4.709   3.899  13.618  0.00  0.00    +0.000 A 
ENDBRANCH   1  22
TORSDOF 1
ENDMDL
MODEL 9
REMARK VINA RESULT:      -7.0      1.996      7.108
REMARK  Name = 
REMARK  4 active torsions:
REMARK  status: ('A' for Active; 'I' for Inactive)
REMARK    1  A    between atoms: C_1  and  C_2
REMARK    2  A    between atoms: C_5  and  C_6
REMARK    3  A    between atoms: C_7  and  N_8
REMARK    4  A    between atoms: N_14  and  C_15
REMARK                            x       y       z     vdW  Elec       q    Type
REMARK                         _______ _______ _______ _____ _____    ______ ____
ROOT
ATOM      1  N   UNL     1       2.005   8.064  19.623  0.00  0.00    +0.000 N 
ATOM      2  C   UNL     1       2.047   6.694  19.836  0.00  0.00    +0.000 C 
ATOM      3  O   UNL     1       1.228   6.145  20.570  0.00  0.00    +0.000 OA
ATOM      4  N   UNL     1       3.077   6.031  19.136  0.00  0.00    +0.000 N 
ATOM      5  C   UNL     1       3.962   6.749  18.206  0.00  0.00    +0.000 C 
ATOM      6  C   UNL     1       4.599   5.856  17.153  0.00  0.00    +0.000 C 
ATOM      7  N   UNL     1       5.358   4.836  17.829  0.00  0.00    +0.000 N 
ATOM      8  C   UNL     1       6.510   4.238  17.195  0.00  0.00    +0.000 C 
ATOM      9  C   UNL     1       4.647   4.106  18.787  0.00  0.00    +0.000 A 
ATOM     10  N   UNL     1       5.131   2.876  19.099  0.00  0.00    +0.000 NA
ATOM     11  C   UNL     1       4.503   2.162  20.053  0.00  0.00    +0.000 A 
ATOM     12  C   UNL     1       3.389   2.612  20.727  0.00  0.00    +0.000 A 
ATOM     13  C   UNL     1       2.887   3.869  20.412  0.00  0.00    +0.000 A 
ATOM     14  C   UNL     1       3.509   4.667  19.439  0.00  0.00    +0.000 A 
ATOM     15  H   UNL     1       2.385   8.420  18.766  0.00  0.00    +0.000 HD
ENDROOT
BRANCH   1  22
ATOM     16  C   UNL     1      -0.237   9.774  23.661  0.00  0.00    +0.000 C 
ATOM     17  C   UNL     1      -0.049   9.802  22.173  0.00  0.00    +0.000 A 
ATOM     18  C   UNL     1      -0.701  10.744  21.376  0.00  0.00    +0.000 A 
ATOM     19  C   UNL     1      -0.484  10.782  20.001  0.00  0.00    +0.000 A 
ATOM     20  C   UNL     1       0.403   9.884  19.387  0.00  0.00    +0.000 A 
ATOM     21  C   UNL     1       0.571   9.919  17.898  0.00  0.00    +0.000 C 
ATOM     22  C   UNL     1       1.043   8.921  20.197  0.00  0.00    +0.000 A 
ATOM     23  C   UNL     1       0.805   8.877  21.572  0.00  0.00    +0.000 A 
ENDBRANCH   1  22
TORSDOF 1
ENDMDL
