MODEL 1
REMARK VINA RESULT:      -7.0      0.000      0.000
REMARK  Name = 
REMARK  4 active torsions:
REMARK  status: ('A' for Active; 'I' for Inactive)
REMARK    1  A    between atoms: C_6  and  C_7
REMARK    2  A    between atoms: C_7  and  N_8
REMARK    3  A    between atoms: N_8  and  C_9
REMARK    4  A    between atoms: C_9  and  C_10
REMARK                            x       y       z     vdW  Elec       q    Type
REMARK                         _______ _______ _______ _____ _____    ______ ____
ROOT
ATOM      1  C   UNL     1       3.243   3.100  17.280  0.00  0.00    +0.000 C 
ENDROOT
BRANCH   1   7
ATOM      2  F   UNL     1       0.897   2.817  21.560  0.00  0.00    +0.000 F 
ATOM      3  C   UNL     1       1.507   3.575  20.637  0.00  0.00    +0.000 A 
ATOM      4  C   UNL     1       1.611   4.945  20.846  0.00  0.00    +0.000 A 
ATOM      5  C   UNL     1       2.231   5.738  19.881  0.00  0.00    +0.000 A 
ATOM      6  C   UNL     1       2.748   5.152  18.721  0.00  0.00    +0.000 A 
ATOM      7  C   UNL     1       2.680   3.761  18.519  0.00  0.00    +0.000 A 
ATOM      8  C   UNL     1       2.027   2.990  19.486  0.00  0.00    +0.000 A 
ATOM      9  F   UNL     1       1.908   1.664  19.310  0.00  0.00    +0.000 F 
ENDBRANCH   1   7
BRANCH   1  10
ATOM     10  N   UNL     1       4.705   3.142  17.262  0.00  0.00    +0.000 NA
ATOM     11  H   UNL     1       5.059   2.221  16.998  0.00  0.00    +0.000 HD
BRANCH  10  12
ATOM     12  C   UNL     1       5.225   4.120  16.310  0.00  0.00    +0.000 C 
BRANCH  12  13
ATOM     13  C   UNL     1       6.151   5.094  17.008  0.00  0.00    +0.000 A 
ATOM     14  C   UNL     1       6.980   4.665  18.056  0.00  0.00    +0.000 A 
ATOM     15  C   UNL     1       7.807   5.570  18.726  0.00  0.00    +0.000 A 
ATOM     16  C   UNL     1       7.815   6.914  18.359  0.00  0.00    +0.000 A 
ATOM     17  C   UNL     1       7.011   7.352  17.309  0.00  0.00    +0.000 A 
ATOM     18  C   UNL     1       6.187   6.447  16.635  0.00  0.00    +0.000 A 
ENDBRANCH  12  13
ENDBRANCH  10  12
ENDBRANCH   1  10
TORSDOF 4
ENDMDL
MODEL 2
REMARK VINA RESULT:      -7.0      2.741      6.049
REMARK  Name = 
REMARK  4 active torsions:
REMARK  status: ('A' for Active; 'I' for Inactive)
REMARK    1  A    between atoms: C_6  and  C_7
REMARK    2  A    between atoms: C_7  and  N_8
REMARK    3  A    between atoms: N_8  and  C_9
REMARK    4  A    between atoms: C_9  and  C_10
REMARK                            x       y       z     vdW  Elec       q    Type
REMARK                         _______ _______ _______ _____ _____    ______ ____
ROOT
ATOM      1  C   UNL     1       4.286   7.213  17.548  0.00  0.00    +0.000 C 
ENDROOT
BRANCH   1   7
ATOM      2  F   UNL     1       8.117   4.183  17.770  0.00  0.00    +0.000 F 
ATOM      3  C   UNL     1       7.157   4.762  17.035  0.00  0.00    +0.000 A 
ATOM      4  C   UNL     1       7.065   4.460  15.681  0.00  0.00    +0.000 A 
ATOM      5  C   UNL     1       6.077   5.072  14.910  0.00  0.00    +0.000 A 
ATOM      6  C   UNL     1       5.185   5.971  15.503  0.00  0.00    +0.000 A 
ATOM      7  C   UNL     1       5.247   6.254  16.880  0.00  0.00    +0.000 A 
ATOM      8  C   UNL     1       6.265   5.652  17.627  0.00  0.00    +0.000 A 
ATOM      9  F   UNL     1       6.381   5.927  18.935  0.00  0.00    +0.000 F 
ENDBRANCH   1   7
BRANCH   1  10
ATOM     10  N   UNL     1       3.001   6.577  17.836  0.00  0.00    +0.000 NA
ATOM     11  H   UNL     1       2.976   5.662  17.386  0.00  0.00    +0.000 HD
BRANCH  10  12
ATOM     12  C   UNL     1       2.779   6.389  19.267  0.00  0.00    +0.000 C 
BRANCH  12  13
ATOM     13  C   UNL     1       2.141   5.041  19.529  0.00  0.00    +0.000 A 
ATOM     14  C   UNL     1       1.978   4.571  20.840  0.00  0.00    +0.000 A 
ATOM     15  C   UNL     1       1.424   3.311  21.083  0.00  0.00    +0.000 A 
ATOM     16  C   UNL     1       1.028   2.505  20.018  0.00  0.00    +0.000 A 
ATOM     17  C   UNL     1       1.168   2.964  18.710  0.00  0.00    +0.000 A 
ATOM     18  C   UNL     1       1.717   4.226  18.466  0.00  0.00    +0.000 A 
ENDBRANCH  12  13
ENDBRANCH  10  12
ENDBRANCH   1  10
TORSDOF 4
ENDMDL
MODEL 3
REMARK VINA RESULT:      -6.9      3.006      5.825
REMARK  Name = 
REMARK  4 active torsions:
REMARK  status: ('A' for Active; 'I' for Inactive)
REMARK    1  A    between atoms: C_6  and  C_7
REMARK    2  A    between atoms: C_7  and  N_8
REMARK    3  A    between atoms: N_8  and  C_9
REMARK    4  A    between atoms: C_9  and  C_10
REMARK                            x       y       z     vdW  Elec       q    Type
REMARK                         _______ _______ _______ _____ _____    ______ ____
ROOT
ATOM      1  C   UNL     1       3.883   5.244  17.467  0.00  0.00    +0.000 C 
ENDROOT
BRANCH   1   7
ATOM      2  F   UNL     1       7.999   7.825  16.917  0.00  0.00    +0.000 F 
ATOM      3  C   UNL     1       7.294   6.933  17.627  0.00  0.00    +0.000 A 
ATOM      4  C   UNL     1       7.848   6.397  18.784  0.00  0.00    +0.000 A 
ATOM      5  C   UNL     1       7.123   5.458  19.517  0.00  0.00    +0.000 A 
ATOM      6  C   UNL     1       5.849   5.071  19.091  0.00  0.00    +0.000 A 
ATOM      7  C   UNL     1       5.265   5.636  17.942  0.00  0.00    +0.000 A 
ATOM      8  C   UNL     1       6.022   6.553  17.206  0.00  0.00    +0.000 A 
ATOM      9  F   UNL     1       5.515   7.085  16.083  0.00  0.00    +0.000 F 
ENDBRANCH   1   7
BRANCH   1  10
ATOM     10  N   UNL     1       3.853   3.870  16.966  0.00  0.00    +0.000 NA
ATOM     11  H   UNL     1       4.633   3.352  17.373  0.00  0.00    +0.000 HD
BRANCH  10  12
ATOM     12  C   UNL     1       2.615   3.176  17.311  0.00  0.00    +0.000 C 
BRANCH  12  13
ATOM     13  C   UNL     1       2.391   3.212  18.808  0.00  0.00    +0.000 A 
ATOM     14  C   UNL     1       3.248   2.517  19.675  0.00  0.00    +0.000 A 
ATOM     15  C   UNL     1       3.021   2.517  21.053  0.00  0.00    +0.000 A 
ATOM     16  C   UNL     1       1.935   3.211  21.583  0.00  0.00    +0.000 A 
ATOM     17  C   UNL     1       1.084   3.920  20.737  0.00  0.00    +0.000 A 
ATOM     18  C   UNL     1       1.313   3.925  19.358  0.00  0.00    +0.000 A 
ENDBRANCH  12  13
ENDBRANCH  10  12
ENDBRANCH   1  10
TORSDOF 4
ENDMDL
MODEL 4
REMARK VINA RESULT:      -6.9      1.480      1.933
REMARK  Name = 
REMARK  4 active torsions:
REMARK  status: ('A' for Active; 'I' for Inactive)
REMARK    1  A    between atoms: C_6  and  C_7
REMARK    2  A    between atoms: C_7  and  N_8
REMARK    3  A    between atoms: N_8  and  C_9
REMARK    4  A    between atoms: C_9  and  C_10
REMARK                            x       y       z     vdW  Elec       q    Type
REMARK                         _______ _______ _______ _____ _____    ______ ____
ROOT
ATOM      1  C   UNL     1       3.811   4.237  16.821  0.00  0.00    +0.000 C 
ENDROOT
BRANCH   1   7
ATOM      2  F   UNL     1       1.104   5.202  20.776  0.00  0.00    +0.000 F 
ATOM      3  C   UNL     1       1.469   4.332  19.824  0.00  0.00    +0.000 A 
ATOM      4  C   UNL     1       0.896   3.066  19.807  0.00  0.00    +0.000 A 
ATOM      5  C   UNL     1       1.284   2.152  18.827  0.00  0.00    +0.000 A 
ATOM      6  C   UNL     1       2.234   2.519  17.867  0.00  0.00    +0.000 A 
ATOM      7  C   UNL     1       2.792   3.811  17.855  0.00  0.00    +0.000 A 
ATOM      8  C   UNL     1       2.410   4.699  18.865  0.00  0.00    +0.000 A 
ATOM      9  F   UNL     1       2.948   5.928  18.909  0.00  0.00    +0.000 F 
ENDBRANCH   1   7
BRANCH   1  10
ATOM     10  N   UNL     1       5.026   3.425  16.894  0.00  0.00    +0.000 NA
ATOM     11  H   UNL     1       4.835   2.506  16.494  0.00  0.00    +0.000 HD
BRANCH  10  12
ATOM     12  C   UNL     1       6.140   4.019  16.160  0.00  0.00    +0.000 C 
BRANCH  12  13
ATOM     13  C   UNL     1       6.828   5.071  17.005  0.00  0.00    +0.000 A 
ATOM     14  C   UNL     1       7.402   4.732  18.239  0.00  0.00    +0.000 A 
ATOM     15  C   UNL     1       8.003   5.707  19.038  0.00  0.00    +0.000 A 
ATOM     16  C   UNL     1       8.037   7.034  18.614  0.00  0.00    +0.000 A 
ATOM     17  C   UNL     1       7.487   7.384  17.383  0.00  0.00    +0.000 A 
ATOM     18  C   UNL     1       6.890   6.408  16.581  0.00  0.00    +0.000 A 
ENDBRANCH  12  13
ENDBRANCH  10  12
ENDBRANCH   1  10
TORSDOF 4
ENDMDL
MODEL 5
REMARK VINA RESULT:      -6.9      1.133      1.276
REMARK  Name = 
REMARK  4 active torsions:
REMARK  status: ('A' for Active; 'I' for Inactive)
REMARK    1  A    between atoms: C_6  and  C_7
REMARK    2  A    between atoms: C_7  and  N_8
REMARK    3  A    between atoms: N_8  and  C_9
REMARK    4  A    between atoms: C_9  and  C_10
REMARK                            x       y       z     vdW  Elec       q    Type
REMARK                         _______ _______ _______ _____ _____    ______ ____
ROOT
ATOM      1  C   UNL     1       4.189   4.075  16.308  0.00  0.00    +0.000 C 
ENDROOT
BRANCH   1   7
ATOM      2  F   UNL     1       0.763   3.220  19.690  0.00  0.00    +0.000 F 
ATOM      3  C   UNL     1       1.747   4.007  19.231  0.00  0.00    +0.000 A 
ATOM      4  C   UNL     1       2.079   5.158  19.936  0.00  0.00    +0.000 A 
ATOM      5  C   UNL     1       3.092   5.987  19.454  0.00  0.00    +0.000 A 
ATOM      6  C   UNL     1       3.768   5.651  18.277  0.00  0.00    +0.000 A 
ATOM      7  C   UNL     1       3.464   4.468  17.577  0.00  0.00    +0.000 A 
ATOM      8  C   UNL     1       2.424   3.669  18.063  0.00  0.00    +0.000 A 
ATOM      9  F   UNL     1       2.079   2.553  17.402  0.00  0.00    +0.000 F 
ENDBRANCH   1   7
BRANCH   1  10
ATOM     10  N   UNL     1       5.463   3.416  16.596  0.00  0.00    +0.000 NA
ATOM     11  H   UNL     1       5.437   2.467  16.221  0.00  0.00    +0.000 HD
BRANCH  10  12
ATOM     12  C   UNL     1       6.599   4.112  15.999  0.00  0.00    +0.000 C 
BRANCH  12  13
ATOM     13  C   UNL     1       7.129   5.168  16.947  0.00  0.00    +0.000 A 
ATOM     14  C   UNL     1       7.596   4.813  18.221  0.00  0.00    +0.000 A 
ATOM     15  C   UNL     1       8.050   5.789  19.111  0.00  0.00    +0.000 A 
ATOM     16  C   UNL     1       8.042   7.132  18.739  0.00  0.00    +0.000 A 
ATOM     17  C   UNL     1       7.597   7.499  17.471  0.00  0.00    +0.000 A 
ATOM     18  C   UNL     1       7.148   6.523  16.578  0.00  0.00    +0.000 A 
ENDBRANCH  12  13
ENDBRANCH  10  12
ENDBRANCH   1  10
TORSDOF 4
ENDMDL
MODEL 6
REMARK VINA RESULT:      -6.8      2.797      6.048
REMARK  Name = 
REMARK  4 active torsions:
REMARK  status: ('A' for Active; 'I' for Inactive)
REMARK    1  A    between atoms: C_6  and  C_7
REMARK    2  A    between atoms: C_7  and  N_8
REMARK    3  A    between atoms: N_8  and  C_9
REMARK    4  A    between atoms: C_9  and  C_10
REMARK                            x       y       z     vdW  Elec       q    Type
REMARK                         _______ _______ _______ _____ _____    ______ ____
ROOT
ATOM      1  C   UNL     1       4.375   7.230  17.482  0.00  0.00    +0.000 C 
ENDROOT
BRANCH   1   7
ATOM      2  F   UNL     1       8.185   4.178  17.751  0.00  0.00    +0.000 F 
ATOM      3  C   UNL     1       7.213   4.733  17.013  0.00  0.00    +0.000 A 
ATOM      4  C   UNL     1       7.088   4.373  15.676  0.00  0.00    +0.000 A 
ATOM      5  C   UNL     1       6.087   4.959  14.901  0.00  0.00    +0.000 A 
ATOM      6  C   UNL     1       5.216   5.892  15.474  0.00  0.00    +0.000 A 
ATOM      7  C   UNL     1       5.312   6.234  16.836  0.00  0.00    +0.000 A 
ATOM      8  C   UNL     1       6.342   5.656  17.585  0.00  0.00    +0.000 A 
ATOM      9  F   UNL     1       6.490   5.987  18.877  0.00  0.00    +0.000 F 
ENDBRANCH   1   7
BRANCH   1  10
ATOM     10  N   UNL     1       3.551   6.605  18.517  0.00  0.00    +0.000 NA
ATOM     11  H   UNL     1       3.063   7.334  19.037  0.00  0.00    +0.000 HD
BRANCH  10  12
ATOM     12  C   UNL     1       2.554   5.694  17.962  0.00  0.00    +0.000 C 
BRANCH  12  13
ATOM     13  C   UNL     1       2.116   4.690  19.008  0.00  0.00    +0.000 A 
ATOM     14  C   UNL     1       1.293   3.609  18.659  0.00  0.00    +0.000 A 
ATOM     15  C   UNL     1       0.857   2.703  19.629  0.00  0.00    +0.000 A 
ATOM     16  C   UNL     1       1.238   2.866  20.959  0.00  0.00    +0.000 A 
ATOM     17  C   UNL     1       2.070   3.925  21.319  0.00  0.00    +0.000 A 
ATOM     18  C   UNL     1       2.510   4.829  20.348  0.00  0.00    +0.000 A 
ENDBRANCH  12  13
ENDBRANCH  10  12
ENDBRANCH   1  10
TORSDOF 4
ENDMDL
MODEL 7
REMARK VINA RESULT:      -6.8      2.867      5.998
REMARK  Name = 
REMARK  4 active torsions:
REMARK  status: ('A' for Active; 'I' for Inactive)
REMARK    1  A    between atoms: C_6  and  C_7
REMARK    2  A    between atoms: C_7  and  N_8
REMARK    3  A    between atoms: N_8  and  C_9
REMARK    4  A    between atoms: C_9  and  C_10
REMARK                            x       y       z     vdW  Elec       q    Type
REMARK                         _______ _______ _______ _____ _____    ______ ____
ROOT
ATOM      1  C   UNL     1       5.140   4.176  16.340  0.00  0.00    +0.000 C 
ENDROOT
BRANCH   1   7
ATOM      2  F   UNL     1       7.102   8.569  17.210  0.00  0.00    +0.000 F 
ATOM      3  C   UNL     1       7.056   7.260  17.495  0.00  0.00    +0.000 A 
ATOM      4  C   UNL     1       7.889   6.751  18.484  0.00  0.00    +0.000 A 
ATOM      5  C   UNL     1       7.854   5.387  18.773  0.00  0.00    +0.000 A 
ATOM      6  C   UNL     1       6.979   4.548  18.076  0.00  0.00    +0.000 A 
ATOM      7  C   UNL     1       6.105   5.060  17.099  0.00  0.00    +0.000 A 
ATOM      8  C   UNL     1       6.180   6.426  16.805  0.00  0.00    +0.000 A 
ATOM      9  F   UNL     1       5.390   6.945  15.852  0.00  0.00    +0.000 F 
ENDBRANCH   1   7
BRANCH   1  10
ATOM     10  N   UNL     1       4.471   3.222  17.224  0.00  0.00    +0.000 NA
ATOM     11  H   UNL     1       4.881   3.292  18.157  0.00  0.00    +0.000 HD
BRANCH  10  12
ATOM     12  C   UNL     1       3.037   3.474  17.336  0.00  0.00    +0.000 C 
BRANCH  12  13
ATOM     13  C   UNL     1       2.584   3.316  18.772  0.00  0.00    +0.000 A 
ATOM     14  C   UNL     1       1.294   3.707  19.161  0.00  0.00    +0.000 A 
ATOM     15  C   UNL     1       0.887   3.597  20.493  0.00  0.00    +0.000 A 
ATOM     16  C   UNL     1       1.764   3.094  21.452  0.00  0.00    +0.000 A 
ATOM     17  C   UNL     1       3.042   2.685  21.079  0.00  0.00    +0.000 A 
ATOM     18  C   UNL     1       3.449   2.790  19.746  0.00  0.00    +0.000 A 
ENDBRANCH  12  13
ENDBRANCH  10  12
ENDBRANCH   1  10
TORSDOF 4
ENDMDL
MODEL 8
REMARK VINA RESULT:      -6.8      1.858      2.781
REMARK  Name = 
REMARK  4 active torsions:
REMARK  status: ('A' for Active; 'I' for Inactive)
REMARK    1  A    between atoms: C_6  and  C_7
REMARK    2  A    between atoms: C_7  and  N_8
REMARK    3  A    between atoms: N_8  and  C_9
REMARK    4  A    between atoms: C_9  and  C_10
REMARK                            x       y       z     vdW  Elec       q    Type
REMARK                         _______ _______ _______ _____ _____    ______ ____
ROOT
ATOM      1  C   UNL     1       3.416   5.909  19.189  0.00  0.00    +0.000 C 
ENDROOT
BRANCH   1   7
ATOM      2  F   UNL     1       0.237   2.251  18.546  0.00  0.00    +0.000 F 
ATOM      3  C   UNL     1       1.012   2.960  19.379  0.00  0.00    +0.000 A 
ATOM      4  C   UNL     1       1.048   2.620  20.726  0.00  0.00    +0.000 A 
ATOM      5  C   UNL     1       1.842   3.365  21.598  0.00  0.00    +0.000 A 
ATOM      6  C   UNL     1       2.599   4.436  21.112  0.00  0.00    +0.000 A 
ATOM      7  C   UNL     1       2.597   4.764  19.743  0.00  0.00    +0.000 A 
ATOM      8  C   UNL     1       1.770   4.022  18.893  0.00  0.00    +0.000 A 
ATOM      9  F   UNL     1       1.712   4.329  17.588  0.00  0.00    +0.000 F 
ENDBRANCH   1   7
BRANCH   1  10
ATOM     10  N   UNL     1       4.851   5.635  19.268  0.00  0.00    +0.000 NA
ATOM     11  H   UNL     1       5.145   5.688  20.243  0.00  0.00    +0.000 HD
BRANCH  10  12
ATOM     12  C   UNL     1       5.194   4.309  18.760  0.00  0.00    +0.000 C 
BRANCH  12  13
ATOM     13  C   UNL     1       5.689   4.404  17.332  0.00  0.00    +0.000 A 
ATOM     14  C   UNL     1       7.018   4.764  17.059  0.00  0.00    +0.000 A 
ATOM     15  C   UNL     1       7.467   4.889  15.742  0.00  0.00    +0.000 A 
ATOM     16  C   UNL     1       6.594   4.656  14.681  0.00  0.00    +0.000 A 
ATOM     17  C   UNL     1       5.276   4.282  14.935  0.00  0.00    +0.000 A 
ATOM     18  C   UNL     1       4.827   4.152  16.252  0.00  0.00    +0.000 A 
ENDBRANCH  12  13
ENDBRANCH  10  12
ENDBRANCH   1  10
TORSDOF 4
ENDMDL
MODEL 9
REMARK VINA RESULT:      -6.8      1.280      1.983
REMARK  Name = 
REMARK  4 active torsions:
REMARK  status: ('A' for Active; 'I' for Inactive)
REMARK    1  A    between atoms: C_6  and  C_7
REMARK    2  A    between atoms: C_7  and  N_8
REMARK    3  A    between atoms: N_8  and  C_9
REMARK    4  A    between atoms: C_9  and  C_10
REMARK                            x       y       z     vdW  Elec       q    Type
REMARK                         _______ _______ _______ _____ _____    ______ ____
ROOT
ATOM      1  C   UNL     1       3.756   3.479  16.845  0.00  0.00    +0.000 C 
ENDROOT
BRANCH   1   7
ATOM      2  F   UNL     1       0.361   4.263  20.275  0.00  0.00    +0.000 F 
ATOM      3  C   UNL     1       1.563   3.768  19.946  0.00  0.00    +0.000 A 
ATOM      4  C   UNL     1       2.330   3.146  20.925  0.00  0.00    +0.000 A 
ATOM      5  C   UNL     1       3.587   2.643  20.590  0.00  0.00    +0.000 A 
ATOM      6  C   UNL     1       4.059   2.758  19.279  0.00  0.00    +0.000 A 
ATOM      7  C   UNL     1       3.274   3.353  18.274  0.00  0.00    +0.000 A 
ATOM      8  C   UNL     1       2.029   3.877  18.640  0.00  0.00    +0.000 A 
ATOM      9  F   UNL     1       1.268   4.486  17.717  0.00  0.00    +0.000 F 
ENDBRANCH   1   7
BRANCH   1  10
ATOM     10  N   UNL     1       5.207   3.316  16.749  0.00  0.00    +0.000 NA
ATOM     11  H   UNL     1       5.410   2.442  16.263  0.00  0.00    +0.000 HD
BRANCH  10  12
ATOM     12  C   UNL     1       5.843   4.405  16.012  0.00  0.00    +0.000 C 
BRANCH  12  13
ATOM     13  C   UNL     1       6.603   5.310  16.960  0.00  0.00    +0.000 A 
ATOM     14  C   UNL     1       6.810   6.661  16.645  0.00  0.00    +0.000 A 
ATOM     15  C   UNL     1       7.544   7.488  17.500  0.00  0.00    +0.000 A 
ATOM     16  C   UNL     1       8.078   6.974  18.679  0.00  0.00    +0.000 A 
ATOM     17  C   UNL     1       7.867   5.639  19.015  0.00  0.00    +0.000 A 
ATOM     18  C   UNL     1       7.129   4.812  18.163  0.00  0.00    +0.000 A 
ENDBRANCH  12  13
ENDBRANCH  10  12
ENDBRANCH   1  10
TORSDOF 4
ENDMDL
