MODEL 1
REMARK VINA RESULT:      -8.0      0.000      0.000
REMARK  Name = 
REMARK  6 active torsions:
REMARK  status: ('A' for Active; 'I' for Inactive)
REMARK    1  A    between atoms: C_1  and  O_2
REMARK    2  A    between atoms: O_2  and  C_3
REMARK    3  A    between atoms: C_9  and  C_10
REMARK    4  A    between atoms: C_13  and  C_14
REMARK    5  A    between atoms: C_19  and  N_20
REMARK    6  A    between atoms: C_21  and  C_23
REMARK                            x       y       z     vdW  Elec       q    Type
REMARK                         _______ _______ _______ _____ _____    ______ ____
ROOT
ATOM      1  C   UNL     1       0.732   8.930  20.980  0.00  0.00    +0.000 A 
ATOM      2  C   UNL     1       1.127   8.993  22.342  0.00  0.00    +0.000 A 
ATOM      3  C   UNL     1       0.490   9.815  23.267  0.00  0.00    +0.000 A 
ATOM      4  C   UNL     1      -0.592  10.571  22.862  0.00  0.00    +0.000 A 
ATOM      5  C   UNL     1      -1.025  10.504  21.537  0.00  0.00    +0.000 A 
ATOM      6  C   UNL     1      -0.375   9.710  20.569  0.00  0.00    +0.000 A 
ENDROOT
BRANCH   1  10
ATOM      7  C   UNL     1       2.772   6.380  19.303  0.00  0.00    +0.000 A 
ATOM      8  C   UNL     1       2.921   7.271  18.257  0.00  0.00    +0.000 A 
ATOM      9  S   UNL     1       1.952   8.647  18.501  0.00  0.00    +0.000 S 
ATOM     10  C   UNL     1       1.511   8.061  20.073  0.00  0.00    +0.000 A 
ATOM     11  N   UNL     1       1.953   6.846  20.338  0.00  0.00    +0.000 NA
BRANCH   7  18
ATOM     12  C   UNL     1       6.023   6.094  17.081  0.00  0.00    +0.000 C 
ATOM     13  O   UNL     1       6.200   6.177  15.871  0.00  0.00    +0.000 OA
ATOM     14  N   UNL     1       5.202   5.151  17.673  0.00  0.00    +0.000 N 
ATOM     15  C   UNL     1       4.547   4.152  16.840  0.00  0.00    +0.000 C 
ATOM     16  C   UNL     1       3.044   4.136  17.093  0.00  0.00    +0.000 C 
ATOM     17  C   UNL     1       2.746   3.948  18.582  0.00  0.00    +0.000 C 
ATOM     18  C   UNL     1       3.439   5.025  19.441  0.00  0.00    +0.000 C 
ATOM     19  C   UNL     1       4.954   5.039  19.114  0.00  0.00    +0.000 C 
BRANCH  12  21
ATOM     20  C   UNL     1       7.653   7.757  17.450  0.00  0.00    +0.000 C 
ATOM     21  O   UNL     1       6.616   6.925  17.982  0.00  0.00    +0.000 OA
ENDBRANCH  12  21
ENDBRANCH   7  18
ENDBRANCH   1  10
BRANCH   6  22
ATOM     22  N   UNL     1      -0.860   9.688  19.228  0.00  0.00    +0.000 N 
ATOM     23  C   UNL     1      -1.090  10.810  18.440  0.00  0.00    +0.000 C 
ATOM     24  O   UNL     1      -0.720  11.949  18.722  0.00  0.00    +0.000 OA
ATOM     25  H   UNL     1      -1.031   8.778  18.798  0.00  0.00    +0.000 HD
BRANCH  23  26
ATOM     26  C   UNL     1      -1.810  10.596  17.199  0.00  0.00    +0.000 A 
ATOM     27  N   UNL     1      -2.104   9.443  16.623  0.00  0.00    +0.000 NA
ATOM     28  C   UNL     1      -2.863   9.777  15.522  0.00  0.00    +0.000 A 
ATOM     29  C   UNL     1      -3.029  11.138  15.423  0.00  0.00    +0.000 A 
ATOM     30  N   UNL     1      -2.331  11.647  16.478  0.00  0.00    +0.000 N 
ATOM     31  H   UNL     1      -2.227  12.619  16.743  0.00  0.00    +0.000 HD
ENDBRANCH  23  26
ENDBRANCH   6  22
TORSDOF 5
ENDMDL
MODEL 2
REMARK VINA RESULT:      -7.8      1.048      1.149
REMARK  Name = 
REMARK  6 active torsions:
REMARK  status: ('A' for Active; 'I' for Inactive)
REMARK    1  A    between atoms: C_1  and  O_2
REMARK    2  A    between atoms: O_2  and  C_3
REMARK    3  A    between atoms: C_9  and  C_10
REMARK    4  A    between atoms: C_13  and  C_14
REMARK    5  A    between atoms: C_19  and  N_20
REMARK    6  A    between atoms: C_21  and  C_23
REMARK                            x       y       z     vdW  Elec       q    Type
REMARK                         _______ _______ _______ _____ _____    ______ ____
ROOT
ATOM      1  C   UNL     1       0.156   9.995  20.566  0.00  0.00    +0.000 A 
ATOM      2  C   UNL     1       0.518  10.326  21.899  0.00  0.00    +0.000 A 
ATOM      3  C   UNL     1      -0.180  11.269  22.648  0.00  0.00    +0.000 A 
ATOM      4  C   UNL     1      -1.288  11.881  22.098  0.00  0.00    +0.000 A 
ATOM      5  C   UNL     1      -1.687  11.550  20.802  0.00  0.00    +0.000 A 
ATOM      6  C   UNL     1      -0.978  10.627  20.004  0.00  0.00    +0.000 A 
ENDROOT
BRANCH   1  10
ATOM      7  C   UNL     1       2.273   7.234  19.393  0.00  0.00    +0.000 A 
ATOM      8  C   UNL     1       2.566   8.006  18.285  0.00  0.00    +0.000 A 
ATOM      9  S   UNL     1       1.626   9.423  18.280  0.00  0.00    +0.000 S 
ATOM     10  C   UNL     1       0.997   9.017  19.844  0.00  0.00    +0.000 A 
ATOM     11  N   UNL     1       1.364   7.826  20.278  0.00  0.00    +0.000 NA
BRANCH   7  18
ATOM     12  C   UNL     1       5.082   6.155  16.838  0.00  0.00    +0.000 C 
ATOM     13  O   UNL     1       5.059   5.951  15.630  0.00  0.00    +0.000 OA
ATOM     14  N   UNL     1       4.318   5.449  17.749  0.00  0.00    +0.000 N 
ATOM     15  C   UNL     1       3.475   4.358  17.280  0.00  0.00    +0.000 C 
ATOM     16  C   UNL     1       2.037   4.543  17.751  0.00  0.00    +0.000 C 
ATOM     17  C   UNL     1       1.982   4.717  19.270  0.00  0.00    +0.000 C 
ATOM     18  C   UNL     1       2.873   5.884  19.741  0.00  0.00    +0.000 C 
ATOM     19  C   UNL     1       4.309   5.681  19.197  0.00  0.00    +0.000 C 
BRANCH  12  21
ATOM     20  C   UNL     1       7.275   6.862  17.338  0.00  0.00    +0.000 C 
ATOM     21  O   UNL     1       5.866   7.103  17.421  0.00  0.00    +0.000 OA
ENDBRANCH  12  21
ENDBRANCH   7  18
ENDBRANCH   1  10
BRANCH   6  22
ATOM     22  N   UNL     1      -1.431  10.336  18.683  0.00  0.00    +0.000 N 
ATOM     23  C   UNL     1      -1.671  11.280  17.692  0.00  0.00    +0.000 C 
ATOM     24  O   UNL     1      -1.338  12.462  17.757  0.00  0.00    +0.000 OA
ATOM     25  H   UNL     1      -1.568   9.356  18.433  0.00  0.00    +0.000 HD
BRANCH  23  26
ATOM     26  C   UNL     1      -2.357  10.812  16.502  0.00  0.00    +0.000 A 
ATOM     27  N   UNL     1      -2.167   9.676  15.853  0.00  0.00    +0.000 NA
ATOM     28  C   UNL     1      -3.116   9.672  14.854  0.00  0.00    +0.000 A 
ATOM     29  C   UNL     1      -3.885  10.811  14.890  0.00  0.00    +0.000 A 
ATOM     30  N   UNL     1      -3.373  11.539  15.923  0.00  0.00    +0.000 N 
ATOM     31  H   UNL     1      -3.686  12.440  16.263  0.00  0.00    +0.000 HD
ENDBRANCH  23  26
ENDBRANCH   6  22
TORSDOF 5
ENDMDL
MODEL 3
REMARK VINA RESULT:      -7.7      6.162      9.968
REMARK  Name = 
REMARK  6 active torsions:
REMARK  status: ('A' for Active; 'I' for Inactive)
REMARK    1  A    between atoms: C_1  and  O_2
REMARK    2  A    between atoms: O_2  and  C_3
REMARK    3  A    between atoms: C_9  and  C_10
REMARK    4  A    between atoms: C_13  and  C_14
REMARK    5  A    between atoms: C_19  and  N_20
REMARK    6  A    between atoms: C_21  and  C_23
REMARK                            x       y       z     vdW  Elec       q    Type
REMARK                         _______ _______ _______ _____ _____    ______ ____
ROOT
ATOM      1  C   UNL     1      -1.661  11.748  19.800  0.00  0.00    +0.000 A 
ATOM      2  C   UNL     1      -0.487  10.951  19.741  0.00  0.00    +0.000 A 
ATOM      3  C   UNL     1      -0.253  10.042  18.713  0.00  0.00    +0.000 A 
ATOM      4  C   UNL     1      -1.173   9.933  17.689  0.00  0.00    +0.000 A 
ATOM      5  C   UNL     1      -2.320  10.728  17.703  0.00  0.00    +0.000 A 
ATOM      6  C   UNL     1      -2.602  11.630  18.750  0.00  0.00    +0.000 A 
ENDROOT
BRANCH   1  10
ATOM      7  C   UNL     1      -2.601  13.530  22.869  0.00  0.00    +0.000 A 
ATOM      8  C   UNL     1      -1.885  14.612  22.391  0.00  0.00    +0.000 A 
ATOM      9  S   UNL     1      -1.057  14.196  20.965  0.00  0.00    +0.000 S 
ATOM     10  C   UNL     1      -1.831  12.644  20.963  0.00  0.00    +0.000 A 
ATOM     11  N   UNL     1      -2.557  12.404  22.039  0.00  0.00    +0.000 NA
BRANCH   7  18
ATOM     12  C   UNL     1      -6.464  13.344  22.076  0.00  0.00    +0.000 C 
ATOM     13  O   UNL     1      -7.216  14.102  21.475  0.00  0.00    +0.000 OA
ATOM     14  N   UNL     1      -5.752  13.706  23.205  0.00  0.00    +0.000 N 
ATOM     15  C   UNL     1      -5.933  15.038  23.766  0.00  0.00    +0.000 C 
ATOM     16  C   UNL     1      -4.592  15.743  23.932  0.00  0.00    +0.000 C 
ATOM     17  C   UNL     1      -3.626  14.886  24.752  0.00  0.00    +0.000 C 
ATOM     18  C   UNL     1      -3.441  13.486  24.132  0.00  0.00    +0.000 C 
ATOM     19  C   UNL     1      -4.830  12.829  23.934  0.00  0.00    +0.000 C 
BRANCH  12  21
ATOM     20  C   UNL     1      -7.396  11.359  21.209  0.00  0.00    +0.000 C 
ATOM     21  O   UNL     1      -6.244  12.054  21.698  0.00  0.00    +0.000 OA
ENDBRANCH  12  21
ENDBRANCH   7  18
ENDBRANCH   1  10
BRANCH   6  22
ATOM     22  N   UNL     1      -3.795  12.411  18.712  0.00  0.00    +0.000 N 
ATOM     23  C   UNL     1      -5.061  11.926  18.402  0.00  0.00    +0.000 C 
ATOM     24  O   UNL     1      -5.350  10.734  18.315  0.00  0.00    +0.000 OA
ATOM     25  H   UNL     1      -3.725  13.400  18.954  0.00  0.00    +0.000 HD
BRANCH  23  26
ATOM     26  C   UNL     1      -6.098  12.915  18.177  0.00  0.00    +0.000 A 
ATOM     27  N   UNL     1      -7.282  12.732  17.617  0.00  0.00    +0.000 NA
ATOM     28  C   UNL     1      -7.916  13.951  17.717  0.00  0.00    +0.000 A 
ATOM     29  C   UNL     1      -7.117  14.882  18.337  0.00  0.00    +0.000 A 
ATOM     30  N   UNL     1      -5.954  14.219  18.597  0.00  0.00    +0.000 N 
ATOM     31  H   UNL     1      -5.125  14.575  19.056  0.00  0.00    +0.000 HD
ENDBRANCH  23  26
ENDBRANCH   6  22
TORSDOF 5
ENDMDL
MODEL 4
REMARK VINA RESULT:      -7.7      2.225      8.062
REMARK  Name = 
REMARK  6 active torsions:
REMARK  status: ('A' for Active; 'I' for Inactive)
REMARK    1  A    between atoms: C_1  and  O_2
REMARK    2  A    between atoms: O_2  and  C_3
REMARK    3  A    between atoms: C_9  and  C_10
REMARK    4  A    between atoms: C_13  and  C_14
REMARK    5  A    between atoms: C_19  and  N_20
REMARK    6  A    between atoms: C_21  and  C_23
REMARK                            x       y       z     vdW  Elec       q    Type
REMARK                         _______ _______ _______ _____ _____    ______ ____
ROOT
ATOM      1  C   UNL     1       2.342   4.513  18.701  0.00  0.00    +0.000 A 
ATOM      2  C   UNL     1       1.377   3.503  18.951  0.00  0.00    +0.000 A 
ATOM      3  C   UNL     1       1.512   2.205  18.466  0.00  0.00    +0.000 A 
ATOM      4  C   UNL     1       2.642   1.869  17.748  0.00  0.00    +0.000 A 
ATOM      5  C   UNL     1       3.625   2.833  17.515  0.00  0.00    +0.000 A 
ATOM      6  C   UNL     1       3.497   4.165  17.961  0.00  0.00    +0.000 A 
ENDROOT
BRANCH   1  10
ATOM      7  C   UNL     1       1.959   8.100  19.383  0.00  0.00    +0.000 A 
ATOM      8  C   UNL     1       1.754   7.767  20.709  0.00  0.00    +0.000 A 
ATOM      9  S   UNL     1       1.665   6.078  20.893  0.00  0.00    +0.000 S 
ATOM     10  C   UNL     1       2.074   5.871  19.220  0.00  0.00    +0.000 A 
ATOM     11  N   UNL     1       2.136   6.998  18.538  0.00  0.00    +0.000 NA
BRANCH   7  18
ATOM     12  C   UNL     1      -0.328  10.673  21.315  0.00  0.00    +0.000 C 
ATOM     13  O   UNL     1      -1.540  10.721  21.494  0.00  0.00    +0.000 OA
ATOM     14  N   UNL     1       0.264  10.694  20.066  0.00  0.00    +0.000 N 
ATOM     15  C   UNL     1      -0.573  10.842  18.883  0.00  0.00    +0.000 C 
ATOM     16  C   UNL     1      -0.292   9.730  17.878  0.00  0.00    +0.000 C 
ATOM     17  C   UNL     1       1.199   9.668  17.540  0.00  0.00    +0.000 C 
ATOM     18  C   UNL     1       2.062   9.499  18.807  0.00  0.00    +0.000 C 
ATOM     19  C   UNL     1       1.707  10.618  19.818  0.00  0.00    +0.000 C 
BRANCH  12  21
ATOM     20  C   UNL     1       0.290   9.596  23.320  0.00  0.00    +0.000 C 
ATOM     21  O   UNL     1       0.575  10.592  22.331  0.00  0.00    +0.000 OA
ENDBRANCH  12  21
ENDBRANCH   7  18
ENDBRANCH   1  10
BRANCH   6  22
ATOM     22  N   UNL     1       4.533   5.107  17.686  0.00  0.00    +0.000 N 
ATOM     23  C   UNL     1       5.811   5.075  18.229  0.00  0.00    +0.000 C 
ATOM     24  O   UNL     1       6.279   4.126  18.858  0.00  0.00    +0.000 OA
ATOM     25  H   UNL     1       4.332   5.853  17.018  0.00  0.00    +0.000 HD
BRANCH  23  26
ATOM     26  C   UNL     1       6.637   6.249  18.020  0.00  0.00    +0.000 A 
ATOM     27  N   UNL     1       6.425   7.246  17.177  0.00  0.00    +0.000 NA
ATOM     28  C   UNL     1       7.443   8.142  17.422  0.00  0.00    +0.000 A 
ATOM     29  C   UNL     1       8.281   7.689  18.413  0.00  0.00    +0.000 A 
ATOM     30  N   UNL     1       7.774   6.473  18.764  0.00  0.00    +0.000 N 
ATOM     31  H   UNL     1       8.118   5.837  19.472  0.00  0.00    +0.000 HD
ENDBRANCH  23  26
ENDBRANCH   6  22
TORSDOF 5
ENDMDL
MODEL 5
REMARK VINA RESULT:      -7.5      4.464      7.740
REMARK  Name = 
REMARK  6 active torsions:
REMARK  status: ('A' for Active; 'I' for Inactive)
REMARK    1  A    between atoms: C_1  and  O_2
REMARK    2  A    between atoms: O_2  and  C_3
REMARK    3  A    between atoms: C_9  and  C_10
REMARK    4  A    between atoms: C_13  and  C_14
REMARK    5  A    between atoms: C_19  and  N_20
REMARK    6  A    between atoms: C_21  and  C_23
REMARK                            x       y       z     vdW  Elec       q    Type
REMARK                         _______ _______ _______ _____ _____    ______ ____
ROOT
ATOM      1  C   UNL     1      -4.871  12.335  18.995  0.00  0.00    +0.000 A 
ATOM      2  C   UNL     1      -5.575  11.803  17.883  0.00  0.00    +0.000 A 
ATOM      3  C   UNL     1      -6.925  12.062  17.661  0.00  0.00    +0.000 A 
ATOM      4  C   UNL     1      -7.601  12.898  18.527  0.00  0.00    +0.000 A 
ATOM      5  C   UNL     1      -6.925  13.464  19.610  0.00  0.00    +0.000 A 
ATOM      6  C   UNL     1      -5.568  13.188  19.882  0.00  0.00    +0.000 A 
ENDROOT
BRANCH   1  10
ATOM      7  C   UNL     1      -1.351  11.866  19.927  0.00  0.00    +0.000 A 
ATOM      8  C   UNL     1      -1.177  11.217  18.719  0.00  0.00    +0.000 A 
ATOM      9  S   UNL     1      -2.671  11.015  17.930  0.00  0.00    +0.000 S 
ATOM     10  C   UNL     1      -3.452  11.953  19.162  0.00  0.00    +0.000 A 
ATOM     11  N   UNL     1      -2.666  12.279  20.171  0.00  0.00    +0.000 NA
BRANCH   7  18
ATOM     12  C   UNL     1       1.011   8.787  20.657  0.00  0.00    +0.000 C 
ATOM     13  O   UNL     1       0.787   7.670  21.110  0.00  0.00    +0.000 OA
ATOM     14  N   UNL     1       0.753   9.959  21.345  0.00  0.00    +0.000 N 
ATOM     15  C   UNL     1       0.243   9.889  22.708  0.00  0.00    +0.000 C 
ATOM     16  C   UNL     1      -1.029  10.716  22.854  0.00  0.00    +0.000 C 
ATOM     17  C   UNL     1      -0.798  12.154  22.386  0.00  0.00    +0.000 C 
ATOM     18  C   UNL     1      -0.271  12.203  20.938  0.00  0.00    +0.000 C 
ATOM     19  C   UNL     1       0.990  11.308  20.824  0.00  0.00    +0.000 C 
BRANCH  12  21
ATOM     20  C   UNL     1       2.214   7.876  18.846  0.00  0.00    +0.000 C 
ATOM     21  O   UNL     1       1.540   9.001  19.421  0.00  0.00    +0.000 OA
ENDBRANCH  12  21
ENDBRANCH   7  18
ENDBRANCH   1  10
BRANCH   6  22
ATOM     22  N   UNL     1      -4.934  13.790  21.009  0.00  0.00    +0.000 N 
ATOM     23  C   UNL     1      -4.976  13.300  22.309  0.00  0.00    +0.000 C 
ATOM     24  O   UNL     1      -5.393  12.186  22.623  0.00  0.00    +0.000 OA
ATOM     25  H   UNL     1      -4.384  14.635  20.850  0.00  0.00    +0.000 HD
BRANCH  23  26
ATOM     26  C   UNL     1      -4.479  14.178  23.350  0.00  0.00    +0.000 A 
ATOM     27  N   UNL     1      -3.501  13.942  24.209  0.00  0.00    +0.000 NA
ATOM     28  C   UNL     1      -3.363  15.112  24.924  0.00  0.00    +0.000 A 
ATOM     29  C   UNL     1      -4.263  16.064  24.505  0.00  0.00    +0.000 A 
ATOM     30  N   UNL     1      -4.984  15.447  23.525  0.00  0.00    +0.000 N 
ATOM     31  H   UNL     1      -5.736  15.836  22.971  0.00  0.00    +0.000 HD
ENDBRANCH  23  26
ENDBRANCH   6  22
TORSDOF 5
ENDMDL
MODEL 6
REMARK VINA RESULT:      -7.5      2.392      7.722
REMARK  Name = 
REMARK  6 active torsions:
REMARK  status: ('A' for Active; 'I' for Inactive)
REMARK    1  A    between atoms: C_1  and  O_2
REMARK    2  A    between atoms: O_2  and  C_3
REMARK    3  A    between atoms: C_9  and  C_10
REMARK    4  A    between atoms: C_13  and  C_14
REMARK    5  A    between atoms: C_19  and  N_20
REMARK    6  A    between atoms: C_21  and  C_23
REMARK                            x       y       z     vdW  Elec       q    Type
REMARK                         _______ _______ _______ _____ _____    ______ ____
ROOT
ATOM      1  C   UNL     1       2.031   5.271  20.117  0.00  0.00    +0.000 A 
ATOM      2  C   UNL     1       1.010   4.374  20.528  0.00  0.00    +0.000 A 
ATOM      3  C   UNL     1       1.201   2.996  20.573  0.00  0.00    +0.000 A 
ATOM      4  C   UNL     1       2.438   2.478  20.246  0.00  0.00    +0.000 A 
ATOM      5  C   UNL     1       3.472   3.338  19.872  0.00  0.00    +0.000 A 
ATOM      6  C   UNL     1       3.296   4.735  19.780  0.00  0.00    +0.000 A 
ENDROOT
BRANCH   1  10
ATOM      7  C   UNL     1       1.402   8.793  19.291  0.00  0.00    +0.000 A 
ATOM      8  C   UNL     1       1.394   9.050  20.649  0.00  0.00    +0.000 A 
ATOM      9  S   UNL     1       1.486   7.599  21.532  0.00  0.00    +0.000 S 
ATOM     10  C   UNL     1       1.703   6.712  20.058  0.00  0.00    +0.000 A 
ATOM     11  N   UNL     1       1.576   7.442  18.966  0.00  0.00    +0.000 NA
BRANCH   7  18
ATOM     12  C   UNL     1       0.680  12.423  20.666  0.00  0.00    +0.000 C 
ATOM     13  O   UNL     1      -0.250  12.884  21.316  0.00  0.00    +0.000 OA
ATOM     14  N   UNL     1       0.531  11.842  19.419  0.00  0.00    +0.000 N 
ATOM     15  C   UNL     1      -0.785  11.818  18.796  0.00  0.00    +0.000 C 
ATOM     16  C   UNL     1      -1.162  10.401  18.380  0.00  0.00    +0.000 C 
ATOM     17  C   UNL     1      -0.078   9.791  17.489  0.00  0.00    +0.000 C 
ATOM     18  C   UNL     1       1.303   9.816  18.175  0.00  0.00    +0.000 C 
ATOM     19  C   UNL     1       1.621  11.264  18.626  0.00  0.00    +0.000 C 
BRANCH  12  21
ATOM     20  C   UNL     1       2.647  13.686  20.977  0.00  0.00    +0.000 C 
ATOM     21  O   UNL     1       1.971  12.430  21.099  0.00  0.00    +0.000 OA
ENDBRANCH  12  21
ENDBRANCH   7  18
ENDBRANCH   1  10
BRANCH   6  22
ATOM     22  N   UNL     1       4.388   5.563  19.385  0.00  0.00    +0.000 N 
ATOM     23  C   UNL     1       4.852   5.711  18.083  0.00  0.00    +0.000 C 
ATOM     24  O   UNL     1       4.262   5.308  17.081  0.00  0.00    +0.000 OA
ATOM     25  H   UNL     1       4.855   6.112  20.108  0.00  0.00    +0.000 HD
BRANCH  23  26
ATOM     26  C   UNL     1       6.117   6.400  17.918  0.00  0.00    +0.000 A 
ATOM     27  N   UNL     1       6.425   7.321  17.020  0.00  0.00    +0.000 NA
ATOM     28  C   UNL     1       7.707   7.715  17.337  0.00  0.00    +0.000 A 
ATOM     29  C   UNL     1       8.185   7.030  18.430  0.00  0.00    +0.000 A 
ATOM     30  N   UNL     1       7.175   6.178  18.770  0.00  0.00    +0.000 N 
ATOM     31  H   UNL     1       7.153   5.515  19.535  0.00  0.00    +0.000 HD
ENDBRANCH  23  26
ENDBRANCH   6  22
TORSDOF 5
ENDMDL
MODEL 7
REMARK VINA RESULT:      -7.4      5.827     10.116
REMARK  Name = 
REMARK  6 active torsions:
REMARK  status: ('A' for Active; 'I' for Inactive)
REMARK    1  A    between atoms: C_1  and  O_2
REMARK    2  A    between atoms: O_2  and  C_3
REMARK    3  A    between atoms: C_9  and  C_10
REMARK    4  A    between atoms: C_13  and  C_14
REMARK    5  A    between atoms: C_19  and  N_20
REMARK    6  A    between atoms: C_21  and  C_23
REMARK                            x       y       z     vdW  Elec       q    Type
REMARK                         _______ _______ _______ _____ _____    ______ ____
ROOT
ATOM      1  C   UNL     1      -1.240  11.808  19.462  0.00  0.00    +0.000 A 
ATOM      2  C   UNL     1      -0.811  10.461  19.599  0.00  0.00    +0.000 A 
ATOM      3  C   UNL     1       0.439  10.028  19.163  0.00  0.00    +0.000 A 
ATOM      4  C   UNL     1       1.313  10.943  18.611  0.00  0.00    +0.000 A 
ATOM      5  C   UNL     1       0.931  12.281  18.495  0.00  0.00    +0.000 A 
ATOM      6  C   UNL     1      -0.342  12.741  18.892  0.00  0.00    +0.000 A 
ENDROOT
BRANCH   1  10
ATOM      7  C   UNL     1      -4.811  12.533  19.911  0.00  0.00    +0.000 A 
ATOM      8  C   UNL     1      -4.479  13.134  21.111  0.00  0.00    +0.000 A 
ATOM      9  S   UNL     1      -2.832  12.895  21.461  0.00  0.00    +0.000 S 
ATOM     10  C   UNL     1      -2.606  12.148  19.913  0.00  0.00    +0.000 A 
ATOM     11  N   UNL     1      -3.724  11.966  19.235  0.00  0.00    +0.000 NA
BRANCH   7  18
ATOM     12  C   UNL     1      -7.683  12.048  22.576  0.00  0.00    +0.000 C 
ATOM     13  O   UNL     1      -7.916  11.151  23.378  0.00  0.00    +0.000 OA
ATOM     14  N   UNL     1      -7.628  11.857  21.207  0.00  0.00    +0.000 N 
ATOM     15  C   UNL     1      -7.917  10.539  20.658  0.00  0.00    +0.000 C 
ATOM     16  C   UNL     1      -6.787  10.072  19.748  0.00  0.00    +0.000 C 
ATOM     17  C   UNL     1      -6.500  11.111  18.662  0.00  0.00    +0.000 C 
ATOM     18  C   UNL     1      -6.185  12.493  19.268  0.00  0.00    +0.000 C 
ATOM     19  C   UNL     1      -7.333  12.904  20.224  0.00  0.00    +0.000 C 
BRANCH  12  21
ATOM     20  C   UNL     1      -7.637  13.616  24.336  0.00  0.00    +0.000 C 
ATOM     21  O   UNL     1      -7.452  13.339  22.944  0.00  0.00    +0.000 OA
ENDBRANCH  12  21
ENDBRANCH   7  18
ENDBRANCH   1  10
BRANCH   6  22
ATOM     22  N   UNL     1      -0.677  14.119  18.741  0.00  0.00    +0.000 N 
ATOM     23  C   UNL     1      -0.384  15.121  19.659  0.00  0.00    +0.000 C 
ATOM     24  O   UNL     1       0.371  14.987  20.621  0.00  0.00    +0.000 OA
ATOM     25  H   UNL     1      -1.148  14.403  17.880  0.00  0.00    +0.000 HD
BRANCH  23  26
ATOM     26  C   UNL     1      -1.018  16.407  19.441  0.00  0.00    +0.000 A 
ATOM     27  N   UNL     1      -1.622  17.172  20.335  0.00  0.00    +0.000 NA
ATOM     28  C   UNL     1      -1.976  18.313  19.648  0.00  0.00    +0.000 A 
ATOM     29  C   UNL     1      -1.590  18.243  18.330  0.00  0.00    +0.000 A 
ATOM     30  N   UNL     1      -1.009  17.015  18.206  0.00  0.00    +0.000 N 
ATOM     31  H   UNL     1      -0.594  16.605  17.379  0.00  0.00    +0.000 HD
ENDBRANCH  23  26
ENDBRANCH   6  22
TORSDOF 5
ENDMDL
MODEL 8
REMARK VINA RESULT:      -7.3      1.840      8.019
REMARK  Name = 
REMARK  6 active torsions:
REMARK  status: ('A' for Active; 'I' for Inactive)
REMARK    1  A    between atoms: C_1  and  O_2
REMARK    2  A    between atoms: O_2  and  C_3
REMARK    3  A    between atoms: C_9  and  C_10
REMARK    4  A    between atoms: C_13  and  C_14
REMARK    5  A    between atoms: C_19  and  N_20
REMARK    6  A    between atoms: C_21  and  C_23
REMARK                            x       y       z     vdW  Elec       q    Type
REMARK                         _______ _______ _______ _____ _____    ______ ____
ROOT
ATOM      1  C   UNL     1       2.053   5.523  20.085  0.00  0.00    +0.000 A 
ATOM      2  C   UNL     1       0.992   4.682  20.515  0.00  0.00    +0.000 A 
ATOM      3  C   UNL     1       1.139   3.304  20.644  0.00  0.00    +0.000 A 
ATOM      4  C   UNL     1       2.367   2.730  20.384  0.00  0.00    +0.000 A 
ATOM      5  C   UNL     1       3.438   3.537  19.993  0.00  0.00    +0.000 A 
ATOM      6  C   UNL     1       3.309   4.930  19.816  0.00  0.00    +0.000 A 
ENDROOT
BRANCH   1  10
ATOM      7  C   UNL     1       1.008   9.035  20.317  0.00  0.00    +0.000 A 
ATOM      8  C   UNL     1       1.338   9.161  18.981  0.00  0.00    +0.000 A 
ATOM      9  S   UNL     1       2.082   7.741  18.413  0.00  0.00    +0.000 S 
ATOM     10  C   UNL     1       1.773   6.967  19.934  0.00  0.00    +0.000 A 
ATOM     11  N   UNL     1       1.269   7.768  20.853  0.00  0.00    +0.000 NA
BRANCH   7  18
ATOM     12  C   UNL     1      -1.649  11.182  18.338  0.00  0.00    +0.000 C 
ATOM     13  O   UNL     1      -1.550  11.907  17.354  0.00  0.00    +0.000 OA
ATOM     14  N   UNL     1      -0.960  11.393  19.518  0.00  0.00    +0.000 N 
ATOM     15  C   UNL     1      -0.109  12.568  19.647  0.00  0.00    +0.000 C 
ATOM     16  C   UNL     1       1.299  12.174  20.080  0.00  0.00    +0.000 C 
ATOM     17  C   UNL     1       1.257  11.334  21.359  0.00  0.00    +0.000 C 
ATOM     18  C   UNL     1       0.361  10.091  21.193  0.00  0.00    +0.000 C 
ATOM     19  C   UNL     1      -1.041  10.534  20.703  0.00  0.00    +0.000 C 
BRANCH  12  21
ATOM     20  C   UNL     1      -3.164   9.805  17.168  0.00  0.00    +0.000 C 
ATOM     21  O   UNL     1      -2.451  10.083  18.378  0.00  0.00    +0.000 OA
ENDBRANCH  12  21
ENDBRANCH   7  18
ENDBRANCH   1  10
BRANCH   6  22
ATOM     22  N   UNL     1       4.438   5.701  19.407  0.00  0.00    +0.000 N 
ATOM     23  C   UNL     1       4.955   5.743  18.118  0.00  0.00    +0.000 C 
ATOM     24  O   UNL     1       4.393   5.284  17.124  0.00  0.00    +0.000 OA
ATOM     25  H   UNL     1       4.892   6.289  20.108  0.00  0.00    +0.000 HD
BRANCH  23  26
ATOM     26  C   UNL     1       6.244   6.388  17.956  0.00  0.00    +0.000 A 
ATOM     27  N   UNL     1       6.607   7.245  17.016  0.00  0.00    +0.000 NA
ATOM     28  C   UNL     1       7.888   7.623  17.353  0.00  0.00    +0.000 A 
ATOM     29  C   UNL     1       8.311   6.992  18.499  0.00  0.00    +0.000 A 
ATOM     30  N   UNL     1       7.268   6.189  18.854  0.00  0.00    +0.000 N 
ATOM     31  H   UNL     1       7.203   5.573  19.656  0.00  0.00    +0.000 HD
ENDBRANCH  23  26
ENDBRANCH   6  22
TORSDOF 5
ENDMDL
MODEL 9
REMARK VINA RESULT:      -7.3      6.184      7.739
REMARK  Name = 
REMARK  6 active torsions:
REMARK  status: ('A' for Active; 'I' for Inactive)
REMARK    1  A    between atoms: C_1  and  O_2
REMARK    2  A    between atoms: O_2  and  C_3
REMARK    3  A    between atoms: C_9  and  C_10
REMARK    4  A    between atoms: C_13  and  C_14
REMARK    5  A    between atoms: C_19  and  N_20
REMARK    6  A    between atoms: C_21  and  C_23
REMARK                            x       y       z     vdW  Elec       q    Type
REMARK                         _______ _______ _______ _____ _____    ______ ____
ROOT
ATOM      1  C   UNL     1      -4.960  13.102  21.399  0.00  0.00    +0.000 A 
ATOM      2  C   UNL     1      -5.768  13.591  22.459  0.00  0.00    +0.000 A 
ATOM      3  C   UNL     1      -7.068  14.047  22.257  0.00  0.00    +0.000 A 
ATOM      4  C   UNL     1      -7.612  13.989  20.990  0.00  0.00    +0.000 A 
ATOM      5  C   UNL     1      -6.853  13.480  19.934  0.00  0.00    +0.000 A 
ATOM      6  C   UNL     1      -5.520  13.047  20.101  0.00  0.00    +0.000 A 
ENDROOT
BRANCH   1  10
ATOM      7  C   UNL     1      -1.472  11.959  21.497  0.00  0.00    +0.000 A 
ATOM      8  C   UNL     1      -1.619  11.812  22.864  0.00  0.00    +0.000 A 
ATOM      9  S   UNL     1      -3.126  12.417  23.370  0.00  0.00    +0.000 S 
ATOM     10  C   UNL     1      -3.576  12.690  21.717  0.00  0.00    +0.000 A 
ATOM     11  N   UNL     1      -2.604  12.470  20.852  0.00  0.00    +0.000 NA
BRANCH   7  18
ATOM     12  C   UNL     1       0.741  15.091  20.559  0.00  0.00    +0.000 C 
ATOM     13  O   UNL     1       0.496  16.107  19.920  0.00  0.00    +0.000 OA
ATOM     14  N   UNL     1       0.647  13.814  20.035  0.00  0.00    +0.000 N 
ATOM     15  C   UNL     1       0.297  13.643  18.632  0.00  0.00    +0.000 C 
ATOM     16  C   UNL     1      -0.889  12.698  18.480  0.00  0.00    +0.000 C 
ATOM     17  C   UNL     1      -0.616  11.367  19.184  0.00  0.00    +0.000 C 
ATOM     18  C   UNL     1      -0.260  11.573  20.670  0.00  0.00    +0.000 C 
ATOM     19  C   UNL     1       0.914  12.579  20.779  0.00  0.00    +0.000 C 
BRANCH  12  21
ATOM     20  C   UNL     1       0.230  15.750  22.764  0.00  0.00    +0.000 C 
ATOM     21  O   UNL     1       1.135  15.104  21.863  0.00  0.00    +0.000 OA
ENDBRANCH  12  21
ENDBRANCH   7  18
ENDBRANCH   1  10
BRANCH   6  22
ATOM     22  N   UNL     1      -4.793  12.545  18.982  0.00  0.00    +0.000 N 
ATOM     23  C   UNL     1      -5.036  11.333  18.347  0.00  0.00    +0.000 C 
ATOM     24  O   UNL     1      -6.029  10.631  18.536  0.00  0.00    +0.000 OA
ATOM     25  H   UNL     1      -4.048  13.128  18.598  0.00  0.00    +0.000 HD
BRANCH  23  26
ATOM     26  C   UNL     1      -4.039  10.889  17.391  0.00  0.00    +0.000 A 
ATOM     27  N   UNL     1      -3.274   9.813  17.461  0.00  0.00    +0.000 NA
ATOM     28  C   UNL     1      -2.568   9.799  16.277  0.00  0.00    +0.000 A 
ATOM     29  C   UNL     1      -2.900  10.871  15.484  0.00  0.00    +0.000 A 
ATOM     30  N   UNL     1      -3.813  11.571  16.216  0.00  0.00    +0.000 N 
ATOM     31  H   UNL     1      -4.296  12.423  15.957  0.00  0.00    +0.000 HD
ENDBRANCH  23  26
ENDBRANCH   6  22
TORSDOF 5
ENDMDL
