MODEL 1
REMARK VINA RESULT:      -8.4      0.000      0.000
REMARK  Name = 
REMARK  4 active torsions:
REMARK  status: ('A' for Active; 'I' for Inactive)
REMARK    1  A    between atoms: C_2  and  O_3
REMARK    2  A    between atoms: C_2  and  C_4
REMARK    3  A    between atoms: C_4  and  C_5
REMARK    4  A    between atoms: C_5  and  C_6
REMARK                            x       y       z     vdW  Elec       q    Type
REMARK                         _______ _______ _______ _____ _____    ______ ____
ROOT
ATOM      1  C   UNL     1       5.853   4.151  16.112  0.00  0.00    +0.000 A 
ATOM      2  N   UNL     1       4.581   3.928  16.116  0.00  0.00    +0.000 NA
ATOM      3  C   UNL     1       3.907   4.047  17.350  0.00  0.00    +0.000 A 
ATOM      4  C   UNL     1       2.596   3.585  17.484  0.00  0.00    +0.000 A 
ATOM      5  C   UNL     1       1.985   3.722  18.725  0.00  0.00    +0.000 A 
ATOM      6  C   UNL     1       2.549   4.503  19.746  0.00  0.00    +0.000 A 
ATOM      7  C   UNL     1       3.857   4.914  19.659  0.00  0.00    +0.000 A 
ATOM      8  C   UNL     1       4.539   4.590  18.484  0.00  0.00    +0.000 A 
ATOM      9  C   UNL     1       5.993   4.667  18.461  0.00  0.00    +0.000 A 
ATOM     10  O   UNL     1       6.661   4.852  19.473  0.00  0.00    +0.000 OA
ATOM     11  N   UNL     1       6.574   4.449  17.239  0.00  0.00    +0.000 N 
ATOM     12  C   UNL     1       1.659   4.513  20.945  0.00  0.00    +0.000 C 
ATOM     13  C   UNL     1       1.151   3.078  20.803  0.00  0.00    +0.000 C 
ATOM     14  C   UNL     1       0.836   2.937  19.295  0.00  0.00    +0.000 C 
ATOM     15  H   UNL     1       7.578   4.595  17.199  0.00  0.00    +0.000 HD
ENDROOT
BRANCH   1  16
ATOM     16  C   UNL     1       6.646   4.177  14.827  0.00  0.00    +0.000 C 
BRANCH  16  17
ATOM     17  C   UNL     1       5.724   3.929  13.631  0.00  0.00    +0.000 C 
BRANCH  17  19
ATOM     18  O   UNL     1       7.299   4.262  11.826  0.00  0.00    +0.000 OA
ATOM     19  C   UNL     1       6.484   3.544  12.383  0.00  0.00    +0.000 C 
BRANCH  19  20
ATOM     20  O   UNL     1       6.196   2.298  11.946  0.00  0.00    +0.000 OA
ATOM     21  H   UNL     1       6.316   1.594  12.611  0.00  0.00    +0.000 HD
ENDBRANCH  19  20
ENDBRANCH  17  19
ENDBRANCH  16  17
ENDBRANCH   1  16
TORSDOF 4
ENDMDL
MODEL 2
REMARK VINA RESULT:      -7.9      0.829      1.179
REMARK  Name = 
REMARK  4 active torsions:
REMARK  status: ('A' for Active; 'I' for Inactive)
REMARK    1  A    between atoms: C_2  and  O_3
REMARK    2  A    between atoms: C_2  and  C_4
REMARK    3  A    between atoms: C_4  and  C_5
REMARK    4  A    between atoms: C_5  and  C_6
REMARK                            x       y       z     vdW  Elec       q    Type
REMARK                         _______ _______ _______ _____ _____    ______ ____
ROOT
ATOM      1  C   UNL     1       6.155   4.184  16.462  0.00  0.00    +0.000 A 
ATOM      2  N   UNL     1       4.911   3.884  16.290  0.00  0.00    +0.000 NA
ATOM      3  C   UNL     1       4.051   4.028  17.399  0.00  0.00    +0.000 A 
ATOM      4  C   UNL     1       2.761   3.495  17.364  0.00  0.00    +0.000 A 
ATOM      5  C   UNL     1       1.960   3.662  18.488  0.00  0.00    +0.000 A 
ATOM      6  C   UNL     1       2.320   4.530  19.531  0.00  0.00    +0.000 A 
ATOM      7  C   UNL     1       3.602   5.015  19.615  0.00  0.00    +0.000 A 
ATOM      8  C   UNL     1       4.473   4.671  18.578  0.00  0.00    +0.000 A 
ATOM      9  C   UNL     1       5.906   4.835  18.768  0.00  0.00    +0.000 A 
ATOM     10  O   UNL     1       6.401   5.115  19.855  0.00  0.00    +0.000 OA
ATOM     11  N   UNL     1       6.678   4.587  17.663  0.00  0.00    +0.000 N 
ATOM     12  C   UNL     1       1.257   4.551  20.580  0.00  0.00    +0.000 C 
ATOM     13  C   UNL     1       0.853   3.082  20.454  0.00  0.00    +0.000 C 
ATOM     14  C   UNL     1       0.780   2.840  18.928  0.00  0.00    +0.000 C 
ATOM     15  H   UNL     1       7.668   4.792  17.765  0.00  0.00    +0.000 HD
ENDROOT
BRANCH   1  16
ATOM     16  C   UNL     1       7.133   4.189  15.311  0.00  0.00    +0.000 C 
BRANCH  16  17
ATOM     17  C   UNL     1       6.476   4.780  14.062  0.00  0.00    +0.000 C 
BRANCH  17  19
ATOM     18  O   UNL     1       7.362   4.415  11.840  0.00  0.00    +0.000 OA
ATOM     19  C   UNL     1       7.456   4.967  12.926  0.00  0.00    +0.000 C 
BRANCH  19  20
ATOM     20  O   UNL     1       8.448   5.838  13.214  0.00  0.00    +0.000 OA
ATOM     21  H   UNL     1       8.274   6.416  13.981  0.00  0.00    +0.000 HD
ENDBRANCH  19  20
ENDBRANCH  17  19
ENDBRANCH  16  17
ENDBRANCH   1  16
TORSDOF 4
ENDMDL
MODEL 3
REMARK VINA RESULT:      -7.7      1.479      1.535
REMARK  Name = 
REMARK  4 active torsions:
REMARK  status: ('A' for Active; 'I' for Inactive)
REMARK    1  A    between atoms: C_2  and  O_3
REMARK    2  A    between atoms: C_2  and  C_4
REMARK    3  A    between atoms: C_4  and  C_5
REMARK    4  A    between atoms: C_5  and  C_6
REMARK                            x       y       z     vdW  Elec       q    Type
REMARK                         _______ _______ _______ _____ _____    ______ ____
ROOT
ATOM      1  C   UNL     1       5.428   4.601  15.857  0.00  0.00    +0.000 A 
ATOM      2  N   UNL     1       4.870   3.577  16.412  0.00  0.00    +0.000 NA
ATOM      3  C   UNL     1       3.934   3.828  17.439  0.00  0.00    +0.000 A 
ATOM      4  C   UNL     1       3.479   2.784  18.247  0.00  0.00    +0.000 A 
ATOM      5  C   UNL     1       2.562   3.092  19.247  0.00  0.00    +0.000 A 
ATOM      6  C   UNL     1       1.924   4.341  19.307  0.00  0.00    +0.000 A 
ATOM      7  C   UNL     1       2.397   5.395  18.564  0.00  0.00    +0.000 A 
ATOM      8  C   UNL     1       3.464   5.128  17.705  0.00  0.00    +0.000 A 
ATOM      9  C   UNL     1       4.240   6.237  17.168  0.00  0.00    +0.000 A 
ATOM     10  O   UNL     1       4.100   7.391  17.558  0.00  0.00    +0.000 OA
ATOM     11  N   UNL     1       5.191   5.895  16.241  0.00  0.00    +0.000 N 
ATOM     12  C   UNL     1       0.959   4.376  20.446  0.00  0.00    +0.000 C 
ATOM     13  C   UNL     1       1.775   3.505  21.400  0.00  0.00    +0.000 C 
ATOM     14  C   UNL     1       2.271   2.338  20.515  0.00  0.00    +0.000 C 
ATOM     15  H   UNL     1       5.668   6.672  15.796  0.00  0.00    +0.000 HD
ENDROOT
BRANCH   1  16
ATOM     16  C   UNL     1       6.344   4.451  14.666  0.00  0.00    +0.000 C 
BRANCH  16  17
ATOM     17  C   UNL     1       5.551   3.983  13.444  0.00  0.00    +0.000 C 
BRANCH  17  19
ATOM     18  O   UNL     1       7.298   4.189  11.784  0.00  0.00    +0.000 OA
ATOM     19  C   UNL     1       6.443   3.503  12.323  0.00  0.00    +0.000 C 
BRANCH  19  20
ATOM     20  O   UNL     1       6.225   2.215  11.981  0.00  0.00    +0.000 OA
ATOM     21  H   UNL     1       6.763   1.565  12.472  0.00  0.00    +0.000 HD
ENDBRANCH  19  20
ENDBRANCH  17  19
ENDBRANCH  16  17
ENDBRANCH   1  16
TORSDOF 4
ENDMDL
MODEL 4
REMARK VINA RESULT:      -7.4      3.609      4.529
REMARK  Name = 
REMARK  4 active torsions:
REMARK  status: ('A' for Active; 'I' for Inactive)
REMARK    1  A    between atoms: C_2  and  O_3
REMARK    2  A    between atoms: C_2  and  C_4
REMARK    3  A    between atoms: C_4  and  C_5
REMARK    4  A    between atoms: C_5  and  C_6
REMARK                            x       y       z     vdW  Elec       q    Type
REMARK                         _______ _______ _______ _____ _____    ______ ____
ROOT
ATOM      1  C   UNL     1       3.969   4.941  17.964  0.00  0.00    +0.000 A 
ATOM      2  N   UNL     1       3.795   6.147  17.537  0.00  0.00    +0.000 NA
ATOM      3  C   UNL     1       2.951   6.986  18.295  0.00  0.00    +0.000 A 
ATOM      4  C   UNL     1       2.520   8.208  17.773  0.00  0.00    +0.000 A 
ATOM      5  C   UNL     1       1.684   8.990  18.562  0.00  0.00    +0.000 A 
ATOM      6  C   UNL     1       1.464   8.703  19.918  0.00  0.00    +0.000 A 
ATOM      7  C   UNL     1       1.826   7.482  20.433  0.00  0.00    +0.000 A 
ATOM      8  C   UNL     1       2.489   6.608  19.569  0.00  0.00    +0.000 A 
ATOM      9  C   UNL     1       2.580   5.197  19.917  0.00  0.00    +0.000 A 
ATOM     10  O   UNL     1       1.967   4.707  20.860  0.00  0.00    +0.000 OA
ATOM     11  N   UNL     1       3.348   4.433  19.076  0.00  0.00    +0.000 N 
ATOM     12  C   UNL     1       0.569   9.731  20.529  0.00  0.00    +0.000 C 
ATOM     13  C   UNL     1      -0.299   9.969  19.294  0.00  0.00    +0.000 C 
ATOM     14  C   UNL     1       0.716  10.056  18.129  0.00  0.00    +0.000 C 
ATOM     15  H   UNL     1       3.492   3.471  19.367  0.00  0.00    +0.000 HD
ENDROOT
BRANCH   1  16
ATOM     16  C   UNL     1       4.949   4.002  17.302  0.00  0.00    +0.000 C 
BRANCH  16  17
ATOM     17  C   UNL     1       5.638   4.700  16.127  0.00  0.00    +0.000 C 
BRANCH  17  19
ATOM     18  O   UNL     1       7.440   6.296  16.364  0.00  0.00    +0.000 OA
ATOM     19  C   UNL     1       7.043   5.144  16.459  0.00  0.00    +0.000 C 
BRANCH  19  20
ATOM     20  O   UNL     1       7.829   4.141  16.907  0.00  0.00    +0.000 OA
ATOM     21  H   UNL     1       7.436   3.600  17.618  0.00  0.00    +0.000 HD
ENDBRANCH  19  20
ENDBRANCH  17  19
ENDBRANCH  16  17
ENDBRANCH   1  16
TORSDOF 4
ENDMDL
MODEL 5
REMARK VINA RESULT:      -7.4      3.308      5.188
REMARK  Name = 
REMARK  4 active torsions:
REMARK  status: ('A' for Active; 'I' for Inactive)
REMARK    1  A    between atoms: C_2  and  O_3
REMARK    2  A    between atoms: C_2  and  C_4
REMARK    3  A    between atoms: C_4  and  C_5
REMARK    4  A    between atoms: C_5  and  C_6
REMARK                            x       y       z     vdW  Elec       q    Type
REMARK                         _______ _______ _______ _____ _____    ______ ____
ROOT
ATOM      1  C   UNL     1       7.136   6.765  18.027  0.00  0.00    +0.000 A 
ATOM      2  N   UNL     1       6.686   5.923  18.896  0.00  0.00    +0.000 NA
ATOM      3  C   UNL     1       5.660   5.049  18.478  0.00  0.00    +0.000 A 
ATOM      4  C   UNL     1       4.957   4.289  19.416  0.00  0.00    +0.000 A 
ATOM      5  C   UNL     1       3.952   3.450  18.946  0.00  0.00    +0.000 A 
ATOM      6  C   UNL     1       3.794   3.178  17.579  0.00  0.00    +0.000 A 
ATOM      7  C   UNL     1       4.430   3.954  16.641  0.00  0.00    +0.000 A 
ATOM      8  C   UNL     1       5.289   4.944  17.124  0.00  0.00    +0.000 A 
ATOM      9  C   UNL     1       5.709   6.017  16.236  0.00  0.00    +0.000 A 
ATOM     10  O   UNL     1       5.221   6.183  15.122  0.00  0.00    +0.000 OA
ATOM     11  N   UNL     1       6.643   6.877  16.753  0.00  0.00    +0.000 N 
ATOM     12  C   UNL     1       2.675   2.211  17.367  0.00  0.00    +0.000 C 
ATOM     13  C   UNL     1       1.787   2.713  18.504  0.00  0.00    +0.000 C 
ATOM     14  C   UNL     1       2.763   2.907  19.689  0.00  0.00    +0.000 C 
ATOM     15  H   UNL     1       7.009   7.568  16.106  0.00  0.00    +0.000 HD
ENDROOT
BRANCH   1  16
ATOM     16  C   UNL     1       8.317   7.656  18.330  0.00  0.00    +0.000 C 
BRANCH  16  17
ATOM     17  C   UNL     1       8.057   9.073  17.814  0.00  0.00    +0.000 C 
BRANCH  17  19
ATOM     18  O   UNL     1       9.231  11.180  17.998  0.00  0.00    +0.000 OA
ATOM     19  C   UNL     1       8.926  10.106  18.493  0.00  0.00    +0.000 C 
BRANCH  19  20
ATOM     20  O   UNL     1       9.321   9.741  19.732  0.00  0.00    +0.000 OA
ATOM     21  H   UNL     1       9.286   8.781  19.906  0.00  0.00    +0.000 HD
ENDBRANCH  19  20
ENDBRANCH  17  19
ENDBRANCH  16  17
ENDBRANCH   1  16
TORSDOF 4
ENDMDL
MODEL 6
REMARK VINA RESULT:      -7.3      1.820      2.191
REMARK  Name = 
REMARK  4 active torsions:
REMARK  status: ('A' for Active; 'I' for Inactive)
REMARK    1  A    between atoms: C_2  and  O_3
REMARK    2  A    between atoms: C_2  and  C_4
REMARK    3  A    between atoms: C_4  and  C_5
REMARK    4  A    between atoms: C_5  and  C_6
REMARK                            x       y       z     vdW  Elec       q    Type
REMARK                         _______ _______ _______ _____ _____    ______ ____
ROOT
ATOM      1  C   UNL     1       5.810   5.393  16.519  0.00  0.00    +0.000 A 
ATOM      2  N   UNL     1       5.557   4.282  17.125  0.00  0.00    +0.000 NA
ATOM      3  C   UNL     1       4.429   4.249  17.972  0.00  0.00    +0.000 A 
ATOM      4  C   UNL     1       4.234   3.176  18.844  0.00  0.00    +0.000 A 
ATOM      5  C   UNL     1       3.108   3.201  19.660  0.00  0.00    +0.000 A 
ATOM      6  C   UNL     1       2.073   4.129  19.465  0.00  0.00    +0.000 A 
ATOM      7  C   UNL     1       2.270   5.224  18.659  0.00  0.00    +0.000 A 
ATOM      8  C   UNL     1       3.496   5.303  17.995  0.00  0.00    +0.000 A 
ATOM      9  C   UNL     1       3.916   6.574  17.425  0.00  0.00    +0.000 A 
ATOM     10  O   UNL     1       3.315   7.623  17.633  0.00  0.00    +0.000 OA
ATOM     11  N   UNL     1       5.073   6.536  16.690  0.00  0.00    +0.000 N 
ATOM     12  C   UNL     1       0.973   3.896  20.448  0.00  0.00    +0.000 C 
ATOM     13  C   UNL     1       1.862   3.460  21.612  0.00  0.00    +0.000 C 
ATOM     14  C   UNL     1       2.882   2.492  20.966  0.00  0.00    +0.000 C 
ATOM     15  H   UNL     1       5.318   7.397  16.213  0.00  0.00    +0.000 HD
ENDROOT
BRANCH   1  16
ATOM     16  C   UNL     1       6.915   5.499  15.494  0.00  0.00    +0.000 C 
BRANCH  16  17
ATOM     17  C   UNL     1       6.700   4.475  14.377  0.00  0.00    +0.000 C 
BRANCH  17  19
ATOM     18  O   UNL     1       7.190   4.367  12.011  0.00  0.00    +0.000 OA
ATOM     19  C   UNL     1       7.441   4.835  13.111  0.00  0.00    +0.000 C 
BRANCH  19  20
ATOM     20  O   UNL     1       8.408   5.760  13.302  0.00  0.00    +0.000 OA
ATOM     21  H   UNL     1       8.987   5.592  14.069  0.00  0.00    +0.000 HD
ENDBRANCH  19  20
ENDBRANCH  17  19
ENDBRANCH  16  17
ENDBRANCH   1  16
TORSDOF 4
ENDMDL
MODEL 7
REMARK VINA RESULT:      -7.3      3.567      6.791
REMARK  Name = 
REMARK  4 active torsions:
REMARK  status: ('A' for Active; 'I' for Inactive)
REMARK    1  A    between atoms: C_2  and  O_3
REMARK    2  A    between atoms: C_2  and  C_4
REMARK    3  A    between atoms: C_4  and  C_5
REMARK    4  A    between atoms: C_5  and  C_6
REMARK                            x       y       z     vdW  Elec       q    Type
REMARK                         _______ _______ _______ _____ _____    ______ ____
ROOT
ATOM      1  C   UNL     1       6.769   5.948  16.659  0.00  0.00    +0.000 A 
ATOM      2  N   UNL     1       7.364   5.841  15.518  0.00  0.00    +0.000 NA
ATOM      3  C   UNL     1       6.772   4.995  14.556  0.00  0.00    +0.000 A 
ATOM      4  C   UNL     1       7.476   4.636  13.405  0.00  0.00    +0.000 A 
ATOM      5  C   UNL     1       6.844   3.795  12.496  0.00  0.00    +0.000 A 
ATOM      6  C   UNL     1       5.475   3.500  12.588  0.00  0.00    +0.000 A 
ATOM      7  C   UNL     1       4.782   3.790  13.737  0.00  0.00    +0.000 A 
ATOM      8  C   UNL     1       5.484   4.459  14.742  0.00  0.00    +0.000 A 
ATOM      9  C   UNL     1       4.944   4.480  16.094  0.00  0.00    +0.000 A 
ATOM     10  O   UNL     1       3.977   3.805  16.430  0.00  0.00    +0.000 OA
ATOM     11  N   UNL     1       5.633   5.256  16.990  0.00  0.00    +0.000 N 
ATOM     12  C   UNL     1       5.057   2.617  11.458  0.00  0.00    +0.000 C 
ATOM     13  C   UNL     1       6.356   1.818  11.364  0.00  0.00    +0.000 C 
ATOM     14  C   UNL     1       7.467   2.889  11.469  0.00  0.00    +0.000 C 
ATOM     15  H   UNL     1       5.208   5.349  17.907  0.00  0.00    +0.000 HD
ENDROOT
BRANCH   1  16
ATOM     16  C   UNL     1       7.246   6.922  17.710  0.00  0.00    +0.000 C 
BRANCH  16  17
ATOM     17  C   UNL     1       8.225   6.234  18.664  0.00  0.00    +0.000 C 
BRANCH  17  19
ATOM     18  O   UNL     1       6.343   5.252  19.825  0.00  0.00    +0.000 OA
ATOM     19  C   UNL     1       7.526   5.553  19.818  0.00  0.00    +0.000 C 
BRANCH  19  20
ATOM     20  O   UNL     1       8.350   5.277  20.853  0.00  0.00    +0.000 OA
ATOM     21  H   UNL     1       8.520   4.326  20.997  0.00  0.00    +0.000 HD
ENDBRANCH  19  20
ENDBRANCH  17  19
ENDBRANCH  16  17
ENDBRANCH   1  16
TORSDOF 4
ENDMDL
MODEL 8
REMARK VINA RESULT:      -7.3      4.605      7.990
REMARK  Name = 
REMARK  4 active torsions:
REMARK  status: ('A' for Active; 'I' for Inactive)
REMARK    1  A    between atoms: C_2  and  O_3
REMARK    2  A    between atoms: C_2  and  C_4
REMARK    3  A    between atoms: C_4  and  C_5
REMARK    4  A    between atoms: C_5  and  C_6
REMARK                            x       y       z     vdW  Elec       q    Type
REMARK                         _______ _______ _______ _____ _____    ______ ____
ROOT
ATOM      1  C   UNL     1       1.572   8.161  20.130  0.00  0.00    +0.000 A 
ATOM      2  N   UNL     1       2.186   8.274  19.000  0.00  0.00    +0.000 NA
ATOM      3  C   UNL     1       2.837   7.125  18.499  0.00  0.00    +0.000 A 
ATOM      4  C   UNL     1       3.719   7.229  17.422  0.00  0.00    +0.000 A 
ATOM      5  C   UNL     1       4.336   6.065  16.976  0.00  0.00    +0.000 A 
ATOM      6  C   UNL     1       3.925   4.796  17.412  0.00  0.00    +0.000 A 
ATOM      7  C   UNL     1       3.106   4.674  18.508  0.00  0.00    +0.000 A 
ATOM      8  C   UNL     1       2.650   5.860  19.087  0.00  0.00    +0.000 A 
ATOM      9  C   UNL     1       2.091   5.828  20.430  0.00  0.00    +0.000 A 
ATOM     10  O   UNL     1       2.143   4.831  21.144  0.00  0.00    +0.000 OA
ATOM     11  N   UNL     1       1.560   7.010  20.875  0.00  0.00    +0.000 N 
ATOM     12  C   UNL     1       4.724   3.731  16.736  0.00  0.00    +0.000 C 
ATOM     13  C   UNL     1       6.040   4.506  16.674  0.00  0.00    +0.000 C 
ATOM     14  C   UNL     1       5.623   5.922  16.211  0.00  0.00    +0.000 C 
ATOM     15  H   UNL     1       1.085   6.969  21.771  0.00  0.00    +0.000 HD
ENDROOT
BRANCH   1  16
ATOM     16  C   UNL     1       0.739   9.289  20.691  0.00  0.00    +0.000 C 
BRANCH  16  17
ATOM     17  C   UNL     1      -0.233   8.753  21.745  0.00  0.00    +0.000 C 
BRANCH  17  19
ATOM     18  O   UNL     1       0.859   9.585  23.737  0.00  0.00    +0.000 OA
ATOM     19  C   UNL     1      -0.148   9.510  23.050  0.00  0.00    +0.000 C 
BRANCH  19  20
ATOM     20  O   UNL     1      -1.300  10.133  23.383  0.00  0.00    +0.000 OA
ATOM     21  H   UNL     1      -1.278  10.604  24.238  0.00  0.00    +0.000 HD
ENDBRANCH  19  20
ENDBRANCH  17  19
ENDBRANCH  16  17
ENDBRANCH   1  16
TORSDOF 4
ENDMDL
MODEL 9
REMARK VINA RESULT:      -7.2      1.980      2.569
REMARK  Name = 
REMARK  4 active torsions:
REMARK  status: ('A' for Active; 'I' for Inactive)
REMARK    1  A    between atoms: C_2  and  O_3
REMARK    2  A    between atoms: C_2  and  C_4
REMARK    3  A    between atoms: C_4  and  C_5
REMARK    4  A    between atoms: C_5  and  C_6
REMARK                            x       y       z     vdW  Elec       q    Type
REMARK                         _______ _______ _______ _____ _____    ______ ____
ROOT
ATOM      1  C   UNL     1       5.808   5.710  17.394  0.00  0.00    +0.000 A 
ATOM      2  N   UNL     1       5.678   4.579  18.002  0.00  0.00    +0.000 NA
ATOM      3  C   UNL     1       4.434   4.313  18.614  0.00  0.00    +0.000 A 
ATOM      4  C   UNL     1       4.297   3.235  19.492  0.00  0.00    +0.000 A 
ATOM      5  C   UNL     1       3.050   3.026  20.070  0.00  0.00    +0.000 A 
ATOM      6  C   UNL     1       1.905   3.704  19.626  0.00  0.00    +0.000 A 
ATOM      7  C   UNL     1       2.025   4.803  18.811  0.00  0.00    +0.000 A 
ATOM      8  C   UNL     1       3.315   5.138  18.395  0.00  0.00    +0.000 A 
ATOM      9  C   UNL     1       3.565   6.463  17.846  0.00  0.00    +0.000 A 
ATOM     10  O   UNL     1       2.727   7.358  17.874  0.00  0.00    +0.000 OA
ATOM     11  N   UNL     1       4.827   6.667  17.353  0.00  0.00    +0.000 N 
ATOM     12  C   UNL     1       0.703   3.249  20.388  0.00  0.00    +0.000 C 
ATOM     13  C   UNL     1       1.410   3.033  21.725  0.00  0.00    +0.000 C 
ATOM     14  C   UNL     1       2.720   2.302  21.346  0.00  0.00    +0.000 C 
ATOM     15  H   UNL     1       4.977   7.555  16.885  0.00  0.00    +0.000 HD
ENDROOT
BRANCH   1  16
ATOM     16  C   UNL     1       7.049   6.040  16.599  0.00  0.00    +0.000 C 
BRANCH  16  17
ATOM     17  C   UNL     1       7.489   4.826  15.778  0.00  0.00    +0.000 C 
BRANCH  17  19
ATOM     18  O   UNL     1       5.824   4.295  14.105  0.00  0.00    +0.000 OA
ATOM     19  C   UNL     1       6.891   4.817  14.390  0.00  0.00    +0.000 C 
BRANCH  19  20
ATOM     20  O   UNL     1       7.644   5.473  13.480  0.00  0.00    +0.000 OA
ATOM     21  H   UNL     1       7.212   5.609  12.615  0.00  0.00    +0.000 HD
ENDBRANCH  19  20
ENDBRANCH  17  19
ENDBRANCH  16  17
ENDBRANCH   1  16
TORSDOF 4
ENDMDL
