MODEL 1
REMARK VINA RESULT:      -6.4      0.000      0.000
REMARK  Name = 
REMARK  9 active torsions:
REMARK  status: ('A' for Active; 'I' for Inactive)
REMARK    1  A    between atoms: C_1  and  O_2
REMARK    2  A    between atoms: O_2  and  C_3
REMARK    3  A    between atoms: C_3  and  C_5
REMARK    4  A    between atoms: C_9  and  N_10
REMARK    5  A    between atoms: C_11  and  C_12
REMARK    6  A    between atoms: C_12  and  N_13
REMARK    7  A    between atoms: N_16  and  C_17
REMARK    8  A    between atoms: C_18  and  C_19
REMARK    9  A    between atoms: C_23  and  C_24
REMARK                            x       y       z     vdW  Elec       q    Type
REMARK                         _______ _______ _______ _____ _____    ______ ____
ROOT
ATOM      1  C   UNL     1       2.767   6.351  19.318  0.00  0.00    +0.000 C 
ENDROOT
BRANCH   1   7
ATOM      2  C   UNL     1       3.568   4.482  17.753  0.00  0.00    +0.000 A 
ATOM      3  C   UNL     1       3.527   3.148  17.298  0.00  0.00    +0.000 A 
ATOM      4  C   UNL     1       2.604   2.254  17.818  0.00  0.00    +0.000 A 
ATOM      5  C   UNL     1       1.712   2.683  18.793  0.00  0.00    +0.000 A 
ATOM      6  C   UNL     1       1.681   4.027  19.221  0.00  0.00    +0.000 A 
ATOM      7  C   UNL     1       2.641   4.952  18.721  0.00  0.00    +0.000 A 
BRANCH   6   8
ATOM      8  N   UNL     1       0.871   4.317  20.335  0.00  0.00    +0.000 N 
ATOM      9  H   UNL     1       0.960   3.646  21.093  0.00  0.00    +0.000 HD
ATOM     10  H   UNL     1      -0.101   4.481  20.089  0.00  0.00    +0.000 HD
ENDBRANCH   6   8
BRANCH   2  11
ATOM     11  C   UNL     1       4.721   5.309  17.294  0.00  0.00    +0.000 C 
ATOM     12  O   UNL     1       4.686   6.136  16.404  0.00  0.00    +0.000 OA
BRANCH  11  14
ATOM     13  C   UNL     1       6.961   4.704  17.255  0.00  0.00    +0.000 C 
ATOM     14  O   UNL     1       5.816   5.020  18.047  0.00  0.00    +0.000 OA
ENDBRANCH  11  14
ENDBRANCH   2  11
ENDBRANCH   1   7
BRANCH   1  15
ATOM     15  N   UNL     1       1.928   7.469  18.817  0.00  0.00    +0.000 NA
ATOM     16  C   UNL     1       2.607   8.540  18.045  0.00  0.00    +0.000 C 
ATOM     17  C   UNL     1       1.706   9.830  17.863  0.00  0.00    +0.000 C 
ATOM     18  N   UNL     1       1.347  10.437  19.172  0.00  0.00    +0.000 N 
ATOM     19  C   UNL     1       1.605   9.555  20.323  0.00  0.00    +0.000 C 
ATOM     20  C   UNL     1       1.239   8.084  20.000  0.00  0.00    +0.000 C 
BRANCH  18  21
ATOM     21  C   UNL     1       0.239  11.288  19.333  0.00  0.00    +0.000 A 
ATOM     22  C   UNL     1      -1.072  11.005  18.881  0.00  0.00    +0.000 A 
ATOM     23  C   UNL     1      -1.524   9.761  18.163  0.00  0.00    +0.000 C 
ATOM     24  C   UNL     1      -2.134  11.908  19.148  0.00  0.00    +0.000 A 
ATOM     25  C   UNL     1      -1.939  13.082  19.846  0.00  0.00    +0.000 A 
ATOM     26  C   UNL     1      -0.667  13.375  20.318  0.00  0.00    +0.000 A 
ATOM     27  C   UNL     1       0.408  12.492  20.094  0.00  0.00    +0.000 A 
ATOM     28  C   UNL     1       1.733  12.921  20.671  0.00  0.00    +0.000 C 
ENDBRANCH  18  21
ENDBRANCH   1  15
TORSDOF 6
ENDMDL
MODEL 2
REMARK VINA RESULT:      -6.3      2.047      3.491
REMARK  Name = 
REMARK  9 active torsions:
REMARK  status: ('A' for Active; 'I' for Inactive)
REMARK    1  A    between atoms: C_1  and  O_2
REMARK    2  A    between atoms: O_2  and  C_3
REMARK    3  A    between atoms: C_3  and  C_5
REMARK    4  A    between atoms: C_9  and  N_10
REMARK    5  A    between atoms: C_11  and  C_12
REMARK    6  A    between atoms: C_12  and  N_13
REMARK    7  A    between atoms: N_16  and  C_17
REMARK    8  A    between atoms: C_18  and  C_19
REMARK    9  A    between atoms: C_23  and  C_24
REMARK                            x       y       z     vdW  Elec       q    Type
REMARK                         _______ _______ _______ _____ _____    ______ ____
ROOT
ATOM      1  C   UNL     1       2.240   6.959  18.147  0.00  0.00    +0.000 C 
ENDROOT
BRANCH   1   7
ATOM      2  C   UNL     1       3.045   4.747  19.169  0.00  0.00    +0.000 A 
ATOM      3  C   UNL     1       4.042   3.771  19.376  0.00  0.00    +0.000 A 
ATOM      4  C   UNL     1       5.325   3.961  18.890  0.00  0.00    +0.000 A 
ATOM      5  C   UNL     1       5.628   5.126  18.197  0.00  0.00    +0.000 A 
ATOM      6  C   UNL     1       4.674   6.151  18.031  0.00  0.00    +0.000 A 
ATOM      7  C   UNL     1       3.342   5.962  18.496  0.00  0.00    +0.000 A 
BRANCH   6   8
ATOM      8  N   UNL     1       5.021   7.204  17.162  0.00  0.00    +0.000 N 
ATOM      9  H   UNL     1       4.250   7.830  16.948  0.00  0.00    +0.000 HD
ATOM     10  H   UNL     1       5.492   6.886  16.320  0.00  0.00    +0.000 HD
ENDBRANCH   6   8
BRANCH   2  11
ATOM     11  C   UNL     1       1.651   4.368  19.540  0.00  0.00    +0.000 C 
ATOM     12  O   UNL     1       1.094   4.659  20.580  0.00  0.00    +0.000 OA
BRANCH  11  14
ATOM     13  C   UNL     1       0.711   2.345  18.899  0.00  0.00    +0.000 C 
ATOM     14  O   UNL     1       1.083   3.670  18.520  0.00  0.00    +0.000 OA
ENDBRANCH  11  14
ENDBRANCH   2  11
ENDBRANCH   1   7
BRANCH   1  15
ATOM     15  N   UNL     1       2.195   8.297  18.788  0.00  0.00    +0.000 NA
ATOM     16  C   UNL     1       1.466   8.412  20.077  0.00  0.00    +0.000 C 
ATOM     17  C   UNL     1       1.185   9.915  20.489  0.00  0.00    +0.000 C 
ATOM     18  N   UNL     1       0.343  10.613  19.482  0.00  0.00    +0.000 N 
ATOM     19  C   UNL     1       0.239   9.895  18.200  0.00  0.00    +0.000 C 
ATOM     20  C   UNL     1       1.592   9.253  17.801  0.00  0.00    +0.000 C 
BRANCH  18  21
ATOM     21  C   UNL     1       0.309  12.014  19.364  0.00  0.00    +0.000 A 
ATOM     22  C   UNL     1       1.325  12.803  18.774  0.00  0.00    +0.000 A 
ATOM     23  C   UNL     1       2.609  12.302  18.165  0.00  0.00    +0.000 C 
ATOM     24  C   UNL     1       1.165  14.207  18.651  0.00  0.00    +0.000 A 
ATOM     25  C   UNL     1       0.030  14.856  19.095  0.00  0.00    +0.000 A 
ATOM     26  C   UNL     1      -0.991  14.104  19.659  0.00  0.00    +0.000 A 
ATOM     27  C   UNL     1      -0.879  12.704  19.777  0.00  0.00    +0.000 A 
ATOM     28  C   UNL     1      -2.063  12.006  20.394  0.00  0.00    +0.000 C 
ENDBRANCH  18  21
ENDBRANCH   1  15
TORSDOF 6
ENDMDL
MODEL 3
REMARK VINA RESULT:      -6.3      4.055      8.222
REMARK  Name = 
REMARK  9 active torsions:
REMARK  status: ('A' for Active; 'I' for Inactive)
REMARK    1  A    between atoms: C_1  and  O_2
REMARK    2  A    between atoms: O_2  and  C_3
REMARK    3  A    between atoms: C_3  and  C_5
REMARK    4  A    between atoms: C_9  and  N_10
REMARK    5  A    between atoms: C_11  and  C_12
REMARK    6  A    between atoms: C_12  and  N_13
REMARK    7  A    between atoms: N_16  and  C_17
REMARK    8  A    between atoms: C_18  and  C_19
REMARK    9  A    between atoms: C_23  and  C_24
REMARK                            x       y       z     vdW  Elec       q    Type
REMARK                         _______ _______ _______ _____ _____    ______ ____
ROOT
ATOM      1  C   UNL     1       4.846   5.243  19.291  0.00  0.00    +0.000 C 
ENDROOT
BRANCH   1   7
ATOM      2  C   UNL     1       2.411   5.307  20.095  0.00  0.00    +0.000 A 
ATOM      3  C   UNL     1       1.240   4.662  20.547  0.00  0.00    +0.000 A 
ATOM      4  C   UNL     1       1.234   3.297  20.783  0.00  0.00    +0.000 A 
ATOM      5  C   UNL     1       2.395   2.562  20.574  0.00  0.00    +0.000 A 
ATOM      6  C   UNL     1       3.599   3.186  20.188  0.00  0.00    +0.000 A 
ATOM      7  C   UNL     1       3.618   4.582  19.911  0.00  0.00    +0.000 A 
BRANCH   6   8
ATOM      8  N   UNL     1       4.663   2.337  19.827  0.00  0.00    +0.000 N 
ATOM      9  H   UNL     1       4.921   1.672  20.550  0.00  0.00    +0.000 HD
ATOM     10  H   UNL     1       5.472   2.840  19.474  0.00  0.00    +0.000 HD
ENDBRANCH   6   8
BRANCH   2  11
ATOM     11  C   UNL     1       2.268   6.729  19.669  0.00  0.00    +0.000 C 
ATOM     12  O   UNL     1       2.192   7.685  20.416  0.00  0.00    +0.000 OA
BRANCH  11  14
ATOM     13  C   UNL     1       2.767   8.045  17.824  0.00  0.00    +0.000 C 
ATOM     14  O   UNL     1       2.268   6.799  18.311  0.00  0.00    +0.000 OA
ENDBRANCH  11  14
ENDBRANCH   2  11
ENDBRANCH   1   7
BRANCH   1  15
ATOM     15  N   UNL     1       5.540   4.623  18.134  0.00  0.00    +0.000 NA
ATOM     16  C   UNL     1       6.993   4.888  17.987  0.00  0.00    +0.000 C 
ATOM     17  C   UNL     1       7.549   4.480  16.561  0.00  0.00    +0.000 C 
ATOM     18  N   UNL     1       6.884   5.244  15.473  0.00  0.00    +0.000 N 
ATOM     19  C   UNL     1       5.660   5.940  15.903  0.00  0.00    +0.000 C 
ATOM     20  C   UNL     1       4.834   5.074  16.888  0.00  0.00    +0.000 C 
BRANCH  18  21
ATOM     21  C   UNL     1       6.855   4.794  14.141  0.00  0.00    +0.000 A 
ATOM     22  C   UNL     1       7.753   5.205  13.127  0.00  0.00    +0.000 A 
ATOM     23  C   UNL     1       8.892   6.178  13.278  0.00  0.00    +0.000 C 
ATOM     24  C   UNL     1       7.674   4.642  11.826  0.00  0.00    +0.000 A 
ATOM     25  C   UNL     1       6.734   3.687  11.497  0.00  0.00    +0.000 A 
ATOM     26  C   UNL     1       5.854   3.251  12.479  0.00  0.00    +0.000 A 
ATOM     27  C   UNL     1       5.917   3.768  13.788  0.00  0.00    +0.000 A 
ATOM     28  C   UNL     1       4.915   3.200  14.760  0.00  0.00    +0.000 C 
ENDBRANCH  18  21
ENDBRANCH   1  15
TORSDOF 6
ENDMDL
MODEL 4
REMARK VINA RESULT:      -6.1      3.001      8.161
REMARK  Name = 
REMARK  9 active torsions:
REMARK  status: ('A' for Active; 'I' for Inactive)
REMARK    1  A    between atoms: C_1  and  O_2
REMARK    2  A    between atoms: O_2  and  C_3
REMARK    3  A    between atoms: C_3  and  C_5
REMARK    4  A    between atoms: C_9  and  N_10
REMARK    5  A    between atoms: C_11  and  C_12
REMARK    6  A    between atoms: C_12  and  N_13
REMARK    7  A    between atoms: N_16  and  C_17
REMARK    8  A    between atoms: C_18  and  C_19
REMARK    9  A    between atoms: C_23  and  C_24
REMARK                            x       y       z     vdW  Elec       q    Type
REMARK                         _______ _______ _______ _____ _____    ______ ____
ROOT
ATOM      1  C   UNL     1       0.618  10.333  19.406  0.00  0.00    +0.000 C 
ENDROOT
BRANCH   1   7
ATOM      2  C   UNL     1      -1.078  11.788  20.667  0.00  0.00    +0.000 A 
ATOM      3  C   UNL     1      -2.300  12.489  20.731  0.00  0.00    +0.000 A 
ATOM      4  C   UNL     1      -3.199  12.436  19.677  0.00  0.00    +0.000 A 
ATOM      5  C   UNL     1      -2.889  11.681  18.552  0.00  0.00    +0.000 A 
ATOM      6  C   UNL     1      -1.706  10.915  18.485  0.00  0.00    +0.000 A 
ATOM      7  C   UNL     1      -0.757  10.981  19.544  0.00  0.00    +0.000 A 
BRANCH   6   8
ATOM      8  N   UNL     1      -1.399  10.336  17.239  0.00  0.00    +0.000 N 
ATOM      9  H   UNL     1      -1.679   9.362  17.158  0.00  0.00    +0.000 HD
ATOM     10  H   UNL     1      -0.430  10.472  16.965  0.00  0.00    +0.000 HD
ENDBRANCH   6   8
BRANCH   2  11
ATOM     11  C   UNL     1      -0.089  12.071  21.748  0.00  0.00    +0.000 C 
ATOM     12  O   UNL     1       0.978  12.633  21.598  0.00  0.00    +0.000 OA
BRANCH  11  14
ATOM     13  C   UNL     1      -0.538  10.209  23.058  0.00  0.00    +0.000 C 
ATOM     14  O   UNL     1      -0.579  11.631  22.938  0.00  0.00    +0.000 OA
ENDBRANCH  11  14
ENDBRANCH   2  11
ENDBRANCH   1   7
BRANCH   1  15
ATOM     15  N   UNL     1       0.783   8.864  19.544  0.00  0.00    +0.000 NA
ATOM     16  C   UNL     1       1.629   8.374  20.662  0.00  0.00    +0.000 C 
ATOM     17  C   UNL     1       2.016   6.846  20.512  0.00  0.00    +0.000 C 
ATOM     18  N   UNL     1       2.796   6.596  19.272  0.00  0.00    +0.000 N 
ATOM     19  C   UNL     1       2.751   7.711  18.310  0.00  0.00    +0.000 C 
ATOM     20  C   UNL     1       1.339   8.347  18.250  0.00  0.00    +0.000 C 
BRANCH  18  21
ATOM     21  C   UNL     1       2.885   5.324  18.677  0.00  0.00    +0.000 A 
ATOM     22  C   UNL     1       2.045   4.226  18.982  0.00  0.00    +0.000 A 
ATOM     23  C   UNL     1       0.914   4.212  19.977  0.00  0.00    +0.000 C 
ATOM     24  C   UNL     1       2.181   3.001  18.280  0.00  0.00    +0.000 A 
ATOM     25  C   UNL     1       3.122   2.827  17.286  0.00  0.00    +0.000 A 
ATOM     26  C   UNL     1       3.945   3.894  16.952  0.00  0.00    +0.000 A 
ATOM     27  C   UNL     1       3.825   5.134  17.611  0.00  0.00    +0.000 A 
ATOM     28  C   UNL     1       4.768   6.212  17.144  0.00  0.00    +0.000 C 
ENDBRANCH  18  21
ENDBRANCH   1  15
TORSDOF 6
ENDMDL
MODEL 5
REMARK VINA RESULT:      -6.1      0.325      1.728
REMARK  Name = 
REMARK  9 active torsions:
REMARK  status: ('A' for Active; 'I' for Inactive)
REMARK    1  A    between atoms: C_1  and  O_2
REMARK    2  A    between atoms: O_2  and  C_3
REMARK    3  A    between atoms: C_3  and  C_5
REMARK    4  A    between atoms: C_9  and  N_10
REMARK    5  A    between atoms: C_11  and  C_12
REMARK    6  A    between atoms: C_12  and  N_13
REMARK    7  A    between atoms: N_16  and  C_17
REMARK    8  A    between atoms: C_18  and  C_19
REMARK    9  A    between atoms: C_23  and  C_24
REMARK                            x       y       z     vdW  Elec       q    Type
REMARK                         _______ _______ _______ _____ _____    ______ ____
ROOT
ATOM      1  C   UNL     1       2.879   6.329  19.246  0.00  0.00    +0.000 C 
ENDROOT
BRANCH   1   7
ATOM      2  C   UNL     1       3.688   4.380  17.786  0.00  0.00    +0.000 A 
ATOM      3  C   UNL     1       3.635   3.028  17.388  0.00  0.00    +0.000 A 
ATOM      4  C   UNL     1       2.683   2.174  17.920  0.00  0.00    +0.000 A 
ATOM      5  C   UNL     1       1.772   2.660  18.849  0.00  0.00    +0.000 A 
ATOM      6  C   UNL     1       1.754   4.022  19.218  0.00  0.00    +0.000 A 
ATOM      7  C   UNL     1       2.744   4.907  18.706  0.00  0.00    +0.000 A 
BRANCH   6   8
ATOM      8  N   UNL     1       0.919   4.374  20.296  0.00  0.00    +0.000 N 
ATOM      9  H   UNL     1      -0.029   4.611  20.019  0.00  0.00    +0.000 HD
ATOM     10  H   UNL     1       1.324   5.086  20.897  0.00  0.00    +0.000 HD
ENDBRANCH   6   8
BRANCH   2  11
ATOM     11  C   UNL     1       4.869   5.166  17.325  0.00  0.00    +0.000 C 
ATOM     12  O   UNL     1       4.842   6.068  16.509  0.00  0.00    +0.000 OA
BRANCH  11  14
ATOM     13  C   UNL     1       7.129   4.676  17.134  0.00  0.00    +0.000 C 
ATOM     14  O   UNL     1       5.982   4.742  17.981  0.00  0.00    +0.000 OA
ENDBRANCH  11  14
ENDBRANCH   2  11
ENDBRANCH   1   7
BRANCH   1  15
ATOM     15  N   UNL     1       1.975   7.409  18.777  0.00  0.00    +0.000 NA
ATOM     16  C   UNL     1       2.588   8.535  18.027  0.00  0.00    +0.000 C 
ATOM     17  C   UNL     1       1.614   9.775  17.882  0.00  0.00    +0.000 C 
ATOM     18  N   UNL     1       1.228  10.329  19.207  0.00  0.00    +0.000 N 
ATOM     19  C   UNL     1       1.542   9.436  20.335  0.00  0.00    +0.000 C 
ATOM     20  C   UNL     1       1.259   7.955  19.977  0.00  0.00    +0.000 C 
BRANCH  18  21
ATOM     21  C   UNL     1       0.074  11.112  19.393  0.00  0.00    +0.000 A 
ATOM     22  C   UNL     1       0.005  12.276  20.194  0.00  0.00    +0.000 A 
ATOM     23  C   UNL     1       1.134  12.894  20.977  0.00  0.00    +0.000 C 
ATOM     24  C   UNL     1      -1.196  13.028  20.266  0.00  0.00    +0.000 A 
ATOM     25  C   UNL     1      -2.332  12.662  19.574  0.00  0.00    +0.000 A 
ATOM     26  C   UNL     1      -2.286  11.535  18.765  0.00  0.00    +0.000 A 
ATOM     27  C   UNL     1      -1.104  10.776  18.648  0.00  0.00    +0.000 A 
ATOM     28  C   UNL     1      -1.184   9.585  17.728  0.00  0.00    +0.000 C 
ENDBRANCH  18  21
ENDBRANCH   1  15
TORSDOF 6
ENDMDL
MODEL 6
REMARK VINA RESULT:      -6.1      1.601      1.939
REMARK  Name = 
REMARK  9 active torsions:
REMARK  status: ('A' for Active; 'I' for Inactive)
REMARK    1  A    between atoms: C_1  and  O_2
REMARK    2  A    between atoms: O_2  and  C_3
REMARK    3  A    between atoms: C_3  and  C_5
REMARK    4  A    between atoms: C_9  and  N_10
REMARK    5  A    between atoms: C_11  and  C_12
REMARK    6  A    between atoms: C_12  and  N_13
REMARK    7  A    between atoms: N_16  and  C_17
REMARK    8  A    between atoms: C_18  and  C_19
REMARK    9  A    between atoms: C_23  and  C_24
REMARK                            x       y       z     vdW  Elec       q    Type
REMARK                         _______ _______ _______ _____ _____    ______ ____
ROOT
ATOM      1  C   UNL     1       2.669   5.933  19.981  0.00  0.00    +0.000 C 
ENDROOT
BRANCH   1   7
ATOM      2  C   UNL     1       3.676   4.320  18.258  0.00  0.00    +0.000 A 
ATOM      3  C   UNL     1       3.671   3.093  17.562  0.00  0.00    +0.000 A 
ATOM      4  C   UNL     1       2.636   2.188  17.738  0.00  0.00    +0.000 A 
ATOM      5  C   UNL     1       1.596   2.499  18.605  0.00  0.00    +0.000 A 
ATOM      6  C   UNL     1       1.537   3.744  19.264  0.00  0.00    +0.000 A 
ATOM      7  C   UNL     1       2.605   4.674  19.120  0.00  0.00    +0.000 A 
BRANCH   6   8
ATOM      8  N   UNL     1       0.547   3.888  20.255  0.00  0.00    +0.000 N 
ATOM      9  H   UNL     1       0.919   4.063  21.184  0.00  0.00    +0.000 HD
ATOM     10  H   UNL     1      -0.129   3.129  20.257  0.00  0.00    +0.000 HD
ENDBRANCH   6   8
BRANCH   2  11
ATOM     11  C   UNL     1       4.923   5.133  18.170  0.00  0.00    +0.000 C 
ATOM     12  O   UNL     1       5.071   6.125  17.483  0.00  0.00    +0.000 OA
BRANCH  11  14
ATOM     13  C   UNL     1       6.945   5.514  19.243  0.00  0.00    +0.000 C 
ATOM     14  O   UNL     1       5.865   4.612  19.001  0.00  0.00    +0.000 OA
ENDBRANCH  11  14
ENDBRANCH   2  11
ENDBRANCH   1   7
BRANCH   1  15
ATOM     15  N   UNL     1       1.668   7.017  19.818  0.00  0.00    +0.000 NA
ATOM     16  C   UNL     1       2.060   8.192  18.999  0.00  0.00    +0.000 C 
ATOM     17  C   UNL     1       1.074   9.418  19.175  0.00  0.00    +0.000 C 
ATOM     18  N   UNL     1       1.038   9.897  20.582  0.00  0.00    +0.000 N 
ATOM     19  C   UNL     1       1.637   8.954  21.542  0.00  0.00    +0.000 C 
ATOM     20  C   UNL     1       1.281   7.487  21.190  0.00  0.00    +0.000 C 
BRANCH  18  21
ATOM     21  C   UNL     1      -0.035  10.645  21.099  0.00  0.00    +0.000 A 
ATOM     22  C   UNL     1      -0.568  10.503  22.402  0.00  0.00    +0.000 A 
ATOM     23  C   UNL     1      -0.094   9.547  23.466  0.00  0.00    +0.000 C 
ATOM     24  C   UNL     1      -1.614  11.351  22.847  0.00  0.00    +0.000 A 
ATOM     25  C   UNL     1      -2.151  12.336  22.043  0.00  0.00    +0.000 A 
ATOM     26  C   UNL     1      -1.633  12.510  20.767  0.00  0.00    +0.000 A 
ATOM     27  C   UNL     1      -0.577  11.703  20.297  0.00  0.00    +0.000 A 
ATOM     28  C   UNL     1      -0.099  12.005  18.901  0.00  0.00    +0.000 C 
ENDBRANCH  18  21
ENDBRANCH   1  15
TORSDOF 6
ENDMDL
MODEL 7
REMARK VINA RESULT:      -6.1      2.909      8.224
REMARK  Name = 
REMARK  9 active torsions:
REMARK  status: ('A' for Active; 'I' for Inactive)
REMARK    1  A    between atoms: C_1  and  O_2
REMARK    2  A    between atoms: O_2  and  C_3
REMARK    3  A    between atoms: C_3  and  C_5
REMARK    4  A    between atoms: C_9  and  N_10
REMARK    5  A    between atoms: C_11  and  C_12
REMARK    6  A    between atoms: C_12  and  N_13
REMARK    7  A    between atoms: N_16  and  C_17
REMARK    8  A    between atoms: C_18  and  C_19
REMARK    9  A    between atoms: C_23  and  C_24
REMARK                            x       y       z     vdW  Elec       q    Type
REMARK                         _______ _______ _______ _____ _____    ______ ____
ROOT
ATOM      1  C   UNL     1       0.783  10.078  19.337  0.00  0.00    +0.000 C 
ENDROOT
BRANCH   1   7
ATOM      2  C   UNL     1      -0.881  11.589  20.574  0.00  0.00    +0.000 A 
ATOM      3  C   UNL     1      -2.081  12.328  20.621  0.00  0.00    +0.000 A 
ATOM      4  C   UNL     1      -2.967  12.303  19.556  0.00  0.00    +0.000 A 
ATOM      5  C   UNL     1      -2.667  11.537  18.436  0.00  0.00    +0.000 A 
ATOM      6  C   UNL     1      -1.509  10.733  18.385  0.00  0.00    +0.000 A 
ATOM      7  C   UNL     1      -0.572  10.770  19.456  0.00  0.00    +0.000 A 
BRANCH   6   8
ATOM      8  N   UNL     1      -1.204  10.142  17.144  0.00  0.00    +0.000 N 
ATOM      9  H   UNL     1      -0.211  10.130  16.928  0.00  0.00    +0.000 HD
ATOM     10  H   UNL     1      -1.751  10.522  16.377  0.00  0.00    +0.000 HD
ENDBRANCH   6   8
BRANCH   2  11
ATOM     11  C   UNL     1       0.102  11.841  21.667  0.00  0.00    +0.000 C 
ATOM     12  O   UNL     1       1.194  12.357  21.529  0.00  0.00    +0.000 OA
BRANCH  11  14
ATOM     13  C   UNL     1      -0.380  10.017  23.018  0.00  0.00    +0.000 C 
ATOM     14  O   UNL     1      -0.423  11.434  22.854  0.00  0.00    +0.000 OA
ENDBRANCH  11  14
ENDBRANCH   2  11
ENDBRANCH   1   7
BRANCH   1  15
ATOM     15  N   UNL     1       0.897   8.603  19.464  0.00  0.00    +0.000 NA
ATOM     16  C   UNL     1       1.662   8.074  20.622  0.00  0.00    +0.000 C 
ATOM     17  C   UNL     1       2.012   6.537  20.474  0.00  0.00    +0.000 C 
ATOM     18  N   UNL     1       2.855   6.279  19.276  0.00  0.00    +0.000 N 
ATOM     19  C   UNL     1       2.898   7.406  18.330  0.00  0.00    +0.000 C 
ATOM     20  C   UNL     1       1.511   8.085  18.197  0.00  0.00    +0.000 C 
BRANCH  18  21
ATOM     21  C   UNL     1       2.941   5.012  18.671  0.00  0.00    +0.000 A 
ATOM     22  C   UNL     1       3.929   4.627  17.734  0.00  0.00    +0.000 A 
ATOM     23  C   UNL     1       5.060   5.480  17.221  0.00  0.00    +0.000 C 
ATOM     24  C   UNL     1       3.961   3.302  17.227  0.00  0.00    +0.000 A 
ATOM     25  C   UNL     1       3.045   2.346  17.617  0.00  0.00    +0.000 A 
ATOM     26  C   UNL     1       2.077   2.691  18.550  0.00  0.00    +0.000 A 
ATOM     27  C   UNL     1       2.028   3.990  19.095  0.00  0.00    +0.000 A 
ATOM     28  C   UNL     1       0.938   4.230  20.107  0.00  0.00    +0.000 C 
ENDBRANCH  18  21
ENDBRANCH   1  15
TORSDOF 6
ENDMDL
MODEL 8
REMARK VINA RESULT:      -6.1      1.577      2.036
REMARK  Name = 
REMARK  9 active torsions:
REMARK  status: ('A' for Active; 'I' for Inactive)
REMARK    1  A    between atoms: C_1  and  O_2
REMARK    2  A    between atoms: O_2  and  C_3
REMARK    3  A    between atoms: C_3  and  C_5
REMARK    4  A    between atoms: C_9  and  N_10
REMARK    5  A    between atoms: C_11  and  C_12
REMARK    6  A    between atoms: C_12  and  N_13
REMARK    7  A    between atoms: N_16  and  C_17
REMARK    8  A    between atoms: C_18  and  C_19
REMARK    9  A    between atoms: C_23  and  C_24
REMARK                            x       y       z     vdW  Elec       q    Type
REMARK                         _______ _______ _______ _____ _____    ______ ____
ROOT
ATOM      1  C   UNL     1       2.619   6.195  19.841  0.00  0.00    +0.000 C 
ENDROOT
BRANCH   1   7
ATOM      2  C   UNL     1       3.508   4.626  18.017  0.00  0.00    +0.000 A 
ATOM      3  C   UNL     1       3.483   3.400  17.320  0.00  0.00    +0.000 A 
ATOM      4  C   UNL     1       2.513   2.451  17.599  0.00  0.00    +0.000 A 
ATOM      5  C   UNL     1       1.557   2.716  18.571  0.00  0.00    +0.000 A 
ATOM      6  C   UNL     1       1.513   3.958  19.238  0.00  0.00    +0.000 A 
ATOM      7  C   UNL     1       2.519   4.934  18.987  0.00  0.00    +0.000 A 
BRANCH   6   8
ATOM      8  N   UNL     1       0.626   4.060  20.327  0.00  0.00    +0.000 N 
ATOM      9  H   UNL     1       0.328   5.011  20.526  0.00  0.00    +0.000 HD
ATOM     10  H   UNL     1       0.965   3.590  21.162  0.00  0.00    +0.000 HD
ENDBRANCH   6   8
BRANCH   2  11
ATOM     11  C   UNL     1       4.704   5.492  17.802  0.00  0.00    +0.000 C 
ATOM     12  O   UNL     1       5.763   5.390  18.388  0.00  0.00    +0.000 OA
BRANCH  11  14
ATOM     13  C   UNL     1       5.283   6.236  15.682  0.00  0.00    +0.000 C 
ATOM     14  O   UNL     1       4.439   6.397  16.821  0.00  0.00    +0.000 OA
ENDBRANCH  11  14
ENDBRANCH   2  11
ENDBRANCH   1   7
BRANCH   1  15
ATOM     15  N   UNL     1       1.584   7.256  19.754  0.00  0.00    +0.000 NA
ATOM     16  C   UNL     1       1.895   8.445  18.920  0.00  0.00    +0.000 C 
ATOM     17  C   UNL     1       0.894   9.647  19.171  0.00  0.00    +0.000 C 
ATOM     18  N   UNL     1       0.940  10.115  20.581  0.00  0.00    +0.000 N 
ATOM     19  C   UNL     1       1.622   9.179  21.492  0.00  0.00    +0.000 C 
ATOM     20  C   UNL     1       1.278   7.707  21.151  0.00  0.00    +0.000 C 
BRANCH  18  21
ATOM     21  C   UNL     1      -0.113  10.834  21.174  0.00  0.00    +0.000 A 
ATOM     22  C   UNL     1      -0.638  10.587  22.465  0.00  0.00    +0.000 A 
ATOM     23  C   UNL     1      -0.173   9.532  23.435  0.00  0.00    +0.000 C 
ATOM     24  C   UNL     1      -1.664  11.412  22.994  0.00  0.00    +0.000 A 
ATOM     25  C   UNL     1      -2.188  12.473  22.285  0.00  0.00    +0.000 A 
ATOM     26  C   UNL     1      -1.678  12.751  21.024  0.00  0.00    +0.000 A 
ATOM     27  C   UNL     1      -0.642  11.969  20.475  0.00  0.00    +0.000 A 
ATOM     28  C   UNL     1      -0.170  12.385  19.106  0.00  0.00    +0.000 C 
ENDBRANCH  18  21
ENDBRANCH   1  15
TORSDOF 6
ENDMDL
MODEL 9
REMARK VINA RESULT:      -6.1      2.912      8.133
REMARK  Name = 
REMARK  9 active torsions:
REMARK  status: ('A' for Active; 'I' for Inactive)
REMARK    1  A    between atoms: C_1  and  O_2
REMARK    2  A    between atoms: O_2  and  C_3
REMARK    3  A    between atoms: C_3  and  C_5
REMARK    4  A    between atoms: C_9  and  N_10
REMARK    5  A    between atoms: C_11  and  C_12
REMARK    6  A    between atoms: C_12  and  N_13
REMARK    7  A    between atoms: N_16  and  C_17
REMARK    8  A    between atoms: C_18  and  C_19
REMARK    9  A    between atoms: C_23  and  C_24
REMARK                            x       y       z     vdW  Elec       q    Type
REMARK                         _______ _______ _______ _____ _____    ______ ____
ROOT
ATOM      1  C   UNL     1       0.683  10.392  18.716  0.00  0.00    +0.000 C 
ENDROOT
BRANCH   1   7
ATOM      2  C   UNL     1      -1.041  11.764  20.031  0.00  0.00    +0.000 A 
ATOM      3  C   UNL     1      -2.331  12.317  20.176  0.00  0.00    +0.000 A 
ATOM      4  C   UNL     1      -3.323  12.045  19.248  0.00  0.00    +0.000 A 
ATOM      5  C   UNL     1      -3.041  11.215  18.170  0.00  0.00    +0.000 A 
ATOM      6  C   UNL     1      -1.784  10.591  18.032  0.00  0.00    +0.000 A 
ATOM      7  C   UNL     1      -0.742  10.883  18.958  0.00  0.00    +0.000 A 
BRANCH   6   8
ATOM      8  N   UNL     1      -1.540   9.921  16.818  0.00  0.00    +0.000 N 
ATOM      9  H   UNL     1      -0.572   9.965  16.512  0.00  0.00    +0.000 HD
ATOM     10  H   UNL     1      -2.180  10.193  16.077  0.00  0.00    +0.000 HD
ENDBRANCH   6   8
BRANCH   2  11
ATOM     11  C   UNL     1       0.013  12.276  20.953  0.00  0.00    +0.000 C 
ATOM     12  O   UNL     1       0.375  11.737  21.980  0.00  0.00    +0.000 OA
BRANCH  11  14
ATOM     13  C   UNL     1       1.341  14.126  21.400  0.00  0.00    +0.000 C 
ATOM     14  O   UNL     1       0.534  13.428  20.451  0.00  0.00    +0.000 OA
ENDBRANCH  11  14
ENDBRANCH   2  11
ENDBRANCH   1   7
BRANCH   1  15
ATOM     15  N   UNL     1       1.010   8.946  18.791  0.00  0.00    +0.000 NA
ATOM     16  C   UNL     1       1.746   8.473  19.991  0.00  0.00    +0.000 C 
ATOM     17  C   UNL     1       2.340   7.016  19.811  0.00  0.00    +0.000 C 
ATOM     18  N   UNL     1       3.311   6.953  18.687  0.00  0.00    +0.000 N 
ATOM     19  C   UNL     1       3.261   8.126  17.797  0.00  0.00    +0.000 C 
ATOM     20  C   UNL     1       1.803   8.596  17.565  0.00  0.00    +0.000 C 
BRANCH  18  21
ATOM     21  C   UNL     1       3.642   5.749  18.039  0.00  0.00    +0.000 A 
ATOM     22  C   UNL     1       2.726   4.713  17.738  0.00  0.00    +0.000 A 
ATOM     23  C   UNL     1       1.251   4.704  18.040  0.00  0.00    +0.000 C 
ATOM     24  C   UNL     1       3.152   3.563  17.026  0.00  0.00    +0.000 A 
ATOM     25  C   UNL     1       4.457   3.404  16.604  0.00  0.00    +0.000 A 
ATOM     26  C   UNL     1       5.371   4.414  16.869  0.00  0.00    +0.000 A 
ATOM     27  C   UNL     1       4.980   5.583  17.552  0.00  0.00    +0.000 A 
ATOM     28  C   UNL     1       6.066   6.607  17.763  0.00  0.00    +0.000 C 
ENDBRANCH  18  21
ENDBRANCH   1  15
TORSDOF 6
ENDMDL
