MODEL 1
REMARK VINA RESULT:      -9.4      0.000      0.000
REMARK  Name = 
REMARK  8 active torsions:
REMARK  status: ('A' for Active; 'I' for Inactive)
REMARK    1  A    between atoms: C_1  and  C_2
REMARK    2  A    between atoms: C_4  and  C_5
REMARK    3  A    between atoms: C_6  and  N_7
REMARK    4  A    between atoms: C_11  and  S_12
REMARK    5  A    between atoms: S_12  and  C_13
REMARK    6  A    between atoms: C_13  and  C_14
REMARK    7  A    between atoms: C_14  and  C_16
REMARK    8  A    between atoms: C_25  and  C_26
REMARK                            x       y       z     vdW  Elec       q    Type
REMARK                         _______ _______ _______ _____ _____    ______ ____
ROOT
ATOM      1  N   UNL     1       2.591   4.324  18.440  0.00  0.00    +0.000 N 
ATOM      2  N   UNL     1       1.635   3.723  17.685  0.00  0.00    +0.000 NA
ATOM      3  N   UNL     1       2.218   2.691  17.122  0.00  0.00    +0.000 NA
ATOM      4  N   UNL     1       3.482   2.535  17.498  0.00  0.00    +0.000 NA
ATOM      5  C   UNL     1       3.737   3.543  18.337  0.00  0.00    +0.000 A 
ENDROOT
BRANCH   1  11
ATOM      6  C   UNL     1       0.978   9.145  21.252  0.00  0.00    +0.000 C 
ATOM      7  C   UNL     1       1.484   7.922  20.549  0.00  0.00    +0.000 A 
ATOM      8  C   UNL     1       2.142   7.991  19.325  0.00  0.00    +0.000 A 
ATOM      9  C   UNL     1       2.562   6.826  18.638  0.00  0.00    +0.000 A 
ATOM     10  C   UNL     1       3.259   7.068  17.320  0.00  0.00    +0.000 C 
ATOM     11  C   UNL     1       2.300   5.529  19.206  0.00  0.00    +0.000 A 
ATOM     12  C   UNL     1       1.763   5.489  20.511  0.00  0.00    +0.000 A 
ATOM     13  C   UNL     1       1.744   4.285  21.413  0.00  0.00    +0.000 C 
ATOM     14  C   UNL     1       1.319   6.668  21.133  0.00  0.00    +0.000 A 
ENDBRANCH   1  11
BRANCH   5  15
ATOM     15  S   UNL     1       5.173   3.605  19.297  0.00  0.00    +0.000 S 
BRANCH  15  16
ATOM     16  C   UNL     1       6.075   5.013  18.561  0.00  0.00    +0.000 C 
BRANCH  16  17
ATOM     17  C   UNL     1       7.229   4.623  17.648  0.00  0.00    +0.000 C 
ATOM     18  O   UNL     1       8.332   4.351  18.014  0.00  0.00    +0.000 OA
BRANCH  17  19
ATOM     19  C   UNL     1       6.872   4.537  16.234  0.00  0.00    +0.000 A 
ATOM     20  C   UNL     1       5.953   3.741  15.578  0.00  0.00    +0.000 A 
ATOM     21  C   UNL     1       6.125   3.988  14.192  0.00  0.00    +0.000 A 
ATOM     22  C   UNL     1       5.542   3.561  12.992  0.00  0.00    +0.000 A 
ATOM     23  C   UNL     1       6.352   3.541  11.863  0.00  0.00    +0.000 A 
ATOM     24  C   UNL     1       7.426   4.419  11.795  0.00  0.00    +0.000 A 
ATOM     25  C   UNL     1       7.762   5.238  12.879  0.00  0.00    +0.000 A 
ATOM     26  C   UNL     1       7.180   4.880  14.087  0.00  0.00    +0.000 A 
ATOM     27  O   UNL     1       7.554   5.310  15.319  0.00  0.00    +0.000 OA
ENDBRANCH  17  19
ENDBRANCH  16  17
ENDBRANCH  15  16
ENDBRANCH   5  15
TORSDOF 5
ENDMDL
MODEL 2
REMARK VINA RESULT:      -8.9      0.312      1.705
REMARK  Name = 
REMARK  8 active torsions:
REMARK  status: ('A' for Active; 'I' for Inactive)
REMARK    1  A    between atoms: C_1  and  C_2
REMARK    2  A    between atoms: C_4  and  C_5
REMARK    3  A    between atoms: C_6  and  N_7
REMARK    4  A    between atoms: C_11  and  S_12
REMARK    5  A    between atoms: S_12  and  C_13
REMARK    6  A    between atoms: C_13  and  C_14
REMARK    7  A    between atoms: C_14  and  C_16
REMARK    8  A    between atoms: C_25  and  C_26
REMARK                            x       y       z     vdW  Elec       q    Type
REMARK                         _______ _______ _______ _____ _____    ______ ____
ROOT
ATOM      1  N   UNL     1       2.683   4.171  18.379  0.00  0.00    +0.000 N 
ATOM      2  N   UNL     1       1.825   3.473  17.590  0.00  0.00    +0.000 NA
ATOM      3  N   UNL     1       2.529   2.494  17.073  0.00  0.00    +0.000 NA
ATOM      4  N   UNL     1       3.782   2.462  17.510  0.00  0.00    +0.000 NA
ATOM      5  C   UNL     1       3.900   3.500  18.343  0.00  0.00    +0.000 A 
ENDROOT
BRANCH   1  11
ATOM      6  C   UNL     1       1.346   8.824  21.591  0.00  0.00    +0.000 C 
ATOM      7  C   UNL     1       1.600   7.621  20.735  0.00  0.00    +0.000 A 
ATOM      8  C   UNL     1       1.174   6.348  21.102  0.00  0.00    +0.000 A 
ATOM      9  C   UNL     1       1.472   5.207  20.318  0.00  0.00    +0.000 A 
ATOM     10  C   UNL     1       0.942   3.897  20.854  0.00  0.00    +0.000 C 
ATOM     11  C   UNL     1       2.244   5.352  19.111  0.00  0.00    +0.000 A 
ATOM     12  C   UNL     1       2.539   6.665  18.684  0.00  0.00    +0.000 A 
ATOM     13  C   UNL     1       3.008   7.053  17.309  0.00  0.00    +0.000 C 
ATOM     14  C   UNL     1       2.265   7.762  19.519  0.00  0.00    +0.000 A 
ENDBRANCH   1  11
BRANCH   5  15
ATOM     15  S   UNL     1       5.276   3.710  19.369  0.00  0.00    +0.000 S 
BRANCH  15  16
ATOM     16  C   UNL     1       6.170   5.077  18.551  0.00  0.00    +0.000 C 
BRANCH  16  17
ATOM     17  C   UNL     1       7.301   4.638  17.632  0.00  0.00    +0.000 C 
ATOM     18  O   UNL     1       8.398   4.334  17.991  0.00  0.00    +0.000 OA
BRANCH  17  19
ATOM     19  C   UNL     1       6.929   4.550  16.222  0.00  0.00    +0.000 A 
ATOM     20  C   UNL     1       6.008   3.748  15.577  0.00  0.00    +0.000 A 
ATOM     21  C   UNL     1       6.162   3.995  14.189  0.00  0.00    +0.000 A 
ATOM     22  C   UNL     1       5.568   3.565  12.996  0.00  0.00    +0.000 A 
ATOM     23  C   UNL     1       6.365   3.550  11.858  0.00  0.00    +0.000 A 
ATOM     24  C   UNL     1       7.431   4.437  11.777  0.00  0.00    +0.000 A 
ATOM     25  C   UNL     1       7.774   5.258  12.857  0.00  0.00    +0.000 A 
ATOM     26  C   UNL     1       7.209   4.896  14.072  0.00  0.00    +0.000 A 
ATOM     27  O   UNL     1       7.594   5.329  15.299  0.00  0.00    +0.000 OA
ENDBRANCH  17  19
ENDBRANCH  16  17
ENDBRANCH  15  16
ENDBRANCH   5  15
TORSDOF 5
ENDMDL
MODEL 3
REMARK VINA RESULT:      -8.5      1.031      1.134
REMARK  Name = 
REMARK  8 active torsions:
REMARK  status: ('A' for Active; 'I' for Inactive)
REMARK    1  A    between atoms: C_1  and  C_2
REMARK    2  A    between atoms: C_4  and  C_5
REMARK    3  A    between atoms: C_6  and  N_7
REMARK    4  A    between atoms: C_11  and  S_12
REMARK    5  A    between atoms: S_12  and  C_13
REMARK    6  A    between atoms: C_13  and  C_14
REMARK    7  A    between atoms: C_14  and  C_16
REMARK    8  A    between atoms: C_25  and  C_26
REMARK                            x       y       z     vdW  Elec       q    Type
REMARK                         _______ _______ _______ _____ _____    ______ ____
ROOT
ATOM      1  N   UNL     1       2.992   4.834  18.390  0.00  0.00    +0.000 N 
ATOM      2  N   UNL     1       2.130   3.998  17.754  0.00  0.00    +0.000 NA
ATOM      3  N   UNL     1       2.875   3.078  17.188  0.00  0.00    +0.000 NA
ATOM      4  N   UNL     1       4.169   3.216  17.453  0.00  0.00    +0.000 NA
ATOM      5  C   UNL     1       4.267   4.306  18.219  0.00  0.00    +0.000 A 
ENDROOT
BRANCH   1  11
ATOM      6  C   UNL     1       0.630   9.423  21.059  0.00  0.00    +0.000 C 
ATOM      7  C   UNL     1       1.324   8.272  20.396  0.00  0.00    +0.000 A 
ATOM      8  C   UNL     1       2.012   8.415  19.194  0.00  0.00    +0.000 A 
ATOM      9  C   UNL     1       2.613   7.310  18.543  0.00  0.00    +0.000 A 
ATOM     10  C   UNL     1       3.318   7.629  17.246  0.00  0.00    +0.000 C 
ATOM     11  C   UNL     1       2.510   5.996  19.125  0.00  0.00    +0.000 A 
ATOM     12  C   UNL     1       1.936   5.900  20.410  0.00  0.00    +0.000 A 
ATOM     13  C   UNL     1       2.049   4.716  21.332  0.00  0.00    +0.000 C 
ATOM     14  C   UNL     1       1.311   7.014  20.996  0.00  0.00    +0.000 A 
ENDBRANCH   1  11
BRANCH   5  15
ATOM     15  S   UNL     1       5.727   4.731  19.040  0.00  0.00    +0.000 S 
BRANCH  15  16
ATOM     16  C   UNL     1       6.952   4.736  17.684  0.00  0.00    +0.000 C 
BRANCH  16  17
ATOM     17  C   UNL     1       6.694   5.770  16.597  0.00  0.00    +0.000 C 
ATOM     18  O   UNL     1       6.793   6.952  16.737  0.00  0.00    +0.000 OA
BRANCH  17  19
ATOM     19  C   UNL     1       6.363   5.201  15.293  0.00  0.00    +0.000 A 
ATOM     20  C   UNL     1       5.229   4.548  14.851  0.00  0.00    +0.000 A 
ATOM     21  C   UNL     1       5.512   4.098  13.536  0.00  0.00    +0.000 A 
ATOM     22  C   UNL     1       4.839   3.409  12.519  0.00  0.00    +0.000 A 
ATOM     23  C   UNL     1       5.609   2.638  11.657  0.00  0.00    +0.000 A 
ATOM     24  C   UNL     1       6.933   2.996  11.441  0.00  0.00    +0.000 A 
ATOM     25  C   UNL     1       7.525   4.044  12.154  0.00  0.00    +0.000 A 
ATOM     26  C   UNL     1       6.825   4.458  13.279  0.00  0.00    +0.000 A 
ATOM     27  O   UNL     1       7.304   5.232  14.286  0.00  0.00    +0.000 OA
ENDBRANCH  17  19
ENDBRANCH  16  17
ENDBRANCH  15  16
ENDBRANCH   5  15
TORSDOF 5
ENDMDL
MODEL 4
REMARK VINA RESULT:      -7.5      3.018      8.128
REMARK  Name = 
REMARK  8 active torsions:
REMARK  status: ('A' for Active; 'I' for Inactive)
REMARK    1  A    between atoms: C_1  and  C_2
REMARK    2  A    between atoms: C_4  and  C_5
REMARK    3  A    between atoms: C_6  and  N_7
REMARK    4  A    between atoms: C_11  and  S_12
REMARK    5  A    between atoms: S_12  and  C_13
REMARK    6  A    between atoms: C_13  and  C_14
REMARK    7  A    between atoms: C_14  and  C_16
REMARK    8  A    between atoms: C_25  and  C_26
REMARK                            x       y       z     vdW  Elec       q    Type
REMARK                         _______ _______ _______ _____ _____    ______ ____
ROOT
ATOM      1  N   UNL     1       4.100   3.232  19.574  0.00  0.00    +0.000 N 
ATOM      2  N   UNL     1       4.735   2.198  20.183  0.00  0.00    +0.000 NA
ATOM      3  N   UNL     1       4.060   1.958  21.282  0.00  0.00    +0.000 NA
ATOM      4  N   UNL     1       2.986   2.727  21.414  0.00  0.00    +0.000 NA
ATOM      5  C   UNL     1       2.981   3.529  20.346  0.00  0.00    +0.000 A 
ENDROOT
BRANCH   1  11
ATOM      6  C   UNL     1       6.399   5.051  14.558  0.00  0.00    +0.000 C 
ATOM      7  C   UNL     1       5.769   4.668  15.863  0.00  0.00    +0.000 A 
ATOM      8  C   UNL     1       6.264   5.114  17.084  0.00  0.00    +0.000 A 
ATOM      9  C   UNL     1       5.700   4.698  18.315  0.00  0.00    +0.000 A 
ATOM     10  C   UNL     1       6.355   5.268  19.552  0.00  0.00    +0.000 C 
ATOM     11  C   UNL     1       4.589   3.783  18.317  0.00  0.00    +0.000 A 
ATOM     12  C   UNL     1       4.013   3.460  17.070  0.00  0.00    +0.000 A 
ATOM     13  C   UNL     1       2.662   2.828  16.867  0.00  0.00    +0.000 C 
ATOM     14  C   UNL     1       4.635   3.858  15.874  0.00  0.00    +0.000 A 
ENDBRANCH   1  11
BRANCH   5  15
ATOM     15  S   UNL     1       1.625   4.520  19.940  0.00  0.00    +0.000 S 
BRANCH  15  16
ATOM     16  C   UNL     1       2.030   6.097  20.768  0.00  0.00    +0.000 C 
BRANCH  16  17
ATOM     17  C   UNL     1       2.070   7.309  19.846  0.00  0.00    +0.000 C 
ATOM     18  O   UNL     1       2.729   7.394  18.854  0.00  0.00    +0.000 OA
BRANCH  17  19
ATOM     19  C   UNL     1       1.166   8.388  20.233  0.00  0.00    +0.000 A 
ATOM     20  C   UNL     1       0.857   9.580  19.608  0.00  0.00    +0.000 A 
ATOM     21  C   UNL     1       0.020  10.297  20.501  0.00  0.00    +0.000 A 
ATOM     22  C   UNL     1      -0.660  11.522  20.513  0.00  0.00    +0.000 A 
ATOM     23  C   UNL     1      -0.852  12.129  21.748  0.00  0.00    +0.000 A 
ATOM     24  C   UNL     1      -0.918  11.331  22.883  0.00  0.00    +0.000 A 
ATOM     25  C   UNL     1      -0.688   9.953  22.813  0.00  0.00    +0.000 A 
ATOM     26  C   UNL     1      -0.085   9.517  21.641  0.00  0.00    +0.000 A 
ATOM     27  O   UNL     1       0.502   8.310  21.439  0.00  0.00    +0.000 OA
ENDBRANCH  17  19
ENDBRANCH  16  17
ENDBRANCH  15  16
ENDBRANCH   5  15
TORSDOF 5
ENDMDL
MODEL 5
REMARK VINA RESULT:      -7.5      0.855      1.976
REMARK  Name = 
REMARK  8 active torsions:
REMARK  status: ('A' for Active; 'I' for Inactive)
REMARK    1  A    between atoms: C_1  and  C_2
REMARK    2  A    between atoms: C_4  and  C_5
REMARK    3  A    between atoms: C_6  and  N_7
REMARK    4  A    between atoms: C_11  and  S_12
REMARK    5  A    between atoms: S_12  and  C_13
REMARK    6  A    between atoms: C_13  and  C_14
REMARK    7  A    between atoms: C_14  and  C_16
REMARK    8  A    between atoms: C_25  and  C_26
REMARK                            x       y       z     vdW  Elec       q    Type
REMARK                         _______ _______ _______ _____ _____    ______ ____
ROOT
ATOM      1  N   UNL     1       2.807   4.302  18.534  0.00  0.00    +0.000 N 
ATOM      2  N   UNL     1       1.982   3.360  18.006  0.00  0.00    +0.000 NA
ATOM      3  N   UNL     1       2.766   2.473  17.440  0.00  0.00    +0.000 NA
ATOM      4  N   UNL     1       4.057   2.735  17.605  0.00  0.00    +0.000 NA
ATOM      5  C   UNL     1       4.109   3.873  18.302  0.00  0.00    +0.000 A 
ENDROOT
BRANCH   1  11
ATOM      6  C   UNL     1       1.106   8.916  21.628  0.00  0.00    +0.000 C 
ATOM      7  C   UNL     1       1.454   7.714  20.804  0.00  0.00    +0.000 A 
ATOM      8  C   UNL     1       1.142   6.421  21.212  0.00  0.00    +0.000 A 
ATOM      9  C   UNL     1       1.529   5.287  20.457  0.00  0.00    +0.000 A 
ATOM     10  C   UNL     1       1.119   3.953  21.036  0.00  0.00    +0.000 C 
ATOM     11  C   UNL     1       2.274   5.462  19.237  0.00  0.00    +0.000 A 
ATOM     12  C   UNL     1       2.453   6.782  18.770  0.00  0.00    +0.000 A 
ATOM     13  C   UNL     1       2.873   7.168  17.378  0.00  0.00    +0.000 C 
ATOM     14  C   UNL     1       2.093   7.876  19.576  0.00  0.00    +0.000 A 
ENDBRANCH   1  11
BRANCH   5  15
ATOM     15  S   UNL     1       5.578   4.467  18.994  0.00  0.00    +0.000 S 
BRANCH  15  16
ATOM     16  C   UNL     1       6.270   5.476  17.637  0.00  0.00    +0.000 C 
BRANCH  16  17
ATOM     17  C   UNL     1       7.182   4.718  16.681  0.00  0.00    +0.000 C 
ATOM     18  O   UNL     1       8.256   4.279  16.962  0.00  0.00    +0.000 OA
BRANCH  17  19
ATOM     19  C   UNL     1       6.611   4.497  15.355  0.00  0.00    +0.000 A 
ATOM     20  C   UNL     1       5.298   4.459  14.929  0.00  0.00    +0.000 A 
ATOM     21  C   UNL     1       5.330   4.076  13.564  0.00  0.00    +0.000 A 
ATOM     22  C   UNL     1       4.404   3.867  12.533  0.00  0.00    +0.000 A 
ATOM     23  C   UNL     1       4.739   2.936  11.558  0.00  0.00    +0.000 A 
ATOM     24  C   UNL     1       6.081   2.699  11.292  0.00  0.00    +0.000 A 
ATOM     25  C   UNL     1       7.088   3.298  12.058  0.00  0.00    +0.000 A 
ATOM     26  C   UNL     1       6.662   3.851  13.258  0.00  0.00    +0.000 A 
ATOM     27  O   UNL     1       7.452   4.222  14.298  0.00  0.00    +0.000 OA
ENDBRANCH  17  19
ENDBRANCH  16  17
ENDBRANCH  15  16
ENDBRANCH   5  15
TORSDOF 5
ENDMDL
MODEL 6
REMARK VINA RESULT:      -7.5      5.083      6.616
REMARK  Name = 
REMARK  8 active torsions:
REMARK  status: ('A' for Active; 'I' for Inactive)
REMARK    1  A    between atoms: C_1  and  C_2
REMARK    2  A    between atoms: C_4  and  C_5
REMARK    3  A    between atoms: C_6  and  N_7
REMARK    4  A    between atoms: C_11  and  S_12
REMARK    5  A    between atoms: S_12  and  C_13
REMARK    6  A    between atoms: C_13  and  C_14
REMARK    7  A    between atoms: C_14  and  C_16
REMARK    8  A    between atoms: C_25  and  C_26
REMARK                            x       y       z     vdW  Elec       q    Type
REMARK                         _______ _______ _______ _____ _____    ______ ____
ROOT
ATOM      1  N   UNL     1       5.370   5.411  16.776  0.00  0.00    +0.000 N 
ATOM      2  N   UNL     1       5.379   5.163  15.440  0.00  0.00    +0.000 NA
ATOM      3  N   UNL     1       6.584   5.472  15.025  0.00  0.00    +0.000 NA
ATOM      4  N   UNL     1       7.393   5.855  16.005  0.00  0.00    +0.000 NA
ATOM      5  C   UNL     1       6.657   5.813  17.119  0.00  0.00    +0.000 A 
ENDROOT
BRANCH   1  11
ATOM      6  C   UNL     1       0.902   4.500  20.375  0.00  0.00    +0.000 C 
ATOM      7  C   UNL     1       1.998   4.709  19.375  0.00  0.00    +0.000 A 
ATOM      8  C   UNL     1       2.666   3.646  18.775  0.00  0.00    +0.000 A 
ATOM      9  C   UNL     1       3.742   3.852  17.877  0.00  0.00    +0.000 A 
ATOM     10  C   UNL     1       4.364   2.596  17.314  0.00  0.00    +0.000 C 
ATOM     11  C   UNL     1       4.173   5.193  17.576  0.00  0.00    +0.000 A 
ATOM     12  C   UNL     1       3.391   6.254  18.081  0.00  0.00    +0.000 A 
ATOM     13  C   UNL     1       3.444   7.681  17.609  0.00  0.00    +0.000 C 
ATOM     14  C   UNL     1       2.362   6.002  19.005  0.00  0.00    +0.000 A 
ENDBRANCH   1  11
BRANCH   5  15
ATOM     15  S   UNL     1       7.353   5.965  18.693  0.00  0.00    +0.000 S 
BRANCH  15  16
ATOM     16  C   UNL     1       8.482   7.387  18.487  0.00  0.00    +0.000 C 
BRANCH  16  17
ATOM     17  C   UNL     1       7.834   8.635  17.904  0.00  0.00    +0.000 C 
ATOM     18  O   UNL     1       6.857   8.644  17.218  0.00  0.00    +0.000 OA
BRANCH  17  19
ATOM     19  C   UNL     1       8.474   9.886  18.304  0.00  0.00    +0.000 A 
ATOM     20  C   UNL     1       8.497  11.126  17.698  0.00  0.00    +0.000 A 
ATOM     21  C   UNL     1       9.380  11.931  18.462  0.00  0.00    +0.000 A 
ATOM     22  C   UNL     1       9.846  13.251  18.440  0.00  0.00    +0.000 A 
ATOM     23  C   UNL     1      11.119  13.484  18.946  0.00  0.00    +0.000 A 
ATOM     24  C   UNL     1      11.620  12.628  19.919  0.00  0.00    +0.000 A 
ATOM     25  C   UNL     1      10.912  11.487  20.312  0.00  0.00    +0.000 A 
ATOM     26  C   UNL     1       9.884  11.110  19.458  0.00  0.00    +0.000 A 
ATOM     27  O   UNL     1       9.248   9.911  19.444  0.00  0.00    +0.000 OA
ENDBRANCH  17  19
ENDBRANCH  16  17
ENDBRANCH  15  16
ENDBRANCH   5  15
TORSDOF 5
ENDMDL
MODEL 7
REMARK VINA RESULT:      -7.4      3.652      4.949
REMARK  Name = 
REMARK  8 active torsions:
REMARK  status: ('A' for Active; 'I' for Inactive)
REMARK    1  A    between atoms: C_1  and  C_2
REMARK    2  A    between atoms: C_4  and  C_5
REMARK    3  A    between atoms: C_6  and  N_7
REMARK    4  A    between atoms: C_11  and  S_12
REMARK    5  A    between atoms: S_12  and  C_13
REMARK    6  A    between atoms: C_13  and  C_14
REMARK    7  A    between atoms: C_14  and  C_16
REMARK    8  A    between atoms: C_25  and  C_26
REMARK                            x       y       z     vdW  Elec       q    Type
REMARK                         _______ _______ _______ _____ _____    ______ ____
ROOT
ATOM      1  N   UNL     1       3.370   5.116  18.323  0.00  0.00    +0.000 N 
ATOM      2  N   UNL     1       2.701   4.303  17.465  0.00  0.00    +0.000 NA
ATOM      3  N   UNL     1       3.620   3.612  16.833  0.00  0.00    +0.000 NA
ATOM      4  N   UNL     1       4.852   3.873  17.255  0.00  0.00    +0.000 NA
ATOM      5  C   UNL     1       4.721   4.806  18.201  0.00  0.00    +0.000 A 
ENDROOT
BRANCH   1  11
ATOM      6  C   UNL     1       0.121   8.747  21.486  0.00  0.00    +0.000 C 
ATOM      7  C   UNL     1       1.036   7.854  20.706  0.00  0.00    +0.000 A 
ATOM      8  C   UNL     1       1.729   8.301  19.585  0.00  0.00    +0.000 A 
ATOM      9  C   UNL     1       2.544   7.433  18.817  0.00  0.00    +0.000 A 
ATOM     10  C   UNL     1       3.226   8.070  17.629  0.00  0.00    +0.000 C 
ATOM     11  C   UNL     1       2.660   6.047  19.190  0.00  0.00    +0.000 A 
ATOM     12  C   UNL     1       2.066   5.651  20.408  0.00  0.00    +0.000 A 
ATOM     13  C   UNL     1       2.359   4.375  21.149  0.00  0.00    +0.000 C 
ATOM     14  C   UNL     1       1.229   6.534  21.111  0.00  0.00    +0.000 A 
ENDBRANCH   1  11
BRANCH   5  15
ATOM     15  S   UNL     1       6.028   5.265  19.234  0.00  0.00    +0.000 S 
BRANCH  15  16
ATOM     16  C   UNL     1       7.332   5.721  18.037  0.00  0.00    +0.000 C 
BRANCH  16  17
ATOM     17  C   UNL     1       7.088   7.029  17.298  0.00  0.00    +0.000 C 
ATOM     18  O   UNL     1       6.301   7.181  16.414  0.00  0.00    +0.000 OA
BRANCH  17  19
ATOM     19  C   UNL     1       7.870   8.157  17.801  0.00  0.00    +0.000 A 
ATOM     20  C   UNL     1       8.644   8.288  18.937  0.00  0.00    +0.000 A 
ATOM     21  C   UNL     1       9.062   9.642  18.984  0.00  0.00    +0.000 A 
ATOM     22  C   UNL     1       9.854  10.445  19.815  0.00  0.00    +0.000 A 
ATOM     23  C   UNL     1       9.534  11.795  19.887  0.00  0.00    +0.000 A 
ATOM     24  C   UNL     1       8.907  12.393  18.801  0.00  0.00    +0.000 A 
ATOM     25  C   UNL     1       8.502  11.639  17.694  0.00  0.00    +0.000 A 
ATOM     26  C   UNL     1       8.469  10.267  17.898  0.00  0.00    +0.000 A 
ATOM     27  O   UNL     1       7.849   9.351  17.111  0.00  0.00    +0.000 OA
ENDBRANCH  17  19
ENDBRANCH  16  17
ENDBRANCH  15  16
ENDBRANCH   5  15
TORSDOF 5
ENDMDL
MODEL 8
REMARK VINA RESULT:      -7.4      4.371      6.011
REMARK  Name = 
REMARK  8 active torsions:
REMARK  status: ('A' for Active; 'I' for Inactive)
REMARK    1  A    between atoms: C_1  and  C_2
REMARK    2  A    between atoms: C_4  and  C_5
REMARK    3  A    between atoms: C_6  and  N_7
REMARK    4  A    between atoms: C_11  and  S_12
REMARK    5  A    between atoms: S_12  and  C_13
REMARK    6  A    between atoms: C_13  and  C_14
REMARK    7  A    between atoms: C_14  and  C_16
REMARK    8  A    between atoms: C_25  and  C_26
REMARK                            x       y       z     vdW  Elec       q    Type
REMARK                         _______ _______ _______ _____ _____    ______ ____
ROOT
ATOM      1  N   UNL     1       5.514   4.506  16.876  0.00  0.00    +0.000 N 
ATOM      2  N   UNL     1       5.290   4.001  15.635  0.00  0.00    +0.000 NA
ATOM      3  N   UNL     1       6.474   3.828  15.098  0.00  0.00    +0.000 NA
ATOM      4  N   UNL     1       7.471   4.132  15.921  0.00  0.00    +0.000 NA
ATOM      5  C   UNL     1       6.893   4.548  17.051  0.00  0.00    +0.000 A 
ENDROOT
BRANCH   1  11
ATOM      6  C   UNL     1       1.453   5.852  20.807  0.00  0.00    +0.000 C 
ATOM      7  C   UNL     1       2.431   5.471  19.737  0.00  0.00    +0.000 A 
ATOM      8  C   UNL     1       2.786   4.148  19.494  0.00  0.00    +0.000 A 
ATOM      9  C   UNL     1       3.757   3.802  18.524  0.00  0.00    +0.000 A 
ATOM     10  C   UNL     1       4.033   2.323  18.383  0.00  0.00    +0.000 C 
ATOM     11  C   UNL     1       4.410   4.839  17.766  0.00  0.00    +0.000 A 
ATOM     12  C   UNL     1       3.932   6.157  17.926  0.00  0.00    +0.000 A 
ATOM     13  C   UNL     1       4.214   7.308  17.000  0.00  0.00    +0.000 C 
ATOM     14  C   UNL     1       3.000   6.458  18.934  0.00  0.00    +0.000 A 
ENDBRANCH   1  11
BRANCH   5  15
ATOM     15  S   UNL     1       7.787   4.793  18.510  0.00  0.00    +0.000 S 
BRANCH  15  16
ATOM     16  C   UNL     1       7.514   6.569  18.843  0.00  0.00    +0.000 C 
BRANCH  16  17
ATOM     17  C   UNL     1       7.842   7.493  17.679  0.00  0.00    +0.000 C 
ATOM     18  O   UNL     1       7.744   7.204  16.525  0.00  0.00    +0.000 OA
BRANCH  17  19
ATOM     19  C   UNL     1       8.246   8.839  18.077  0.00  0.00    +0.000 A 
ATOM     20  C   UNL     1       8.085  10.057  17.446  0.00  0.00    +0.000 A 
ATOM     21  C   UNL     1       8.789  11.010  18.227  0.00  0.00    +0.000 A 
ATOM     22  C   UNL     1       9.027  12.390  18.196  0.00  0.00    +0.000 A 
ATOM     23  C   UNL     1      10.221  12.841  18.745  0.00  0.00    +0.000 A 
ATOM     24  C   UNL     1      10.818  12.095  19.754  0.00  0.00    +0.000 A 
ATOM     25  C   UNL     1      10.296  10.857  20.143  0.00  0.00    +0.000 A 
ATOM     26  C   UNL     1       9.382  10.300  19.259  0.00  0.00    +0.000 A 
ATOM     27  O   UNL     1       8.958   9.011  19.245  0.00  0.00    +0.000 OA
ENDBRANCH  17  19
ENDBRANCH  16  17
ENDBRANCH  15  16
ENDBRANCH   5  15
TORSDOF 5
ENDMDL
MODEL 9
REMARK VINA RESULT:      -7.4      5.836      8.180
REMARK  Name = 
REMARK  8 active torsions:
REMARK  status: ('A' for Active; 'I' for Inactive)
REMARK    1  A    between atoms: C_1  and  C_2
REMARK    2  A    between atoms: C_4  and  C_5
REMARK    3  A    between atoms: C_6  and  N_7
REMARK    4  A    between atoms: C_11  and  S_12
REMARK    5  A    between atoms: S_12  and  C_13
REMARK    6  A    between atoms: C_13  and  C_14
REMARK    7  A    between atoms: C_14  and  C_16
REMARK    8  A    between atoms: C_25  and  C_26
REMARK                            x       y       z     vdW  Elec       q    Type
REMARK                         _______ _______ _______ _____ _____    ______ ____
ROOT
ATOM      1  N   UNL     1      -0.625  11.858  20.155  0.00  0.00    +0.000 N 
ATOM      2  N   UNL     1       0.208  12.884  19.840  0.00  0.00    +0.000 NA
ATOM      3  N   UNL     1       1.294  12.696  20.552  0.00  0.00    +0.000 NA
ATOM      4  N   UNL     1       1.259  11.584  21.276  0.00  0.00    +0.000 NA
ATOM      5  C   UNL     1       0.068  11.032  21.034  0.00  0.00    +0.000 A 
ENDROOT
BRANCH   1  11
ATOM      6  C   UNL     1      -5.814  11.881  17.542  0.00  0.00    +0.000 C 
ATOM      7  C   UNL     1      -4.510  11.811  18.277  0.00  0.00    +0.000 A 
ATOM      8  C   UNL     1      -4.334  12.389  19.530  0.00  0.00    +0.000 A 
ATOM      9  C   UNL     1      -3.081  12.372  20.190  0.00  0.00    +0.000 A 
ATOM     10  C   UNL     1      -3.053  13.046  21.542  0.00  0.00    +0.000 C 
ATOM     11  C   UNL     1      -1.949  11.749  19.555  0.00  0.00    +0.000 A 
ATOM     12  C   UNL     1      -2.184  11.045  18.355  0.00  0.00    +0.000 A 
ATOM     13  C   UNL     1      -1.249  10.048  17.728  0.00  0.00    +0.000 C 
ATOM     14  C   UNL     1      -3.432  11.130  17.714  0.00  0.00    +0.000 A 
ENDBRANCH   1  11
BRANCH   5  15
ATOM     15  S   UNL     1      -0.328   9.428  21.541  0.00  0.00    +0.000 S 
BRANCH  15  16
ATOM     16  C   UNL     1       1.293   8.587  21.483  0.00  0.00    +0.000 C 
BRANCH  16  17
ATOM     17  C   UNL     1       1.697   8.077  20.107  0.00  0.00    +0.000 C 
ATOM     18  O   UNL     1       1.745   8.742  19.116  0.00  0.00    +0.000 OA
BRANCH  17  19
ATOM     19  C   UNL     1       2.102   6.674  20.082  0.00  0.00    +0.000 A 
ATOM     20  C   UNL     1       3.156   6.046  19.448  0.00  0.00    +0.000 A 
ATOM     21  C   UNL     1       2.984   4.655  19.665  0.00  0.00    +0.000 A 
ATOM     22  C   UNL     1       3.661   3.472  19.341  0.00  0.00    +0.000 A 
ATOM     23  C   UNL     1       2.896   2.322  19.189  0.00  0.00    +0.000 A 
ATOM     24  C   UNL     1       1.695   2.222  19.881  0.00  0.00    +0.000 A 
ATOM     25  C   UNL     1       1.201   3.294  20.633  0.00  0.00    +0.000 A 
ATOM     26  C   UNL     1       1.800   4.519  20.373  0.00  0.00    +0.000 A 
ATOM     27  O   UNL     1       1.328   5.738  20.735  0.00  0.00    +0.000 OA
ENDBRANCH  17  19
ENDBRANCH  16  17
ENDBRANCH  15  16
ENDBRANCH   5  15
TORSDOF 5
ENDMDL
