MODEL 1
REMARK VINA RESULT:      -8.2      0.000      0.000
REMARK  Name = 
REMARK  5 active torsions:
REMARK  status: ('A' for Active; 'I' for Inactive)
REMARK    1  A    between atoms: C_1  and  C_2
REMARK    2  A    between atoms: C_2  and  C_4
REMARK    3  A    between atoms: C_7  and  N_8
REMARK    4  A    between atoms: C_9  and  C_10
REMARK    5  A    between atoms: C_13  and  C_14
REMARK                            x       y       z     vdW  Elec       q    Type
REMARK                         _______ _______ _______ _____ _____    ______ ____
ROOT
ATOM      1  N   UNL     1       3.593   4.068  19.582  0.00  0.00    +0.000 N 
ATOM      2  C   UNL     1       3.500   2.940  20.412  0.00  0.00    +0.000 A 
ATOM      3  C   UNL     1       4.321   1.696  20.325  0.00  0.00    +0.000 C 
ATOM      4  C   UNL     1       2.579   3.206  21.404  0.00  0.00    +0.000 A 
ATOM      5  C   UNL     1       2.095   4.501  21.205  0.00  0.00    +0.000 A 
ATOM      6  C   UNL     1       2.692   5.041  20.075  0.00  0.00    +0.000 A 
ENDROOT
BRANCH   1  10
ATOM      7  C   UNL     1       6.063   4.648  16.177  0.00  0.00    +0.000 A 
ATOM      8  C   UNL     1       4.875   3.918  16.067  0.00  0.00    +0.000 A 
ATOM      9  C   UNL     1       4.062   3.721  17.191  0.00  0.00    +0.000 A 
ATOM     10  C   UNL     1       4.461   4.198  18.445  0.00  0.00    +0.000 A 
ATOM     11  C   UNL     1       5.692   4.862  18.561  0.00  0.00    +0.000 A 
ATOM     12  C   UNL     1       6.473   5.117  17.425  0.00  0.00    +0.000 A 
BRANCH   7  14
ATOM     13  C   UNL     1       6.472   4.149  13.687  0.00  0.00    +0.000 C 
ATOM     14  C   UNL     1       6.841   4.913  14.935  0.00  0.00    +0.000 C 
ATOM     15  O   UNL     1       7.785   5.695  14.959  0.00  0.00    +0.000 OA
ENDBRANCH   7  14
ENDBRANCH   1  10
BRANCH   6  16
ATOM     16  C   UNL     1       2.379   6.368  19.491  0.00  0.00    +0.000 A 
ATOM     17  C   UNL     1       1.816   7.369  20.302  0.00  0.00    +0.000 A 
ATOM     18  C   UNL     1       1.559   8.649  19.799  0.00  0.00    +0.000 A 
ATOM     19  C   UNL     1       1.883   8.958  18.482  0.00  0.00    +0.000 A 
ATOM     20  C   UNL     1       2.404   7.970  17.652  0.00  0.00    +0.000 A 
ATOM     21  C   UNL     1       2.605   6.674  18.143  0.00  0.00    +0.000 A 
ENDBRANCH   6  16
TORSDOF 3
ENDMDL
MODEL 2
REMARK VINA RESULT:      -8.2      0.314      1.100
REMARK  Name = 
REMARK  5 active torsions:
REMARK  status: ('A' for Active; 'I' for Inactive)
REMARK    1  A    between atoms: C_1  and  C_2
REMARK    2  A    between atoms: C_2  and  C_4
REMARK    3  A    between atoms: C_7  and  N_8
REMARK    4  A    between atoms: C_9  and  C_10
REMARK    5  A    between atoms: C_13  and  C_14
REMARK                            x       y       z     vdW  Elec       q    Type
REMARK                         _______ _______ _______ _____ _____    ______ ____
ROOT
ATOM      1  N   UNL     1       3.511   4.238  19.403  0.00  0.00    +0.000 N 
ATOM      2  C   UNL     1       3.512   3.057  20.162  0.00  0.00    +0.000 A 
ATOM      3  C   UNL     1       4.354   1.846  19.930  0.00  0.00    +0.000 C 
ATOM      4  C   UNL     1       2.665   3.232  21.237  0.00  0.00    +0.000 A 
ATOM      5  C   UNL     1       2.135   4.522  21.161  0.00  0.00    +0.000 A 
ATOM      6  C   UNL     1       2.628   5.150  20.026  0.00  0.00    +0.000 A 
ENDROOT
BRANCH   1  10
ATOM      7  C   UNL     1       5.896   4.722  15.924  0.00  0.00    +0.000 A 
ATOM      8  C   UNL     1       6.290   5.306  17.132  0.00  0.00    +0.000 A 
ATOM      9  C   UNL     1       5.501   5.152  18.280  0.00  0.00    +0.000 A 
ATOM     10  C   UNL     1       4.283   4.466  18.213  0.00  0.00    +0.000 A 
ATOM     11  C   UNL     1       3.858   3.950  16.979  0.00  0.00    +0.000 A 
ATOM     12  C   UNL     1       4.678   4.048  15.846  0.00  0.00    +0.000 A 
BRANCH   7  14
ATOM     13  C   UNL     1       6.510   4.013  13.528  0.00  0.00    +0.000 C 
ATOM     14  C   UNL     1       6.817   4.832  14.758  0.00  0.00    +0.000 C 
ATOM     15  O   UNL     1       7.820   5.533  14.834  0.00  0.00    +0.000 OA
ENDBRANCH   7  14
ENDBRANCH   1  10
BRANCH   6  16
ATOM     16  C   UNL     1       2.237   6.502  19.557  0.00  0.00    +0.000 A 
ATOM     17  C   UNL     1       1.711   7.430  20.473  0.00  0.00    +0.000 A 
ATOM     18  C   UNL     1       1.384   8.732  20.077  0.00  0.00    +0.000 A 
ATOM     19  C   UNL     1       1.599   9.135  18.763  0.00  0.00    +0.000 A 
ATOM     20  C   UNL     1       2.081   8.219  17.833  0.00  0.00    +0.000 A 
ATOM     21  C   UNL     1       2.353   6.901  18.220  0.00  0.00    +0.000 A 
ENDBRANCH   6  16
TORSDOF 3
ENDMDL
MODEL 3
REMARK VINA RESULT:      -8.1      0.319      1.520
REMARK  Name = 
REMARK  5 active torsions:
REMARK  status: ('A' for Active; 'I' for Inactive)
REMARK    1  A    between atoms: C_1  and  C_2
REMARK    2  A    between atoms: C_2  and  C_4
REMARK    3  A    between atoms: C_7  and  N_8
REMARK    4  A    between atoms: C_9  and  C_10
REMARK    5  A    between atoms: C_13  and  C_14
REMARK                            x       y       z     vdW  Elec       q    Type
REMARK                         _______ _______ _______ _____ _____    ______ ____
ROOT
ATOM      1  N   UNL     1       3.497   4.295  19.439  0.00  0.00    +0.000 N 
ATOM      2  C   UNL     1       3.463   3.109  20.189  0.00  0.00    +0.000 A 
ATOM      3  C   UNL     1       4.266   1.874  19.945  0.00  0.00    +0.000 C 
ATOM      4  C   UNL     1       2.628   3.303  21.269  0.00  0.00    +0.000 A 
ATOM      5  C   UNL     1       2.138   4.609  21.205  0.00  0.00    +0.000 A 
ATOM      6  C   UNL     1       2.646   5.230  20.073  0.00  0.00    +0.000 A 
ENDROOT
BRANCH   1  10
ATOM      7  C   UNL     1       5.876   4.727  15.949  0.00  0.00    +0.000 A 
ATOM      8  C   UNL     1       6.312   5.258  17.167  0.00  0.00    +0.000 A 
ATOM      9  C   UNL     1       5.526   5.121  18.318  0.00  0.00    +0.000 A 
ATOM     10  C   UNL     1       4.271   4.508  18.247  0.00  0.00    +0.000 A 
ATOM     11  C   UNL     1       3.806   4.046  17.006  0.00  0.00    +0.000 A 
ATOM     12  C   UNL     1       4.621   4.124  15.867  0.00  0.00    +0.000 A 
BRANCH   7  14
ATOM     13  C   UNL     1       6.459   3.996  13.552  0.00  0.00    +0.000 C 
ATOM     14  C   UNL     1       6.792   4.812  14.777  0.00  0.00    +0.000 C 
ATOM     15  O   UNL     1       7.811   5.490  14.844  0.00  0.00    +0.000 OA
ENDBRANCH   7  14
ENDBRANCH   1  10
BRANCH   6  16
ATOM     16  C   UNL     1       2.296   6.597  19.615  0.00  0.00    +0.000 A 
ATOM     17  C   UNL     1       2.498   6.952  18.270  0.00  0.00    +0.000 A 
ATOM     18  C   UNL     1       2.128   8.214  17.791  0.00  0.00    +0.000 A 
ATOM     19  C   UNL     1       1.528   9.134  18.645  0.00  0.00    +0.000 A 
ATOM     20  C   UNL     1       1.356   8.816  19.988  0.00  0.00    +0.000 A 
ATOM     21  C   UNL     1       1.780   7.574  20.476  0.00  0.00    +0.000 A 
ENDBRANCH   6  16
TORSDOF 3
ENDMDL
MODEL 4
REMARK VINA RESULT:      -8.0      0.223      1.068
REMARK  Name = 
REMARK  5 active torsions:
REMARK  status: ('A' for Active; 'I' for Inactive)
REMARK    1  A    between atoms: C_1  and  C_2
REMARK    2  A    between atoms: C_2  and  C_4
REMARK    3  A    between atoms: C_7  and  N_8
REMARK    4  A    between atoms: C_9  and  C_10
REMARK    5  A    between atoms: C_13  and  C_14
REMARK                            x       y       z     vdW  Elec       q    Type
REMARK                         _______ _______ _______ _____ _____    ______ ____
ROOT
ATOM      1  N   UNL     1       3.544   4.173  19.551  0.00  0.00    +0.000 N 
ATOM      2  C   UNL     1       3.414   3.071  20.410  0.00  0.00    +0.000 A 
ATOM      3  C   UNL     1       4.163   1.783  20.332  0.00  0.00    +0.000 C 
ATOM      4  C   UNL     1       2.536   3.410  21.420  0.00  0.00    +0.000 A 
ATOM      5  C   UNL     1       2.117   4.725  21.202  0.00  0.00    +0.000 A 
ATOM      6  C   UNL     1       2.711   5.205  20.043  0.00  0.00    +0.000 A 
ENDROOT
BRANCH   1  10
ATOM      7  C   UNL     1       5.959   4.547  16.079  0.00  0.00    +0.000 A 
ATOM      8  C   UNL     1       4.688   3.972  15.992  0.00  0.00    +0.000 A 
ATOM      9  C   UNL     1       3.892   3.842  17.137  0.00  0.00    +0.000 A 
ATOM     10  C   UNL     1       4.385   4.230  18.388  0.00  0.00    +0.000 A 
ATOM     11  C   UNL     1       5.692   4.735  18.479  0.00  0.00    +0.000 A 
ATOM     12  C   UNL     1       6.463   4.925  17.323  0.00  0.00    +0.000 A 
BRANCH   7  14
ATOM     13  C   UNL     1       6.337   3.936  13.608  0.00  0.00    +0.000 C 
ATOM     14  C   UNL     1       6.726   4.752  14.818  0.00  0.00    +0.000 C 
ATOM     15  O   UNL     1       7.675   5.527  14.797  0.00  0.00    +0.000 OA
ENDBRANCH   7  14
ENDBRANCH   1  10
BRANCH   6  16
ATOM     16  C   UNL     1       2.454   6.534  19.436  0.00  0.00    +0.000 A 
ATOM     17  C   UNL     1       2.862   6.785  18.114  0.00  0.00    +0.000 A 
ATOM     18  C   UNL     1       2.587   8.006  17.491  0.00  0.00    +0.000 A 
ATOM     19  C   UNL     1       1.877   8.991  18.171  0.00  0.00    +0.000 A 
ATOM     20  C   UNL     1       1.499   8.777  19.493  0.00  0.00    +0.000 A 
ATOM     21  C   UNL     1       1.827   7.575  20.131  0.00  0.00    +0.000 A 
ENDBRANCH   6  16
TORSDOF 3
ENDMDL
MODEL 5
REMARK VINA RESULT:      -8.0      2.943      5.865
REMARK  Name = 
REMARK  5 active torsions:
REMARK  status: ('A' for Active; 'I' for Inactive)
REMARK    1  A    between atoms: C_1  and  C_2
REMARK    2  A    between atoms: C_2  and  C_4
REMARK    3  A    between atoms: C_7  and  N_8
REMARK    4  A    between atoms: C_9  and  C_10
REMARK    5  A    between atoms: C_13  and  C_14
REMARK                            x       y       z     vdW  Elec       q    Type
REMARK                         _______ _______ _______ _____ _____    ______ ____
ROOT
ATOM      1  N   UNL     1       3.129   4.905  18.351  0.00  0.00    +0.000 N 
ATOM      2  C   UNL     1       2.370   3.754  18.089  0.00  0.00    +0.000 A 
ATOM      3  C   UNL     1       0.909   3.572  18.333  0.00  0.00    +0.000 C 
ATOM      4  C   UNL     1       3.184   2.830  17.466  0.00  0.00    +0.000 A 
ATOM      5  C   UNL     1       4.453   3.398  17.330  0.00  0.00    +0.000 A 
ATOM      6  C   UNL     1       4.445   4.668  17.888  0.00  0.00    +0.000 A 
ENDROOT
BRANCH   1  10
ATOM      7  C   UNL     1       1.479   8.391  20.127  0.00  0.00    +0.000 A 
ATOM      8  C   UNL     1       1.957   8.431  18.813  0.00  0.00    +0.000 A 
ATOM      9  C   UNL     1       2.507   7.283  18.228  0.00  0.00    +0.000 A 
ATOM     10  C   UNL     1       2.640   6.105  18.971  0.00  0.00    +0.000 A 
ATOM     11  C   UNL     1       2.229   6.095  20.313  0.00  0.00    +0.000 A 
ATOM     12  C   UNL     1       1.618   7.224  20.878  0.00  0.00    +0.000 A 
BRANCH   7  14
ATOM     13  C   UNL     1      -0.294  10.236  19.859  0.00  0.00    +0.000 C 
ATOM     14  C   UNL     1       0.814   9.608  20.669  0.00  0.00    +0.000 C 
ATOM     15  O   UNL     1       1.205  10.102  21.721  0.00  0.00    +0.000 OA
ENDBRANCH   7  14
ENDBRANCH   1  10
BRANCH   6  16
ATOM     16  C   UNL     1       5.626   5.559  18.009  0.00  0.00    +0.000 A 
ATOM     17  C   UNL     1       6.554   5.345  19.043  0.00  0.00    +0.000 A 
ATOM     18  C   UNL     1       7.707   6.130  19.154  0.00  0.00    +0.000 A 
ATOM     19  C   UNL     1       7.963   7.128  18.219  0.00  0.00    +0.000 A 
ATOM     20  C   UNL     1       7.036   7.381  17.212  0.00  0.00    +0.000 A 
ATOM     21  C   UNL     1       5.856   6.631  17.139  0.00  0.00    +0.000 A 
ENDBRANCH   6  16
TORSDOF 3
ENDMDL
MODEL 6
REMARK VINA RESULT:      -7.8      2.686      5.557
REMARK  Name = 
REMARK  5 active torsions:
REMARK  status: ('A' for Active; 'I' for Inactive)
REMARK    1  A    between atoms: C_1  and  C_2
REMARK    2  A    between atoms: C_2  and  C_4
REMARK    3  A    between atoms: C_7  and  N_8
REMARK    4  A    between atoms: C_9  and  C_10
REMARK    5  A    between atoms: C_13  and  C_14
REMARK                            x       y       z     vdW  Elec       q    Type
REMARK                         _______ _______ _______ _____ _____    ______ ____
ROOT
ATOM      1  N   UNL     1       3.043   5.065  19.321  0.00  0.00    +0.000 N 
ATOM      2  C   UNL     1       2.294   3.947  19.721  0.00  0.00    +0.000 A 
ATOM      3  C   UNL     1       0.844   3.922  20.074  0.00  0.00    +0.000 C 
ATOM      4  C   UNL     1       3.103   2.832  19.639  0.00  0.00    +0.000 A 
ATOM      5  C   UNL     1       4.358   3.244  19.185  0.00  0.00    +0.000 A 
ATOM      6  C   UNL     1       4.348   4.619  19.002  0.00  0.00    +0.000 A 
ENDROOT
BRANCH   1  10
ATOM      7  C   UNL     1       1.395   8.971  19.076  0.00  0.00    +0.000 A 
ATOM      8  C   UNL     1       1.891   8.344  17.928  0.00  0.00    +0.000 A 
ATOM      9  C   UNL     1       2.440   7.058  18.008  0.00  0.00    +0.000 A 
ATOM     10  C   UNL     1       2.554   6.414  19.245  0.00  0.00    +0.000 A 
ATOM     11  C   UNL     1       2.125   7.081  20.403  0.00  0.00    +0.000 A 
ATOM     12  C   UNL     1       1.515   8.341  20.314  0.00  0.00    +0.000 A 
BRANCH   7  14
ATOM     13  C   UNL     1      -0.729  10.321  18.542  0.00  0.00    +0.000 C 
ATOM     14  C   UNL     1       0.732  10.296  18.921  0.00  0.00    +0.000 C 
ATOM     15  O   UNL     1       1.384  11.325  19.051  0.00  0.00    +0.000 OA
ENDBRANCH   7  14
ENDBRANCH   1  10
BRANCH   6  16
ATOM     16  C   UNL     1       5.517   5.440  18.603  0.00  0.00    +0.000 A 
ATOM     17  C   UNL     1       6.679   5.425  19.394  0.00  0.00    +0.000 A 
ATOM     18  C   UNL     1       7.819   6.143  19.019  0.00  0.00    +0.000 A 
ATOM     19  C   UNL     1       7.825   6.870  17.832  0.00  0.00    +0.000 A 
ATOM     20  C   UNL     1       6.672   6.929  17.056  0.00  0.00    +0.000 A 
ATOM     21  C   UNL     1       5.515   6.256  17.465  0.00  0.00    +0.000 A 
ENDBRANCH   6  16
TORSDOF 3
ENDMDL
MODEL 7
REMARK VINA RESULT:      -7.8      2.331      5.531
REMARK  Name = 
REMARK  5 active torsions:
REMARK  status: ('A' for Active; 'I' for Inactive)
REMARK    1  A    between atoms: C_1  and  C_2
REMARK    2  A    between atoms: C_2  and  C_4
REMARK    3  A    between atoms: C_7  and  N_8
REMARK    4  A    between atoms: C_9  and  C_10
REMARK    5  A    between atoms: C_13  and  C_14
REMARK                            x       y       z     vdW  Elec       q    Type
REMARK                         _______ _______ _______ _____ _____    ______ ____
ROOT
ATOM      1  N   UNL     1       3.017   4.669  19.317  0.00  0.00    +0.000 N 
ATOM      2  C   UNL     1       2.228   3.599  19.768  0.00  0.00    +0.000 A 
ATOM      3  C   UNL     1       0.809   3.667  20.227  0.00  0.00    +0.000 C 
ATOM      4  C   UNL     1       2.954   2.435  19.624  0.00  0.00    +0.000 A 
ATOM      5  C   UNL     1       4.196   2.767  19.079  0.00  0.00    +0.000 A 
ATOM      6  C   UNL     1       4.263   4.142  18.902  0.00  0.00    +0.000 A 
ENDROOT
BRANCH   1  10
ATOM      7  C   UNL     1       1.619   8.676  19.176  0.00  0.00    +0.000 A 
ATOM      8  C   UNL     1       2.137   8.072  18.027  0.00  0.00    +0.000 A 
ATOM      9  C   UNL     1       2.605   6.752  18.073  0.00  0.00    +0.000 A 
ATOM     10  C   UNL     1       2.614   6.047  19.282  0.00  0.00    +0.000 A 
ATOM     11  C   UNL     1       2.164   6.687  20.447  0.00  0.00    +0.000 A 
ATOM     12  C   UNL     1       1.636   7.985  20.387  0.00  0.00    +0.000 A 
BRANCH   7  14
ATOM     13  C   UNL     1      -0.303  10.311  19.678  0.00  0.00    +0.000 C 
ATOM     14  C   UNL     1       1.045  10.045  19.052  0.00  0.00    +0.000 C 
ATOM     15  O   UNL     1       1.641  10.903  18.412  0.00  0.00    +0.000 OA
ENDBRANCH   7  14
ENDBRANCH   1  10
BRANCH   6  16
ATOM     16  C   UNL     1       5.451   4.887  18.420  0.00  0.00    +0.000 A 
ATOM     17  C   UNL     1       5.614   5.119  17.043  0.00  0.00    +0.000 A 
ATOM     18  C   UNL     1       6.693   5.866  16.558  0.00  0.00    +0.000 A 
ATOM     19  C   UNL     1       7.616   6.414  17.444  0.00  0.00    +0.000 A 
ATOM     20  C   UNL     1       7.493   6.162  18.807  0.00  0.00    +0.000 A 
ATOM     21  C   UNL     1       6.445   5.366  19.283  0.00  0.00    +0.000 A 
ENDBRANCH   6  16
TORSDOF 3
ENDMDL
MODEL 8
REMARK VINA RESULT:      -7.7      2.708      5.801
REMARK  Name = 
REMARK  5 active torsions:
REMARK  status: ('A' for Active; 'I' for Inactive)
REMARK    1  A    between atoms: C_1  and  C_2
REMARK    2  A    between atoms: C_2  and  C_4
REMARK    3  A    between atoms: C_7  and  N_8
REMARK    4  A    between atoms: C_9  and  C_10
REMARK    5  A    between atoms: C_13  and  C_14
REMARK                            x       y       z     vdW  Elec       q    Type
REMARK                         _______ _______ _______ _____ _____    ______ ____
ROOT
ATOM      1  N   UNL     1       3.085   4.523  18.498  0.00  0.00    +0.000 N 
ATOM      2  C   UNL     1       2.291   3.377  18.329  0.00  0.00    +0.000 A 
ATOM      3  C   UNL     1       0.826   3.258  18.590  0.00  0.00    +0.000 C 
ATOM      4  C   UNL     1       3.076   2.385  17.779  0.00  0.00    +0.000 A 
ATOM      5  C   UNL     1       4.360   2.903  17.596  0.00  0.00    +0.000 A 
ATOM      6  C   UNL     1       4.391   4.213  18.053  0.00  0.00    +0.000 A 
ENDROOT
BRANCH   1  10
ATOM      7  C   UNL     1       1.544   8.186  19.993  0.00  0.00    +0.000 A 
ATOM      8  C   UNL     1       2.057   8.117  18.694  0.00  0.00    +0.000 A 
ATOM      9  C   UNL     1       2.570   6.911  18.201  0.00  0.00    +0.000 A 
ATOM     10  C   UNL     1       2.633   5.781  19.024  0.00  0.00    +0.000 A 
ATOM     11  C   UNL     1       2.188   5.879  20.351  0.00  0.00    +0.000 A 
ATOM     12  C   UNL     1       1.613   7.068  20.823  0.00  0.00    +0.000 A 
BRANCH   7  14
ATOM     13  C   UNL     1       0.043   9.442  21.664  0.00  0.00    +0.000 C 
ATOM     14  C   UNL     1       0.920   9.464  20.435  0.00  0.00    +0.000 C 
ATOM     15  O   UNL     1       1.083  10.485  19.776  0.00  0.00    +0.000 OA
ENDBRANCH   7  14
ENDBRANCH   1  10
BRANCH   6  16
ATOM     16  C   UNL     1       5.597   5.075  18.101  0.00  0.00    +0.000 A 
ATOM     17  C   UNL     1       5.815   6.022  17.085  0.00  0.00    +0.000 A 
ATOM     18  C   UNL     1       6.912   6.890  17.128  0.00  0.00    +0.000 A 
ATOM     19  C   UNL     1       7.797   6.841  18.200  0.00  0.00    +0.000 A 
ATOM     20  C   UNL     1       7.621   5.884  19.195  0.00  0.00    +0.000 A 
ATOM     21  C   UNL     1       6.554   4.980  19.118  0.00  0.00    +0.000 A 
ENDBRANCH   6  16
TORSDOF 3
ENDMDL
MODEL 9
REMARK VINA RESULT:      -7.7      2.186      5.387
REMARK  Name = 
REMARK  5 active torsions:
REMARK  status: ('A' for Active; 'I' for Inactive)
REMARK    1  A    between atoms: C_1  and  C_2
REMARK    2  A    between atoms: C_2  and  C_4
REMARK    3  A    between atoms: C_7  and  N_8
REMARK    4  A    between atoms: C_9  and  C_10
REMARK    5  A    between atoms: C_13  and  C_14
REMARK                            x       y       z     vdW  Elec       q    Type
REMARK                         _______ _______ _______ _____ _____    ______ ____
ROOT
ATOM      1  N   UNL     1       3.097   4.613  19.457  0.00  0.00    +0.000 N 
ATOM      2  C   UNL     1       2.390   3.563  20.065  0.00  0.00    +0.000 A 
ATOM      3  C   UNL     1       0.969   3.589  20.521  0.00  0.00    +0.000 C 
ATOM      4  C   UNL     1       3.203   2.449  20.085  0.00  0.00    +0.000 A 
ATOM      5  C   UNL     1       4.418   2.791  19.488  0.00  0.00    +0.000 A 
ATOM      6  C   UNL     1       4.380   4.126  19.113  0.00  0.00    +0.000 A 
ENDROOT
BRANCH   1  10
ATOM      7  C   UNL     1       1.804   8.602  18.791  0.00  0.00    +0.000 A 
ATOM      8  C   UNL     1       1.759   8.054  20.077  0.00  0.00    +0.000 A 
ATOM      9  C   UNL     1       2.180   6.737  20.297  0.00  0.00    +0.000 A 
ATOM     10  C   UNL     1       2.590   5.937  19.225  0.00  0.00    +0.000 A 
ATOM     11  C   UNL     1       2.558   6.469  17.926  0.00  0.00    +0.000 A 
ATOM     12  C   UNL     1       2.199   7.808  17.715  0.00  0.00    +0.000 A 
BRANCH   7  14
ATOM     13  C   UNL     1       0.120  10.506  19.190  0.00  0.00    +0.000 C 
ATOM     14  C   UNL     1       1.439  10.037  18.625  0.00  0.00    +0.000 C 
ATOM     15  O   UNL     1       2.178  10.788  18.000  0.00  0.00    +0.000 OA
ENDBRANCH   7  14
ENDBRANCH   1  10
BRANCH   6  16
ATOM     16  C   UNL     1       5.510   4.882  18.517  0.00  0.00    +0.000 A 
ATOM     17  C   UNL     1       5.598   5.013  17.121  0.00  0.00    +0.000 A 
ATOM     18  C   UNL     1       6.618   5.765  16.528  0.00  0.00    +0.000 A 
ATOM     19  C   UNL     1       7.554   6.418  17.323  0.00  0.00    +0.000 A 
ATOM     20  C   UNL     1       7.507   6.268  18.705  0.00  0.00    +0.000 A 
ATOM     21  C   UNL     1       6.519   5.467  19.291  0.00  0.00    +0.000 A 
ENDBRANCH   6  16
TORSDOF 3
ENDMDL
