MODEL 1
REMARK VINA RESULT:      -7.7      0.000      0.000
REMARK  Name = 
REMARK  5 active torsions:
REMARK  status: ('A' for Active; 'I' for Inactive)
REMARK    1  A    between atoms: C_1  and  O_2
REMARK    2  A    between atoms: O_2  and  C_3
REMARK    3  A    between atoms: C_7  and  C_8
REMARK    4  A    between atoms: C_8  and  C_9
REMARK    5  A    between atoms: N_11  and  C_12
REMARK                            x       y       z     vdW  Elec       q    Type
REMARK                         _______ _______ _______ _____ _____    ______ ____
ROOT
ATOM      1  C   UNL     1       5.599   5.390  16.483  0.00  0.00    +0.000 C 
ATOM      2  O   UNL     1       4.937   6.240  15.892  0.00  0.00    +0.000 OA
ATOM      3  N   UNL     1       5.216   4.740  17.655  0.00  0.00    +0.000 N 
ATOM      4  H   UNL     1       5.987   4.476  18.251  0.00  0.00    +0.000 HD
ENDROOT
BRANCH   3   5
ATOM      5  C   UNL     1       3.993   5.074  18.291  0.00  0.00    +0.000 A 
ATOM      6  C   UNL     1       3.849   6.354  18.846  0.00  0.00    +0.000 A 
ATOM      7  C   UNL     1       2.707   6.686  19.567  0.00  0.00    +0.000 A 
ATOM      8  C   UNL     1       1.729   5.721  19.788  0.00  0.00    +0.000 A 
ATOM      9  C   UNL     1       1.857   4.429  19.253  0.00  0.00    +0.000 A 
ATOM     10  C   UNL     1       0.908   3.443  19.566  0.00  0.00    +0.000 A 
ATOM     11  C   UNL     1       1.018   2.152  19.051  0.00  0.00    +0.000 A 
ATOM     12  C   UNL     1       2.052   1.843  18.177  0.00  0.00    +0.000 A 
ATOM     13  C   UNL     1       3.010   2.806  17.866  0.00  0.00    +0.000 A 
ATOM     14  C   UNL     1       2.964   4.106  18.429  0.00  0.00    +0.000 A 
ENDBRANCH   3   5
BRANCH   1  15
ATOM     15  C   UNL     1       6.955   4.957  15.967  0.00  0.00    +0.000 C 
BRANCH  15  20
ATOM     16  C   UNL     1       6.152   3.532  12.520  0.00  0.00    +0.000 A 
ATOM     17  C   UNL     1       6.991   4.297  11.709  0.00  0.00    +0.000 A 
ATOM     18  C   UNL     1       7.845   5.247  12.265  0.00  0.00    +0.000 A 
ATOM     19  C   UNL     1       7.858   5.447  13.645  0.00  0.00    +0.000 A 
ATOM     20  C   UNL     1       7.023   4.692  14.481  0.00  0.00    +0.000 A 
ATOM     21  C   UNL     1       6.173   3.735  13.904  0.00  0.00    +0.000 A 
BRANCH  16  23
ATOM     22  C   UNL     1       4.145   3.139  11.309  0.00  0.00    +0.000 C 
ATOM     23  O   UNL     1       5.362   2.640  11.854  0.00  0.00    +0.000 OA
ENDBRANCH  16  23
ENDBRANCH  15  20
ENDBRANCH   1  15
TORSDOF 4
ENDMDL
MODEL 2
REMARK VINA RESULT:      -7.6      4.351      7.506
REMARK  Name = 
REMARK  5 active torsions:
REMARK  status: ('A' for Active; 'I' for Inactive)
REMARK    1  A    between atoms: C_1  and  O_2
REMARK    2  A    between atoms: O_2  and  C_3
REMARK    3  A    between atoms: C_7  and  C_8
REMARK    4  A    between atoms: C_8  and  C_9
REMARK    5  A    between atoms: N_11  and  C_12
REMARK                            x       y       z     vdW  Elec       q    Type
REMARK                         _______ _______ _______ _____ _____    ______ ____
ROOT
ATOM      1  C   UNL     1       1.966   8.564  18.435  0.00  0.00    +0.000 C 
ATOM      2  O   UNL     1       2.213   8.841  17.263  0.00  0.00    +0.000 OA
ATOM      3  N   UNL     1       2.350   7.394  19.086  0.00  0.00    +0.000 N 
ATOM      4  H   UNL     1       1.711   7.095  19.809  0.00  0.00    +0.000 HD
ENDROOT
BRANCH   3   5
ATOM      5  C   UNL     1       3.048   6.379  18.382  0.00  0.00    +0.000 A 
ATOM      6  C   UNL     1       4.118   6.747  17.553  0.00  0.00    +0.000 A 
ATOM      7  C   UNL     1       4.762   5.797  16.769  0.00  0.00    +0.000 A 
ATOM      8  C   UNL     1       4.302   4.484  16.763  0.00  0.00    +0.000 A 
ATOM      9  C   UNL     1       3.225   4.094  17.575  0.00  0.00    +0.000 A 
ATOM     10  C   UNL     1       2.713   2.789  17.485  0.00  0.00    +0.000 A 
ATOM     11  C   UNL     1       1.641   2.382  18.278  0.00  0.00    +0.000 A 
ATOM     12  C   UNL     1       1.096   3.259  19.206  0.00  0.00    +0.000 A 
ATOM     13  C   UNL     1       1.583   4.562  19.299  0.00  0.00    +0.000 A 
ATOM     14  C   UNL     1       2.624   5.026  18.459  0.00  0.00    +0.000 A 
ENDBRANCH   3   5
BRANCH   1  15
ATOM     15  C   UNL     1       1.181   9.516  19.314  0.00  0.00    +0.000 C 
BRANCH  15  20
ATOM     16  C   UNL     1      -1.878  10.261  17.158  0.00  0.00    +0.000 A 
ATOM     17  C   UNL     1      -2.081  11.613  17.436  0.00  0.00    +0.000 A 
ATOM     18  C   UNL     1      -1.219  12.301  18.285  0.00  0.00    +0.000 A 
ATOM     19  C   UNL     1      -0.145  11.636  18.876  0.00  0.00    +0.000 A 
ATOM     20  C   UNL     1       0.080  10.277  18.614  0.00  0.00    +0.000 A 
ATOM     21  C   UNL     1      -0.796   9.599  17.750  0.00  0.00    +0.000 A 
BRANCH  16  23
ATOM     22  C   UNL     1      -3.264  10.513  15.244  0.00  0.00    +0.000 C 
ATOM     23  O   UNL     1      -2.794   9.700  16.315  0.00  0.00    +0.000 OA
ENDBRANCH  16  23
ENDBRANCH  15  20
ENDBRANCH   1  15
TORSDOF 4
ENDMDL
MODEL 3
REMARK VINA RESULT:      -7.5      0.979      2.374
REMARK  Name = 
REMARK  5 active torsions:
REMARK  status: ('A' for Active; 'I' for Inactive)
REMARK    1  A    between atoms: C_1  and  O_2
REMARK    2  A    between atoms: O_2  and  C_3
REMARK    3  A    between atoms: C_7  and  C_8
REMARK    4  A    between atoms: C_8  and  C_9
REMARK    5  A    between atoms: N_11  and  C_12
REMARK                            x       y       z     vdW  Elec       q    Type
REMARK                         _______ _______ _______ _____ _____    ______ ____
ROOT
ATOM      1  C   UNL     1       5.646   4.810  16.800  0.00  0.00    +0.000 C 
ATOM      2  O   UNL     1       6.283   4.117  17.590  0.00  0.00    +0.000 OA
ATOM      3  N   UNL     1       4.256   4.884  16.731  0.00  0.00    +0.000 N 
ATOM      4  H   UNL     1       3.898   5.068  15.805  0.00  0.00    +0.000 HD
ENDROOT
BRANCH   3   5
ATOM      5  C   UNL     1       3.453   4.086  17.586  0.00  0.00    +0.000 A 
ATOM      6  C   UNL     1       3.215   2.750  17.234  0.00  0.00    +0.000 A 
ATOM      7  C   UNL     1       2.353   1.964  17.989  0.00  0.00    +0.000 A 
ATOM      8  C   UNL     1       1.676   2.527  19.067  0.00  0.00    +0.000 A 
ATOM      9  C   UNL     1       1.888   3.866  19.432  0.00  0.00    +0.000 A 
ATOM     10  C   UNL     1       1.127   4.443  20.460  0.00  0.00    +0.000 A 
ATOM     11  C   UNL     1       1.317   5.773  20.835  0.00  0.00    +0.000 A 
ATOM     12  C   UNL     1       2.305   6.529  20.219  0.00  0.00    +0.000 A 
ATOM     13  C   UNL     1       3.061   5.976  19.187  0.00  0.00    +0.000 A 
ATOM     14  C   UNL     1       2.843   4.651  18.736  0.00  0.00    +0.000 A 
ENDBRANCH   3   5
BRANCH   1  15
ATOM     15  C   UNL     1       6.349   5.682  15.781  0.00  0.00    +0.000 C 
BRANCH  15  20
ATOM     16  C   UNL     1       5.877   3.520  12.673  0.00  0.00    +0.000 A 
ATOM     17  C   UNL     1       6.967   3.918  11.898  0.00  0.00    +0.000 A 
ATOM     18  C   UNL     1       7.879   4.853  12.383  0.00  0.00    +0.000 A 
ATOM     19  C   UNL     1       7.701   5.408  13.649  0.00  0.00    +0.000 A 
ATOM     20  C   UNL     1       6.612   5.026  14.446  0.00  0.00    +0.000 A 
ATOM     21  C   UNL     1       5.705   4.078  13.944  0.00  0.00    +0.000 A 
BRANCH  16  23
ATOM     22  C   UNL     1       4.084   3.100  11.169  0.00  0.00    +0.000 C 
ATOM     23  O   UNL     1       5.055   2.602  12.084  0.00  0.00    +0.000 OA
ENDBRANCH  16  23
ENDBRANCH  15  20
ENDBRANCH   1  15
TORSDOF 4
ENDMDL
MODEL 4
REMARK VINA RESULT:      -7.5      2.515      4.832
REMARK  Name = 
REMARK  5 active torsions:
REMARK  status: ('A' for Active; 'I' for Inactive)
REMARK    1  A    between atoms: C_1  and  O_2
REMARK    2  A    between atoms: O_2  and  C_3
REMARK    3  A    between atoms: C_7  and  C_8
REMARK    4  A    between atoms: C_8  and  C_9
REMARK    5  A    between atoms: N_11  and  C_12
REMARK                            x       y       z     vdW  Elec       q    Type
REMARK                         _______ _______ _______ _____ _____    ______ ____
ROOT
ATOM      1  C   UNL     1       5.030   3.848  16.586  0.00  0.00    +0.000 C 
ATOM      2  O   UNL     1       4.081   3.927  15.810  0.00  0.00    +0.000 OA
ATOM      3  N   UNL     1       4.957   3.413  17.907  0.00  0.00    +0.000 N 
ATOM      4  H   UNL     1       5.636   3.840  18.521  0.00  0.00    +0.000 HD
ENDROOT
BRANCH   3   5
ATOM      5  C   UNL     1       3.707   3.057  18.476  0.00  0.00    +0.000 A 
ATOM      6  C   UNL     1       3.157   1.805  18.166  0.00  0.00    +0.000 A 
ATOM      7  C   UNL     1       1.889   1.458  18.620  0.00  0.00    +0.000 A 
ATOM      8  C   UNL     1       1.139   2.386  19.337  0.00  0.00    +0.000 A 
ATOM      9  C   UNL     1       1.663   3.650  19.649  0.00  0.00    +0.000 A 
ATOM     10  C   UNL     1       0.858   4.606  20.289  0.00  0.00    +0.000 A 
ATOM     11  C   UNL     1       1.356   5.870  20.604  0.00  0.00    +0.000 A 
ATOM     12  C   UNL     1       2.681   6.179  20.326  0.00  0.00    +0.000 A 
ATOM     13  C   UNL     1       3.491   5.246  19.680  0.00  0.00    +0.000 A 
ATOM     14  C   UNL     1       2.993   3.980  19.284  0.00  0.00    +0.000 A 
ENDBRANCH   3   5
BRANCH   1  15
ATOM     15  C   UNL     1       6.428   4.242  16.155  0.00  0.00    +0.000 C 
BRANCH  15  20
ATOM     16  C   UNL     1       7.695   7.547  17.580  0.00  0.00    +0.000 A 
ATOM     17  C   UNL     1       8.244   7.126  18.792  0.00  0.00    +0.000 A 
ATOM     18  C   UNL     1       8.244   5.778  19.142  0.00  0.00    +0.000 A 
ATOM     19  C   UNL     1       7.682   4.835  18.282  0.00  0.00    +0.000 A 
ATOM     20  C   UNL     1       7.123   5.234  17.059  0.00  0.00    +0.000 A 
ATOM     21  C   UNL     1       7.136   6.596  16.719  0.00  0.00    +0.000 A 
BRANCH  16  23
ATOM     22  C   UNL     1       8.531   9.663  18.267  0.00  0.00    +0.000 C 
ATOM     23  O   UNL     1       7.754   8.893  17.356  0.00  0.00    +0.000 OA
ENDBRANCH  16  23
ENDBRANCH  15  20
ENDBRANCH   1  15
TORSDOF 4
ENDMDL
MODEL 5
REMARK VINA RESULT:      -7.4      4.293      7.756
REMARK  Name = 
REMARK  5 active torsions:
REMARK  status: ('A' for Active; 'I' for Inactive)
REMARK    1  A    between atoms: C_1  and  O_2
REMARK    2  A    between atoms: O_2  and  C_3
REMARK    3  A    between atoms: C_7  and  C_8
REMARK    4  A    between atoms: C_8  and  C_9
REMARK    5  A    between atoms: N_11  and  C_12
REMARK                            x       y       z     vdW  Elec       q    Type
REMARK                         _______ _______ _______ _____ _____    ______ ____
ROOT
ATOM      1  C   UNL     1       1.815   8.262  18.947  0.00  0.00    +0.000 C 
ATOM      2  O   UNL     1       1.771   8.455  17.734  0.00  0.00    +0.000 OA
ATOM      3  N   UNL     1       2.384   7.153  19.568  0.00  0.00    +0.000 N 
ATOM      4  H   UNL     1       1.943   6.896  20.439  0.00  0.00    +0.000 HD
ENDROOT
BRANCH   3   5
ATOM      5  C   UNL     1       2.937   6.103  18.791  0.00  0.00    +0.000 A 
ATOM      6  C   UNL     1       3.958   6.405  17.878  0.00  0.00    +0.000 A 
ATOM      7  C   UNL     1       4.456   5.425  17.026  0.00  0.00    +0.000 A 
ATOM      8  C   UNL     1       3.894   4.152  17.041  0.00  0.00    +0.000 A 
ATOM      9  C   UNL     1       2.864   3.828  17.938  0.00  0.00    +0.000 A 
ATOM     10  C   UNL     1       2.245   2.570  17.873  0.00  0.00    +0.000 A 
ATOM     11  C   UNL     1       1.216   2.229  18.750  0.00  0.00    +0.000 A 
ATOM     12  C   UNL     1       0.823   3.126  19.735  0.00  0.00    +0.000 A 
ATOM     13  C   UNL     1       1.417   4.385  19.805  0.00  0.00    +0.000 A 
ATOM     14  C   UNL     1       2.416   4.785  18.884  0.00  0.00    +0.000 A 
ENDBRANCH   3   5
BRANCH   1  15
ATOM     15  C   UNL     1       1.221   9.261  19.918  0.00  0.00    +0.000 C 
BRANCH  15  20
ATOM     16  C   UNL     1      -1.591  11.340  18.392  0.00  0.00    +0.000 A 
ATOM     17  C   UNL     1      -0.969  12.583  18.265  0.00  0.00    +0.000 A 
ATOM     18  C   UNL     1       0.363  12.752  18.633  0.00  0.00    +0.000 A 
ATOM     19  C   UNL     1       1.087  11.675  19.144  0.00  0.00    +0.000 A 
ATOM     20  C   UNL     1       0.484  10.416  19.282  0.00  0.00    +0.000 A 
ATOM     21  C   UNL     1      -0.859  10.262  18.901  0.00  0.00    +0.000 A 
BRANCH  16  23
ATOM     22  C   UNL     1      -3.410  10.048  17.571  0.00  0.00    +0.000 C 
ATOM     23  O   UNL     1      -2.899  11.306  18.001  0.00  0.00    +0.000 OA
ENDBRANCH  16  23
ENDBRANCH  15  20
ENDBRANCH   1  15
TORSDOF 4
ENDMDL
MODEL 6
REMARK VINA RESULT:      -7.4      5.459      7.540
REMARK  Name = 
REMARK  5 active torsions:
REMARK  status: ('A' for Active; 'I' for Inactive)
REMARK    1  A    between atoms: C_1  and  O_2
REMARK    2  A    between atoms: O_2  and  C_3
REMARK    3  A    between atoms: C_7  and  C_8
REMARK    4  A    between atoms: C_8  and  C_9
REMARK    5  A    between atoms: N_11  and  C_12
REMARK                            x       y       z     vdW  Elec       q    Type
REMARK                         _______ _______ _______ _____ _____    ______ ____
ROOT
ATOM      1  C   UNL     1       7.742   8.505  17.785  0.00  0.00    +0.000 C 
ATOM      2  O   UNL     1       8.433   7.826  18.541  0.00  0.00    +0.000 OA
ATOM      3  N   UNL     1       6.684   8.030  17.014  0.00  0.00    +0.000 N 
ATOM      4  H   UNL     1       6.549   8.527  16.145  0.00  0.00    +0.000 HD
ENDROOT
BRANCH   3   5
ATOM      5  C   UNL     1       6.353   6.650  17.024  0.00  0.00    +0.000 A 
ATOM      6  C   UNL     1       7.294   5.728  16.543  0.00  0.00    +0.000 A 
ATOM      7  C   UNL     1       6.972   4.379  16.441  0.00  0.00    +0.000 A 
ATOM      8  C   UNL     1       5.687   3.953  16.764  0.00  0.00    +0.000 A 
ATOM      9  C   UNL     1       4.725   4.859  17.236  0.00  0.00    +0.000 A 
ATOM     10  C   UNL     1       3.408   4.430  17.465  0.00  0.00    +0.000 A 
ATOM     11  C   UNL     1       2.434   5.313  17.930  0.00  0.00    +0.000 A 
ATOM     12  C   UNL     1       2.776   6.628  18.216  0.00  0.00    +0.000 A 
ATOM     13  C   UNL     1       4.075   7.075  17.982  0.00  0.00    +0.000 A 
ATOM     14  C   UNL     1       5.068   6.219  17.445  0.00  0.00    +0.000 A 
ENDBRANCH   3   5
BRANCH   1  15
ATOM     15  C   UNL     1       7.996   9.988  17.614  0.00  0.00    +0.000 C 
BRANCH  15  20
ATOM     16  C   UNL     1      11.234  11.769  18.565  0.00  0.00    +0.000 A 
ATOM     17  C   UNL     1      11.152  11.752  19.958  0.00  0.00    +0.000 A 
ATOM     18  C   UNL     1      10.079  11.139  20.600  0.00  0.00    +0.000 A 
ATOM     19  C   UNL     1       9.067  10.542  19.848  0.00  0.00    +0.000 A 
ATOM     20  C   UNL     1       9.126  10.547  18.447  0.00  0.00    +0.000 A 
ATOM     21  C   UNL     1      10.218  11.165  17.817  0.00  0.00    +0.000 A 
BRANCH  16  23
ATOM     22  C   UNL     1      12.225  13.809  17.854  0.00  0.00    +0.000 C 
ATOM     23  O   UNL     1      12.332  12.404  18.059  0.00  0.00    +0.000 OA
ENDBRANCH  16  23
ENDBRANCH  15  20
ENDBRANCH   1  15
TORSDOF 4
ENDMDL
MODEL 7
REMARK VINA RESULT:      -7.3      3.069      5.353
REMARK  Name = 
REMARK  5 active torsions:
REMARK  status: ('A' for Active; 'I' for Inactive)
REMARK    1  A    between atoms: C_1  and  O_2
REMARK    2  A    between atoms: O_2  and  C_3
REMARK    3  A    between atoms: C_7  and  C_8
REMARK    4  A    between atoms: C_8  and  C_9
REMARK    5  A    between atoms: N_11  and  C_12
REMARK                            x       y       z     vdW  Elec       q    Type
REMARK                         _______ _______ _______ _____ _____    ______ ____
ROOT
ATOM      1  C   UNL     1       2.723   5.757  18.946  0.00  0.00    +0.000 C 
ATOM      2  O   UNL     1       1.915   5.537  18.047  0.00  0.00    +0.000 OA
ATOM      3  N   UNL     1       2.848   6.957  19.643  0.00  0.00    +0.000 N 
ATOM      4  H   UNL     1       3.786   7.155  19.960  0.00  0.00    +0.000 HD
ENDROOT
BRANCH   3   5
ATOM      5  C   UNL     1       2.033   8.068  19.308  0.00  0.00    +0.000 A 
ATOM      6  C   UNL     1       2.101   8.585  18.006  0.00  0.00    +0.000 A 
ATOM      7  C   UNL     1       1.396   9.734  17.664  0.00  0.00    +0.000 A 
ATOM      8  C   UNL     1       0.667  10.407  18.640  0.00  0.00    +0.000 A 
ATOM      9  C   UNL     1       0.594   9.917  19.953  0.00  0.00    +0.000 A 
ATOM     10  C   UNL     1      -0.066  10.659  20.945  0.00  0.00    +0.000 A 
ATOM     11  C   UNL     1      -0.147  10.194  22.257  0.00  0.00    +0.000 A 
ATOM     12  C   UNL     1       0.392   8.956  22.584  0.00  0.00    +0.000 A 
ATOM     13  C   UNL     1       1.062   8.212  21.615  0.00  0.00    +0.000 A 
ATOM     14  C   UNL     1       1.221   8.690  20.291  0.00  0.00    +0.000 A 
ENDBRANCH   3   5
BRANCH   1  15
ATOM     15  C   UNL     1       3.706   4.694  19.391  0.00  0.00    +0.000 C 
BRANCH  15  20
ATOM     16  C   UNL     1       6.402   4.396  16.708  0.00  0.00    +0.000 A 
ATOM     17  C   UNL     1       7.494   4.974  17.358  0.00  0.00    +0.000 A 
ATOM     18  C   UNL     1       7.382   5.427  18.669  0.00  0.00    +0.000 A 
ATOM     19  C   UNL     1       6.166   5.316  19.344  0.00  0.00    +0.000 A 
ATOM     20  C   UNL     1       5.054   4.740  18.712  0.00  0.00    +0.000 A 
ATOM     21  C   UNL     1       5.186   4.283  17.391  0.00  0.00    +0.000 A 
BRANCH  16  23
ATOM     22  C   UNL     1       5.617   4.257  14.469  0.00  0.00    +0.000 C 
ATOM     23  O   UNL     1       6.639   3.995  15.425  0.00  0.00    +0.000 OA
ENDBRANCH  16  23
ENDBRANCH  15  20
ENDBRANCH   1  15
TORSDOF 4
ENDMDL
MODEL 8
REMARK VINA RESULT:      -7.2      1.873      3.019
REMARK  Name = 
REMARK  5 active torsions:
REMARK  status: ('A' for Active; 'I' for Inactive)
REMARK    1  A    between atoms: C_1  and  O_2
REMARK    2  A    between atoms: O_2  and  C_3
REMARK    3  A    between atoms: C_7  and  C_8
REMARK    4  A    between atoms: C_8  and  C_9
REMARK    5  A    between atoms: N_11  and  C_12
REMARK                            x       y       z     vdW  Elec       q    Type
REMARK                         _______ _______ _______ _____ _____    ______ ____
ROOT
ATOM      1  C   UNL     1       6.657   5.092  14.620  0.00  0.00    +0.000 C 
ATOM      2  O   UNL     1       5.962   6.104  14.651  0.00  0.00    +0.000 OA
ATOM      3  N   UNL     1       6.971   4.295  15.718  0.00  0.00    +0.000 N 
ATOM      4  H   UNL     1       7.872   3.841  15.655  0.00  0.00    +0.000 HD
ENDROOT
BRANCH   3   5
ATOM      5  C   UNL     1       6.518   4.650  17.014  0.00  0.00    +0.000 A 
ATOM      6  C   UNL     1       7.413   5.276  17.894  0.00  0.00    +0.000 A 
ATOM      7  C   UNL     1       7.039   5.549  19.205  0.00  0.00    +0.000 A 
ATOM      8  C   UNL     1       5.789   5.142  19.662  0.00  0.00    +0.000 A 
ATOM      9  C   UNL     1       4.880   4.503  18.804  0.00  0.00    +0.000 A 
ATOM     10  C   UNL     1       3.663   4.015  19.306  0.00  0.00    +0.000 A 
ATOM     11  C   UNL     1       2.748   3.373  18.473  0.00  0.00    +0.000 A 
ATOM     12  C   UNL     1       3.017   3.251  17.117  0.00  0.00    +0.000 A 
ATOM     13  C   UNL     1       4.226   3.718  16.603  0.00  0.00    +0.000 A 
ATOM     14  C   UNL     1       5.205   4.312  17.437  0.00  0.00    +0.000 A 
ENDBRANCH   3   5
BRANCH   1  15
ATOM     15  C   UNL     1       7.267   4.603  13.322  0.00  0.00    +0.000 C 
BRANCH  15  20
ATOM     16  C   UNL     1       6.030   1.661  11.231  0.00  0.00    +0.000 A 
ATOM     17  C   UNL     1       4.687   1.998  11.059  0.00  0.00    +0.000 A 
ATOM     18  C   UNL     1       4.180   3.185  11.581  0.00  0.00    +0.000 A 
ATOM     19  C   UNL     1       5.015   4.046  12.292  0.00  0.00    +0.000 A 
ATOM     20  C   UNL     1       6.368   3.730  12.478  0.00  0.00    +0.000 A 
ATOM     21  C   UNL     1       6.865   2.531  11.941  0.00  0.00    +0.000 A 
BRANCH  16  23
ATOM     22  C   UNL     1       5.999  -0.712  11.357  0.00  0.00    +0.000 C 
ATOM     23  O   UNL     1       6.403   0.471  10.675  0.00  0.00    +0.000 OA
ENDBRANCH  16  23
ENDBRANCH  15  20
ENDBRANCH   1  15
TORSDOF 4
ENDMDL
MODEL 9
REMARK VINA RESULT:      -7.2      4.420      8.122
REMARK  Name = 
REMARK  5 active torsions:
REMARK  status: ('A' for Active; 'I' for Inactive)
REMARK    1  A    between atoms: C_1  and  O_2
REMARK    2  A    between atoms: O_2  and  C_3
REMARK    3  A    between atoms: C_7  and  C_8
REMARK    4  A    between atoms: C_8  and  C_9
REMARK    5  A    between atoms: N_11  and  C_12
REMARK                            x       y       z     vdW  Elec       q    Type
REMARK                         _______ _______ _______ _____ _____    ______ ____
ROOT
ATOM      1  C   UNL     1       1.701   8.295  19.102  0.00  0.00    +0.000 C 
ATOM      2  O   UNL     1       1.609   8.503  17.894  0.00  0.00    +0.000 OA
ATOM      3  N   UNL     1       2.326   7.195  19.685  0.00  0.00    +0.000 N 
ATOM      4  H   UNL     1       1.924   6.912  20.568  0.00  0.00    +0.000 HD
ENDROOT
BRANCH   3   5
ATOM      5  C   UNL     1       2.883   6.174  18.873  0.00  0.00    +0.000 A 
ATOM      6  C   UNL     1       3.890   6.514  17.959  0.00  0.00    +0.000 A 
ATOM      7  C   UNL     1       4.391   5.565  17.075  0.00  0.00    +0.000 A 
ATOM      8  C   UNL     1       3.845   4.284  17.060  0.00  0.00    +0.000 A 
ATOM      9  C   UNL     1       2.828   3.923  17.957  0.00  0.00    +0.000 A 
ATOM     10  C   UNL     1       2.224   2.659  17.863  0.00  0.00    +0.000 A 
ATOM     11  C   UNL     1       1.208   2.282  18.741  0.00  0.00    +0.000 A 
ATOM     12  C   UNL     1       0.815   3.146  19.755  0.00  0.00    +0.000 A 
ATOM     13  C   UNL     1       1.395   4.409  19.854  0.00  0.00    +0.000 A 
ATOM     14  C   UNL     1       2.379   4.848  18.935  0.00  0.00    +0.000 A 
ENDBRANCH   3   5
BRANCH   1  15
ATOM     15  C   UNL     1       1.111   9.260  20.109  0.00  0.00    +0.000 C 
BRANCH  15  20
ATOM     16  C   UNL     1       0.262  12.711  18.722  0.00  0.00    +0.000 A 
ATOM     17  C   UNL     1      -1.039  12.504  18.260  0.00  0.00    +0.000 A 
ATOM     18  C   UNL     1      -1.663  11.270  18.423  0.00  0.00    +0.000 A 
ATOM     19  C   UNL     1      -0.983  10.223  19.045  0.00  0.00    +0.000 A 
ATOM     20  C   UNL     1       0.325  10.406  19.516  0.00  0.00    +0.000 A 
ATOM     21  C   UNL     1       0.937  11.658  19.348  0.00  0.00    +0.000 A 
BRANCH  16  23
ATOM     22  C   UNL     1      -0.065  15.061  18.869  0.00  0.00    +0.000 C 
ATOM     23  O   UNL     1       0.761  13.962  18.498  0.00  0.00    +0.000 OA
ENDBRANCH  16  23
ENDBRANCH  15  20
ENDBRANCH   1  15
TORSDOF 4
ENDMDL
