MODEL 1
REMARK VINA RESULT:      -7.1      0.000      0.000
REMARK  Name = 
REMARK  4 active torsions:
REMARK  status: ('A' for Active; 'I' for Inactive)
REMARK    1  A    between atoms: C_1  and  C_2
REMARK    2  A    between atoms: C_2  and  C_4
REMARK    3  A    between atoms: C_4  and  C_5
REMARK    4  A    between atoms: C_5  and  O_6
REMARK                            x       y       z     vdW  Elec       q    Type
REMARK                         _______ _______ _______ _____ _____    ______ ____
ROOT
ATOM      1  C   UNL     1       4.360   3.535  19.102  0.00  0.00    +0.000 C 
ATOM      2  C   UNL     1       3.661   3.039  17.797  0.00  0.00    +0.000 C 
ATOM      3  O   UNL     1       2.761   2.216  17.732  0.00  0.00    +0.000 OA
ATOM      4  N   UNL     1       4.303   3.653  16.724  0.00  0.00    +0.000 N 
ATOM      5  C   UNL     1       5.326   4.484  17.158  0.00  0.00    +0.000 A 
ATOM      6  C   UNL     1       6.147   5.277  16.380  0.00  0.00    +0.000 A 
ATOM      7  C   UNL     1       7.107   6.048  17.042  0.00  0.00    +0.000 A 
ATOM      8  C   UNL     1       7.223   5.993  18.439  0.00  0.00    +0.000 A 
ATOM      9  F   UNL     1       8.150   6.745  19.046  0.00  0.00    +0.000 F 
ATOM     10  C   UNL     1       6.390   5.187  19.212  0.00  0.00    +0.000 A 
ATOM     11  C   UNL     1       5.430   4.441  18.553  0.00  0.00    +0.000 A 
ATOM     12  H   UNL     1       4.017   3.519  15.767  0.00  0.00    +0.000 HD
ENDROOT
BRANCH   1  13
ATOM     13  O   UNL     1       4.997   2.455  19.785  0.00  0.00    +0.000 OA
ATOM     14  H   UNL     1       4.401   1.687  19.693  0.00  0.00    +0.000 HD
ENDBRANCH   1  13
BRANCH   1  15
ATOM     15  C   UNL     1       3.392   4.208  20.067  0.00  0.00    +0.000 C 
BRANCH  15  17
ATOM     16  C   UNL     1       1.082   3.222  20.596  0.00  0.00    +0.000 C 
ATOM     17  C   UNL     1       2.557   3.249  20.891  0.00  0.00    +0.000 C 
ATOM     18  O   UNL     1       3.029   2.562  21.793  0.00  0.00    +0.000 OA
ENDBRANCH  15  17
ENDBRANCH   1  15
TORSDOF 3
ENDMDL
MODEL 2
REMARK VINA RESULT:      -6.9      3.366      5.584
REMARK  Name = 
REMARK  4 active torsions:
REMARK  status: ('A' for Active; 'I' for Inactive)
REMARK    1  A    between atoms: C_1  and  C_2
REMARK    2  A    between atoms: C_2  and  C_4
REMARK    3  A    between atoms: C_4  and  C_5
REMARK    4  A    between atoms: C_5  and  O_6
REMARK                            x       y       z     vdW  Elec       q    Type
REMARK                         _______ _______ _______ _____ _____    ______ ____
ROOT
ATOM      1  C   UNL     1       5.770   4.183  16.470  0.00  0.00    +0.000 C 
ATOM      2  C   UNL     1       6.904   4.464  17.506  0.00  0.00    +0.000 C 
ATOM      3  O   UNL     1       8.103   4.452  17.278  0.00  0.00    +0.000 OA
ATOM      4  N   UNL     1       6.295   4.657  18.744  0.00  0.00    +0.000 N 
ATOM      5  C   UNL     1       4.915   4.540  18.651  0.00  0.00    +0.000 A 
ATOM      6  C   UNL     1       3.992   4.705  19.664  0.00  0.00    +0.000 A 
ATOM      7  C   UNL     1       2.643   4.551  19.332  0.00  0.00    +0.000 A 
ATOM      8  C   UNL     1       2.266   4.229  18.019  0.00  0.00    +0.000 A 
ATOM      9  F   UNL     1       0.966   4.091  17.730  0.00  0.00    +0.000 F 
ATOM     10  C   UNL     1       3.208   4.063  17.006  0.00  0.00    +0.000 A 
ATOM     11  C   UNL     1       4.540   4.235  17.338  0.00  0.00    +0.000 A 
ATOM     12  H   UNL     1       6.814   4.885  19.577  0.00  0.00    +0.000 HD
ENDROOT
BRANCH   1  13
ATOM     13  O   UNL     1       5.881   2.865  15.933  0.00  0.00    +0.000 OA
ATOM     14  H   UNL     1       5.439   2.274  16.571  0.00  0.00    +0.000 HD
ENDBRANCH   1  13
BRANCH   1  15
ATOM     15  C   UNL     1       5.772   5.175  15.313  0.00  0.00    +0.000 C 
BRANCH  15  17
ATOM     16  C   UNL     1       6.291   3.851  13.175  0.00  0.00    +0.000 C 
ATOM     17  C   UNL     1       6.753   4.846  14.206  0.00  0.00    +0.000 C 
ATOM     18  O   UNL     1       7.889   5.311  14.163  0.00  0.00    +0.000 OA
ENDBRANCH  15  17
ENDBRANCH   1  15
TORSDOF 3
ENDMDL
MODEL 3
REMARK VINA RESULT:      -6.8      3.178      5.372
REMARK  Name = 
REMARK  4 active torsions:
REMARK  status: ('A' for Active; 'I' for Inactive)
REMARK    1  A    between atoms: C_1  and  C_2
REMARK    2  A    between atoms: C_2  and  C_4
REMARK    3  A    between atoms: C_4  and  C_5
REMARK    4  A    between atoms: C_5  and  O_6
REMARK                            x       y       z     vdW  Elec       q    Type
REMARK                         _______ _______ _______ _____ _____    ______ ____
ROOT
ATOM      1  C   UNL     1       5.224   4.496  17.685  0.00  0.00    +0.000 C 
ATOM      2  C   UNL     1       5.063   6.048  17.749  0.00  0.00    +0.000 C 
ATOM      3  O   UNL     1       5.904   6.871  17.426  0.00  0.00    +0.000 OA
ATOM      4  N   UNL     1       3.815   6.313  18.308  0.00  0.00    +0.000 N 
ATOM      5  C   UNL     1       3.141   5.138  18.616  0.00  0.00    +0.000 A 
ATOM      6  C   UNL     1       1.872   5.016  19.145  0.00  0.00    +0.000 A 
ATOM      7  C   UNL     1       1.390   3.722  19.361  0.00  0.00    +0.000 A 
ATOM      8  C   UNL     1       2.185   2.607  19.055  0.00  0.00    +0.000 A 
ATOM      9  F   UNL     1       1.695   1.379  19.269  0.00  0.00    +0.000 F 
ATOM     10  C   UNL     1       3.465   2.744  18.523  0.00  0.00    +0.000 A 
ATOM     11  C   UNL     1       3.929   4.028  18.295  0.00  0.00    +0.000 A 
ATOM     12  H   UNL     1       3.457   7.247  18.430  0.00  0.00    +0.000 HD
ENDROOT
BRANCH   1  13
ATOM     13  O   UNL     1       6.295   4.058  18.520  0.00  0.00    +0.000 OA
ATOM     14  H   UNL     1       6.625   3.229  18.124  0.00  0.00    +0.000 HD
ENDBRANCH   1  13
BRANCH   1  15
ATOM     15  C   UNL     1       5.478   3.990  16.271  0.00  0.00    +0.000 C 
BRANCH  15  17
ATOM     16  C   UNL     1       6.819   4.760  14.222  0.00  0.00    +0.000 C 
ATOM     17  C   UNL     1       6.811   4.408  15.685  0.00  0.00    +0.000 C 
ATOM     18  O   UNL     1       7.853   4.413  16.336  0.00  0.00    +0.000 OA
ENDBRANCH  15  17
ENDBRANCH   1  15
TORSDOF 3
ENDMDL
MODEL 4
REMARK VINA RESULT:      -6.8      3.382      5.246
REMARK  Name = 
REMARK  4 active torsions:
REMARK  status: ('A' for Active; 'I' for Inactive)
REMARK    1  A    between atoms: C_1  and  C_2
REMARK    2  A    between atoms: C_2  and  C_4
REMARK    3  A    between atoms: C_4  and  C_5
REMARK    4  A    between atoms: C_5  and  O_6
REMARK                            x       y       z     vdW  Elec       q    Type
REMARK                         _______ _______ _______ _____ _____    ______ ____
ROOT
ATOM      1  C   UNL     1       6.543   5.289  17.811  0.00  0.00    +0.000 C 
ATOM      2  C   UNL     1       6.330   6.760  17.332  0.00  0.00    +0.000 C 
ATOM      3  O   UNL     1       7.210   7.562  17.066  0.00  0.00    +0.000 OA
ATOM      4  N   UNL     1       4.959   7.002  17.336  0.00  0.00    +0.000 N 
ATOM      5  C   UNL     1       4.250   5.884  17.753  0.00  0.00    +0.000 A 
ATOM      6  C   UNL     1       2.879   5.749  17.844  0.00  0.00    +0.000 A 
ATOM      7  C   UNL     1       2.385   4.515  18.279  0.00  0.00    +0.000 A 
ATOM      8  C   UNL     1       3.265   3.476  18.616  0.00  0.00    +0.000 A 
ATOM      9  F   UNL     1       2.762   2.305  19.027  0.00  0.00    +0.000 F 
ATOM     10  C   UNL     1       4.646   3.626  18.523  0.00  0.00    +0.000 A 
ATOM     11  C   UNL     1       5.128   4.843  18.073  0.00  0.00    +0.000 A 
ATOM     12  H   UNL     1       4.558   7.877  17.036  0.00  0.00    +0.000 HD
ENDROOT
BRANCH   1  13
ATOM     13  O   UNL     1       7.259   5.250  19.046  0.00  0.00    +0.000 OA
ATOM     14  H   UNL     1       6.734   4.687  19.646  0.00  0.00    +0.000 HD
ENDBRANCH   1  13
BRANCH   1  15
ATOM     15  C   UNL     1       7.296   4.442  16.793  0.00  0.00    +0.000 C 
BRANCH  15  17
ATOM     16  C   UNL     1       5.692   4.149  14.811  0.00  0.00    +0.000 C 
ATOM     17  C   UNL     1       6.962   4.752  15.348  0.00  0.00    +0.000 C 
ATOM     18  O   UNL     1       7.699   5.413  14.621  0.00  0.00    +0.000 OA
ENDBRANCH  15  17
ENDBRANCH   1  15
TORSDOF 3
ENDMDL
MODEL 5
REMARK VINA RESULT:      -6.8      3.284      5.084
REMARK  Name = 
REMARK  4 active torsions:
REMARK  status: ('A' for Active; 'I' for Inactive)
REMARK    1  A    between atoms: C_1  and  C_2
REMARK    2  A    between atoms: C_2  and  C_4
REMARK    3  A    between atoms: C_4  and  C_5
REMARK    4  A    between atoms: C_5  and  O_6
REMARK                            x       y       z     vdW  Elec       q    Type
REMARK                         _______ _______ _______ _____ _____    ______ ____
ROOT
ATOM      1  C   UNL     1       5.534   4.225  16.618  0.00  0.00    +0.000 C 
ATOM      2  C   UNL     1       6.701   4.340  17.649  0.00  0.00    +0.000 C 
ATOM      3  O   UNL     1       7.871   4.564  17.386  0.00  0.00    +0.000 OA
ATOM      4  N   UNL     1       6.171   4.067  18.908  0.00  0.00    +0.000 N 
ATOM      5  C   UNL     1       4.812   3.792  18.833  0.00  0.00    +0.000 A 
ATOM      6  C   UNL     1       3.956   3.516  19.881  0.00  0.00    +0.000 A 
ATOM      7  C   UNL     1       2.614   3.281  19.566  0.00  0.00    +0.000 A 
ATOM      8  C   UNL     1       2.180   3.317  18.233  0.00  0.00    +0.000 A 
ATOM      9  F   UNL     1       0.888   3.091  17.962  0.00  0.00    +0.000 F 
ATOM     10  C   UNL     1       3.055   3.593  17.184  0.00  0.00    +0.000 A 
ATOM     11  C   UNL     1       4.378   3.844  17.504  0.00  0.00    +0.000 A 
ATOM     12  H   UNL     1       6.720   4.107  19.752  0.00  0.00    +0.000 HD
ENDROOT
BRANCH   1  13
ATOM     13  O   UNL     1       5.764   3.156  15.700  0.00  0.00    +0.000 OA
ATOM     14  H   UNL     1       5.507   2.338  16.166  0.00  0.00    +0.000 HD
ENDBRANCH   1  13
BRANCH   1  15
ATOM     15  C   UNL     1       5.326   5.507  15.821  0.00  0.00    +0.000 C 
BRANCH  15  17
ATOM     16  C   UNL     1       4.102   7.184  17.330  0.00  0.00    +0.000 C 
ATOM     17  C   UNL     1       5.379   6.775  16.647  0.00  0.00    +0.000 C 
ATOM     18  O   UNL     1       6.384   7.478  16.724  0.00  0.00    +0.000 OA
ENDBRANCH  15  17
ENDBRANCH   1  15
TORSDOF 3
ENDMDL
MODEL 6
REMARK VINA RESULT:      -6.7      3.573      5.732
REMARK  Name = 
REMARK  4 active torsions:
REMARK  status: ('A' for Active; 'I' for Inactive)
REMARK    1  A    between atoms: C_1  and  C_2
REMARK    2  A    between atoms: C_2  and  C_4
REMARK    3  A    between atoms: C_4  and  C_5
REMARK    4  A    between atoms: C_5  and  O_6
REMARK                            x       y       z     vdW  Elec       q    Type
REMARK                         _______ _______ _______ _____ _____    ______ ____
ROOT
ATOM      1  C   UNL     1       5.832   4.945  16.359  0.00  0.00    +0.000 C 
ATOM      2  C   UNL     1       6.375   6.235  17.051  0.00  0.00    +0.000 C 
ATOM      3  O   UNL     1       7.408   6.820  16.769  0.00  0.00    +0.000 OA
ATOM      4  N   UNL     1       5.501   6.546  18.090  0.00  0.00    +0.000 N 
ATOM      5  C   UNL     1       4.461   5.631  18.166  0.00  0.00    +0.000 A 
ATOM      6  C   UNL     1       3.396   5.646  19.043  0.00  0.00    +0.000 A 
ATOM      7  C   UNL     1       2.453   4.620  18.924  0.00  0.00    +0.000 A 
ATOM      8  C   UNL     1       2.610   3.620  17.953  0.00  0.00    +0.000 A 
ATOM      9  F   UNL     1       1.689   2.652  17.860  0.00  0.00    +0.000 F 
ATOM     10  C   UNL     1       3.691   3.615  17.074  0.00  0.00    +0.000 A 
ATOM     11  C   UNL     1       4.610   4.643  17.186  0.00  0.00    +0.000 A 
ATOM     12  H   UNL     1       5.616   7.359  18.675  0.00  0.00    +0.000 HD
ENDROOT
BRANCH   1  13
ATOM     13  O   UNL     1       6.749   3.860  16.505  0.00  0.00    +0.000 OA
ATOM     14  H   UNL     1       7.057   3.642  15.605  0.00  0.00    +0.000 HD
ENDBRANCH   1  13
BRANCH   1  15
ATOM     15  C   UNL     1       5.559   5.146  14.873  0.00  0.00    +0.000 C 
BRANCH  15  17
ATOM     16  C   UNL     1       6.359   3.643  12.952  0.00  0.00    +0.000 C 
ATOM     17  C   UNL     1       6.688   4.709  13.963  0.00  0.00    +0.000 C 
ATOM     18  O   UNL     1       7.832   5.146  14.063  0.00  0.00    +0.000 OA
ENDBRANCH  15  17
ENDBRANCH   1  15
TORSDOF 3
ENDMDL
MODEL 7
REMARK VINA RESULT:      -6.7      2.119      2.845
REMARK  Name = 
REMARK  4 active torsions:
REMARK  status: ('A' for Active; 'I' for Inactive)
REMARK    1  A    between atoms: C_1  and  C_2
REMARK    2  A    between atoms: C_2  and  C_4
REMARK    3  A    between atoms: C_4  and  C_5
REMARK    4  A    between atoms: C_5  and  O_6
REMARK                            x       y       z     vdW  Elec       q    Type
REMARK                         _______ _______ _______ _____ _____    ______ ____
ROOT
ATOM      1  C   UNL     1       3.479   4.766  19.127  0.00  0.00    +0.000 C 
ATOM      2  C   UNL     1       4.177   3.448  19.589  0.00  0.00    +0.000 C 
ATOM      3  O   UNL     1       3.901   2.802  20.587  0.00  0.00    +0.000 OA
ATOM      4  N   UNL     1       5.212   3.191  18.694  0.00  0.00    +0.000 N 
ATOM      5  C   UNL     1       5.281   4.167  17.709  0.00  0.00    +0.000 A 
ATOM      6  C   UNL     1       6.154   4.217  16.641  0.00  0.00    +0.000 A 
ATOM      7  C   UNL     1       6.028   5.296  15.761  0.00  0.00    +0.000 A 
ATOM      8  C   UNL     1       5.055   6.283  15.981  0.00  0.00    +0.000 A 
ATOM      9  F   UNL     1       4.956   7.304  15.120  0.00  0.00    +0.000 F 
ATOM     10  C   UNL     1       4.182   6.222  17.065  0.00  0.00    +0.000 A 
ATOM     11  C   UNL     1       4.300   5.141  17.921  0.00  0.00    +0.000 A 
ATOM     12  H   UNL     1       5.799   2.374  18.757  0.00  0.00    +0.000 HD
ENDROOT
BRANCH   1  13
ATOM     13  O   UNL     1       3.628   5.795  20.105  0.00  0.00    +0.000 OA
ATOM     14  H   UNL     1       4.024   6.556  19.640  0.00  0.00    +0.000 HD
ENDBRANCH   1  13
BRANCH   1  15
ATOM     15  C   UNL     1       1.993   4.578  18.849  0.00  0.00    +0.000 C 
BRANCH  15  17
ATOM     16  C   UNL     1       0.837   2.287  18.806  0.00  0.00    +0.000 C 
ATOM     17  C   UNL     1       1.652   3.321  18.077  0.00  0.00    +0.000 C 
ATOM     18  O   UNL     1       2.056   3.110  16.935  0.00  0.00    +0.000 OA
ENDBRANCH  15  17
ENDBRANCH   1  15
TORSDOF 3
ENDMDL
MODEL 8
REMARK VINA RESULT:      -6.7      3.337      5.555
REMARK  Name = 
REMARK  4 active torsions:
REMARK  status: ('A' for Active; 'I' for Inactive)
REMARK    1  A    between atoms: C_1  and  C_2
REMARK    2  A    between atoms: C_2  and  C_4
REMARK    3  A    between atoms: C_4  and  C_5
REMARK    4  A    between atoms: C_5  and  O_6
REMARK                            x       y       z     vdW  Elec       q    Type
REMARK                         _______ _______ _______ _____ _____    ______ ____
ROOT
ATOM      1  C   UNL     1       6.226   4.862  17.152  0.00  0.00    +0.000 C 
ATOM      2  C   UNL     1       6.629   5.802  18.332  0.00  0.00    +0.000 C 
ATOM      3  O   UNL     1       7.612   6.525  18.370  0.00  0.00    +0.000 OA
ATOM      4  N   UNL     1       5.703   5.605  19.354  0.00  0.00    +0.000 N 
ATOM      5  C   UNL     1       4.749   4.663  18.995  0.00  0.00    +0.000 A 
ATOM      6  C   UNL     1       3.664   4.246  19.739  0.00  0.00    +0.000 A 
ATOM      7  C   UNL     1       2.823   3.289  19.164  0.00  0.00    +0.000 A 
ATOM      8  C   UNL     1       3.097   2.777  17.887  0.00  0.00    +0.000 A 
ATOM      9  F   UNL     1       2.272   1.862  17.361  0.00  0.00    +0.000 F 
ATOM     10  C   UNL     1       4.197   3.204  17.147  0.00  0.00    +0.000 A 
ATOM     11  C   UNL     1       5.015   4.165  17.714  0.00  0.00    +0.000 A 
ATOM     12  H   UNL     1       5.726   6.121  20.219  0.00  0.00    +0.000 HD
ENDROOT
BRANCH   1  13
ATOM     13  O   UNL     1       7.234   3.880  16.912  0.00  0.00    +0.000 OA
ATOM     14  H   UNL     1       7.332   3.823  15.942  0.00  0.00    +0.000 HD
ENDBRANCH   1  13
BRANCH   1  15
ATOM     15  C   UNL     1       5.976   5.622  15.855  0.00  0.00    +0.000 C 
BRANCH  15  17
ATOM     16  C   UNL     1       5.941   4.023  13.848  0.00  0.00    +0.000 C 
ATOM     17  C   UNL     1       6.692   5.053  14.647  0.00  0.00    +0.000 C 
ATOM     18  O   UNL     1       7.844   5.361  14.350  0.00  0.00    +0.000 OA
ENDBRANCH  15  17
ENDBRANCH   1  15
TORSDOF 3
ENDMDL
MODEL 9
REMARK VINA RESULT:      -6.6      2.975      5.077
REMARK  Name = 
REMARK  4 active torsions:
REMARK  status: ('A' for Active; 'I' for Inactive)
REMARK    1  A    between atoms: C_1  and  C_2
REMARK    2  A    between atoms: C_2  and  C_4
REMARK    3  A    between atoms: C_4  and  C_5
REMARK    4  A    between atoms: C_5  and  O_6
REMARK                            x       y       z     vdW  Elec       q    Type
REMARK                         _______ _______ _______ _____ _____    ______ ____
ROOT
ATOM      1  C   UNL     1       5.062   5.332  17.412  0.00  0.00    +0.000 C 
ATOM      2  C   UNL     1       5.179   3.906  16.787  0.00  0.00    +0.000 C 
ATOM      3  O   UNL     1       5.949   3.572  15.900  0.00  0.00    +0.000 OA
ATOM      4  N   UNL     1       4.199   3.112  17.377  0.00  0.00    +0.000 N 
ATOM      5  C   UNL     1       3.459   3.833  18.305  0.00  0.00    +0.000 A 
ATOM      6  C   UNL     1       2.436   3.364  19.104  0.00  0.00    +0.000 A 
ATOM      7  C   UNL     1       1.839   4.275  19.981  0.00  0.00    +0.000 A 
ATOM      8  C   UNL     1       2.271   5.609  20.022  0.00  0.00    +0.000 A 
ATOM      9  F   UNL     1       1.683   6.458  20.875  0.00  0.00    +0.000 F 
ATOM     10  C   UNL     1       3.303   6.070  19.209  0.00  0.00    +0.000 A 
ATOM     11  C   UNL     1       3.902   5.159  18.356  0.00  0.00    +0.000 A 
ATOM     12  H   UNL     1       4.086   2.134  17.164  0.00  0.00    +0.000 HD
ENDROOT
BRANCH   1  13
ATOM     13  O   UNL     1       4.694   6.295  16.424  0.00  0.00    +0.000 OA
ATOM     14  H   UNL     1       3.766   6.534  16.611  0.00  0.00    +0.000 HD
ENDBRANCH   1  13
BRANCH   1  15
ATOM     15  C   UNL     1       6.355   5.792  18.073  0.00  0.00    +0.000 C 
BRANCH  15  17
ATOM     16  C   UNL     1       7.714   7.944  17.742  0.00  0.00    +0.000 C 
ATOM     17  C   UNL     1       7.254   6.624  17.183  0.00  0.00    +0.000 C 
ATOM     18  O   UNL     1       7.559   6.286  16.042  0.00  0.00    +0.000 OA
ENDBRANCH  15  17
ENDBRANCH   1  15
TORSDOF 3
ENDMDL
