MODEL 1
REMARK VINA RESULT:      -6.1      0.000      0.000
REMARK  Name = 
REMARK  3 active torsions:
REMARK  status: ('A' for Active; 'I' for Inactive)
REMARK    1  A    between atoms: C_1  and  C_2
REMARK    2  A    between atoms: C_8  and  C_9
REMARK    3  A    between atoms: C_12  and  N_13
REMARK                            x       y       z     vdW  Elec       q    Type
REMARK                         _______ _______ _______ _____ _____    ______ ____
ROOT
ATOM      1  C   UNL     1       2.858   4.503  20.603  0.00  0.00    +0.000 C 
ATOM      2  C   UNL     1       3.041   5.603  19.594  0.00  0.00    +0.000 A 
ATOM      3  C   UNL     1       2.140   6.681  19.610  0.00  0.00    +0.000 A 
ATOM      4  C   UNL     1       2.279   7.708  18.697  0.00  0.00    +0.000 A 
ATOM      5  N   UNL     1       3.235   7.778  17.758  0.00  0.00    +0.000 NA
ATOM      6  C   UNL     1       4.089   6.734  17.759  0.00  0.00    +0.000 A 
ATOM      7  S   UNL     1       5.347   6.695  16.624  0.00  0.00    +0.000 S 
ATOM      8  C   UNL     1       5.935   5.200  17.209  0.00  0.00    +0.000 A 
ATOM      9  C   UNL     1       5.168   4.743  18.271  0.00  0.00    +0.000 A 
ATOM     10  C   UNL     1       4.075   5.632  18.613  0.00  0.00    +0.000 A 
ENDROOT
BRANCH   8  11
ATOM     11  C   UNL     1       7.098   4.573  16.598  0.00  0.00    +0.000 C 
ATOM     12  N   UNL     1       7.066   4.399  15.240  0.00  0.00    +0.000 N 
ATOM     13  O   UNL     1       8.091   4.193  17.218  0.00  0.00    +0.000 OA
ATOM     14  H   UNL     1       6.269   4.688  14.686  0.00  0.00    +0.000 HD
ATOM     15  H   UNL     1       7.855   3.961  14.791  0.00  0.00    +0.000 HD
ENDBRANCH   8  11
BRANCH   9  16
ATOM     16  N   UNL     1       5.431   3.581  18.908  0.00  0.00    +0.000 N 
ATOM     17  H   UNL     1       5.181   2.681  18.490  0.00  0.00    +0.000 HD
ATOM     18  H   UNL     1       5.863   3.507  19.820  0.00  0.00    +0.000 HD
ENDBRANCH   9  16
TORSDOF 2
ENDMDL
MODEL 2
REMARK VINA RESULT:      -6.0      3.067      4.892
REMARK  Name = 
REMARK  3 active torsions:
REMARK  status: ('A' for Active; 'I' for Inactive)
REMARK    1  A    between atoms: C_1  and  C_2
REMARK    2  A    between atoms: C_8  and  C_9
REMARK    3  A    between atoms: C_12  and  N_13
REMARK                            x       y       z     vdW  Elec       q    Type
REMARK                         _______ _______ _______ _____ _____    ______ ____
ROOT
ATOM      1  C   UNL     1       3.384   7.780  17.868  0.00  0.00    +0.000 C 
ATOM      2  C   UNL     1       3.913   6.404  17.574  0.00  0.00    +0.000 A 
ATOM      3  C   UNL     1       4.754   6.235  16.460  0.00  0.00    +0.000 A 
ATOM      4  C   UNL     1       5.256   4.983  16.162  0.00  0.00    +0.000 A 
ATOM      5  N   UNL     1       5.009   3.867  16.864  0.00  0.00    +0.000 NA
ATOM      6  C   UNL     1       4.200   4.050  17.927  0.00  0.00    +0.000 A 
ATOM      7  S   UNL     1       3.805   2.722  18.903  0.00  0.00    +0.000 S 
ATOM      8  C   UNL     1       2.832   3.673  19.940  0.00  0.00    +0.000 A 
ATOM      9  C   UNL     1       2.820   5.000  19.535  0.00  0.00    +0.000 A 
ATOM     10  C   UNL     1       3.620   5.245  18.352  0.00  0.00    +0.000 A 
ENDROOT
BRANCH   8  11
ATOM     11  C   UNL     1       2.149   3.066  21.073  0.00  0.00    +0.000 C 
ATOM     12  N   UNL     1       0.792   2.912  20.967  0.00  0.00    +0.000 N 
ATOM     13  O   UNL     1       2.706   2.694  22.105  0.00  0.00    +0.000 OA
ATOM     14  H   UNL     1       0.287   3.210  20.142  0.00  0.00    +0.000 HD
ATOM     15  H   UNL     1       0.291   2.502  21.740  0.00  0.00    +0.000 HD
ENDBRANCH   8  11
BRANCH   9  16
ATOM     16  N   UNL     1       2.123   5.951  20.193  0.00  0.00    +0.000 N 
ATOM     17  H   UNL     1       2.470   6.348  21.070  0.00  0.00    +0.000 HD
ATOM     18  H   UNL     1       1.230   6.322  19.896  0.00  0.00    +0.000 HD
ENDBRANCH   9  16
TORSDOF 2
ENDMDL
MODEL 3
REMARK VINA RESULT:      -6.0      1.059      1.287
REMARK  Name = 
REMARK  3 active torsions:
REMARK  status: ('A' for Active; 'I' for Inactive)
REMARK    1  A    between atoms: C_1  and  C_2
REMARK    2  A    between atoms: C_8  and  C_9
REMARK    3  A    between atoms: C_12  and  N_13
REMARK                            x       y       z     vdW  Elec       q    Type
REMARK                         _______ _______ _______ _____ _____    ______ ____
ROOT
ATOM      1  C   UNL     1       2.612   3.175  21.176  0.00  0.00    +0.000 C 
ATOM      2  C   UNL     1       2.692   4.480  20.432  0.00  0.00    +0.000 A 
ATOM      3  C   UNL     1       1.763   5.486  20.747  0.00  0.00    +0.000 A 
ATOM      4  C   UNL     1       1.808   6.697  20.083  0.00  0.00    +0.000 A 
ATOM      5  N   UNL     1       2.693   7.016  19.127  0.00  0.00    +0.000 NA
ATOM      6  C   UNL     1       3.576   6.038  18.840  0.00  0.00    +0.000 A 
ATOM      7  S   UNL     1       4.751   6.309  17.649  0.00  0.00    +0.000 S 
ATOM      8  C   UNL     1       5.421   4.748  17.844  0.00  0.00    +0.000 A 
ATOM      9  C   UNL     1       4.745   4.032  18.821  0.00  0.00    +0.000 A 
ATOM     10  C   UNL     1       3.653   4.773  19.421  0.00  0.00    +0.000 A 
ENDROOT
BRANCH   8  11
ATOM     11  C   UNL     1       6.557   4.326  17.036  0.00  0.00    +0.000 C 
ATOM     12  N   UNL     1       6.276   3.629  15.891  0.00  0.00    +0.000 N 
ATOM     13  O   UNL     1       7.734   4.549  17.317  0.00  0.00    +0.000 OA
ATOM     14  H   UNL     1       5.325   3.413  15.620  0.00  0.00    +0.000 HD
ATOM     15  H   UNL     1       7.044   3.317  15.316  0.00  0.00    +0.000 HD
ENDBRANCH   8  11
BRANCH   9  16
ATOM     16  N   UNL     1       5.086   2.770  19.160  0.00  0.00    +0.000 N 
ATOM     17  H   UNL     1       5.100   2.021  18.463  0.00  0.00    +0.000 HD
ATOM     18  H   UNL     1       5.327   2.469  20.096  0.00  0.00    +0.000 HD
ENDBRANCH   9  16
TORSDOF 2
ENDMDL
MODEL 4
REMARK VINA RESULT:      -6.0      2.931      4.526
REMARK  Name = 
REMARK  3 active torsions:
REMARK  status: ('A' for Active; 'I' for Inactive)
REMARK    1  A    between atoms: C_1  and  C_2
REMARK    2  A    between atoms: C_8  and  C_9
REMARK    3  A    between atoms: C_12  and  N_13
REMARK                            x       y       z     vdW  Elec       q    Type
REMARK                         _______ _______ _______ _____ _____    ______ ____
ROOT
ATOM      1  C   UNL     1       5.565   3.670  16.309  0.00  0.00    +0.000 C 
ATOM      2  C   UNL     1       4.819   4.791  16.976  0.00  0.00    +0.000 A 
ATOM      3  C   UNL     1       4.911   6.079  16.420  0.00  0.00    +0.000 A 
ATOM      4  C   UNL     1       4.238   7.132  17.009  0.00  0.00    +0.000 A 
ATOM      5  N   UNL     1       3.470   7.037  18.105  0.00  0.00    +0.000 NA
ATOM      6  C   UNL     1       3.394   5.794  18.623  0.00  0.00    +0.000 A 
ATOM      7  S   UNL     1       2.457   5.533  20.010  0.00  0.00    +0.000 S 
ATOM      8  C   UNL     1       2.835   3.865  20.046  0.00  0.00    +0.000 A 
ATOM      9  C   UNL     1       3.671   3.520  18.995  0.00  0.00    +0.000 A 
ATOM     10  C   UNL     1       4.014   4.641  18.143  0.00  0.00    +0.000 A 
ENDROOT
BRANCH   8  11
ATOM     11  C   UNL     1       2.293   3.008  21.092  0.00  0.00    +0.000 C 
ATOM     12  N   UNL     1       0.931   2.874  21.139  0.00  0.00    +0.000 N 
ATOM     13  O   UNL     1       2.974   2.408  21.923  0.00  0.00    +0.000 OA
ATOM     14  H   UNL     1       0.328   3.353  20.482  0.00  0.00    +0.000 HD
ATOM     15  H   UNL     1       0.528   2.292  21.857  0.00  0.00    +0.000 HD
ENDBRANCH   8  11
BRANCH   9  16
ATOM     16  N   UNL     1       4.112   2.257  18.805  0.00  0.00    +0.000 N 
ATOM     17  H   UNL     1       3.809   1.494  19.416  0.00  0.00    +0.000 HD
ATOM     18  H   UNL     1       4.765   1.975  18.085  0.00  0.00    +0.000 HD
ENDBRANCH   9  16
TORSDOF 2
ENDMDL
MODEL 5
REMARK VINA RESULT:      -5.9      1.888      2.166
REMARK  Name = 
REMARK  3 active torsions:
REMARK  status: ('A' for Active; 'I' for Inactive)
REMARK    1  A    between atoms: C_1  and  C_2
REMARK    2  A    between atoms: C_8  and  C_9
REMARK    3  A    between atoms: C_12  and  N_13
REMARK                            x       y       z     vdW  Elec       q    Type
REMARK                         _______ _______ _______ _____ _____    ______ ____
ROOT
ATOM      1  C   UNL     1       1.625   2.085  19.361  0.00  0.00    +0.000 C 
ATOM      2  C   UNL     1       2.101   3.507  19.467  0.00  0.00    +0.000 A 
ATOM      3  C   UNL     1       1.397   4.386  20.308  0.00  0.00    +0.000 A 
ATOM      4  C   UNL     1       1.808   5.700  20.428  0.00  0.00    +0.000 A 
ATOM      5  N   UNL     1       2.859   6.238  19.792  0.00  0.00    +0.000 NA
ATOM      6  C   UNL     1       3.521   5.378  18.991  0.00  0.00    +0.000 A 
ATOM      7  S   UNL     1       4.871   5.928  18.127  0.00  0.00    +0.000 S 
ATOM      8  C   UNL     1       5.131   4.398  17.406  0.00  0.00    +0.000 A 
ATOM      9  C   UNL     1       4.185   3.478  17.835  0.00  0.00    +0.000 A 
ATOM     10  C   UNL     1       3.227   4.033  18.769  0.00  0.00    +0.000 A 
ENDROOT
BRANCH   8  11
ATOM     11  C   UNL     1       6.233   4.197  16.476  0.00  0.00    +0.000 C 
ATOM     12  N   UNL     1       7.470   4.623  16.881  0.00  0.00    +0.000 N 
ATOM     13  O   UNL     1       6.121   3.679  15.365  0.00  0.00    +0.000 OA
ATOM     14  H   UNL     1       7.612   5.062  17.782  0.00  0.00    +0.000 HD
ATOM     15  H   UNL     1       8.250   4.503  16.254  0.00  0.00    +0.000 HD
ENDBRANCH   8  11
BRANCH   9  16
ATOM     16  N   UNL     1       4.177   2.196  17.408  0.00  0.00    +0.000 N 
ATOM     17  H   UNL     1       3.320   1.638  17.429  0.00  0.00    +0.000 HD
ATOM     18  H   UNL     1       4.988   1.697  17.064  0.00  0.00    +0.000 HD
ENDBRANCH   9  16
TORSDOF 2
ENDMDL
MODEL 6
REMARK VINA RESULT:      -5.9      1.858      2.852
REMARK  Name = 
REMARK  3 active torsions:
REMARK  status: ('A' for Active; 'I' for Inactive)
REMARK    1  A    between atoms: C_1  and  C_2
REMARK    2  A    between atoms: C_8  and  C_9
REMARK    3  A    between atoms: C_12  and  N_13
REMARK                            x       y       z     vdW  Elec       q    Type
REMARK                         _______ _______ _______ _____ _____    ______ ____
ROOT
ATOM      1  C   UNL     1       2.934   8.063  17.770  0.00  0.00    +0.000 C 
ATOM      2  C   UNL     1       3.171   6.615  18.097  0.00  0.00    +0.000 A 
ATOM      3  C   UNL     1       2.474   6.052  19.180  0.00  0.00    +0.000 A 
ATOM      4  C   UNL     1       2.668   4.724  19.508  0.00  0.00    +0.000 A 
ATOM      5  N   UNL     1       3.492   3.885  18.862  0.00  0.00    +0.000 NA
ATOM      6  C   UNL     1       4.151   4.444  17.827  0.00  0.00    +0.000 A 
ATOM      7  S   UNL     1       5.227   3.495  16.924  0.00  0.00    +0.000 S 
ATOM      8  C   UNL     1       5.631   4.797  15.891  0.00  0.00    +0.000 A 
ATOM      9  C   UNL     1       4.938   5.947  16.242  0.00  0.00    +0.000 A 
ATOM     10  C   UNL     1       4.060   5.762  17.380  0.00  0.00    +0.000 A 
ENDROOT
BRANCH   8  11
ATOM     11  C   UNL     1       6.592   4.614  14.812  0.00  0.00    +0.000 C 
ATOM     12  N   UNL     1       6.387   3.549  13.976  0.00  0.00    +0.000 N 
ATOM     13  O   UNL     1       7.562   5.344  14.612  0.00  0.00    +0.000 OA
ATOM     14  H   UNL     1       5.608   2.915  14.104  0.00  0.00    +0.000 HD
ATOM     15  H   UNL     1       7.041   3.393  13.225  0.00  0.00    +0.000 HD
ENDBRANCH   8  11
BRANCH   9  16
ATOM     16  N   UNL     1       5.084   7.113  15.575  0.00  0.00    +0.000 N 
ATOM     17  H   UNL     1       6.011   7.460  15.316  0.00  0.00    +0.000 HD
ATOM     18  H   UNL     1       4.323   7.722  15.304  0.00  0.00    +0.000 HD
ENDBRANCH   9  16
TORSDOF 2
ENDMDL
MODEL 7
REMARK VINA RESULT:      -5.8      2.572      3.628
REMARK  Name = 
REMARK  3 active torsions:
REMARK  status: ('A' for Active; 'I' for Inactive)
REMARK    1  A    between atoms: C_1  and  C_2
REMARK    2  A    between atoms: C_8  and  C_9
REMARK    3  A    between atoms: C_12  and  N_13
REMARK                            x       y       z     vdW  Elec       q    Type
REMARK                         _______ _______ _______ _____ _____    ______ ____
ROOT
ATOM      1  C   UNL     1       4.912   6.791  16.199  0.00  0.00    +0.000 C 
ATOM      2  C   UNL     1       4.000   6.672  17.388  0.00  0.00    +0.000 A 
ATOM      3  C   UNL     1       3.263   7.802  17.782  0.00  0.00    +0.000 A 
ATOM      4  C   UNL     1       2.415   7.727  18.870  0.00  0.00    +0.000 A 
ATOM      5  N   UNL     1       2.219   6.630  19.617  0.00  0.00    +0.000 NA
ATOM      6  C   UNL     1       2.935   5.557  19.224  0.00  0.00    +0.000 A 
ATOM      7  S   UNL     1       2.782   4.103  20.081  0.00  0.00    +0.000 S 
ATOM      8  C   UNL     1       3.902   3.298  19.070  0.00  0.00    +0.000 A 
ATOM      9  C   UNL     1       4.382   4.145  18.082  0.00  0.00    +0.000 A 
ATOM     10  C   UNL     1       3.825   5.481  18.153  0.00  0.00    +0.000 A 
ENDROOT
BRANCH   8  11
ATOM     11  C   UNL     1       4.239   1.900  19.305  0.00  0.00    +0.000 C 
ATOM     12  N   UNL     1       5.083   1.635  20.351  0.00  0.00    +0.000 N 
ATOM     13  O   UNL     1       3.821   0.960  18.631  0.00  0.00    +0.000 OA
ATOM     14  H   UNL     1       5.460   2.374  20.930  0.00  0.00    +0.000 HD
ATOM     15  H   UNL     1       5.339   0.677  20.532  0.00  0.00    +0.000 HD
ENDBRANCH   8  11
BRANCH   9  16
ATOM     16  N   UNL     1       5.280   3.743  17.156  0.00  0.00    +0.000 N 
ATOM     17  H   UNL     1       5.819   2.883  17.282  0.00  0.00    +0.000 HD
ATOM     18  H   UNL     1       5.498   4.247  16.306  0.00  0.00    +0.000 HD
ENDBRANCH   9  16
TORSDOF 2
ENDMDL
MODEL 8
REMARK VINA RESULT:      -5.8      1.867      2.203
REMARK  Name = 
REMARK  3 active torsions:
REMARK  status: ('A' for Active; 'I' for Inactive)
REMARK    1  A    between atoms: C_1  and  C_2
REMARK    2  A    between atoms: C_8  and  C_9
REMARK    3  A    between atoms: C_12  and  N_13
REMARK                            x       y       z     vdW  Elec       q    Type
REMARK                         _______ _______ _______ _____ _____    ______ ____
ROOT
ATOM      1  C   UNL     1       4.405   2.341  20.088  0.00  0.00    +0.000 C 
ATOM      2  C   UNL     1       3.686   3.573  19.612  0.00  0.00    +0.000 A 
ATOM      3  C   UNL     1       2.334   3.734  19.959  0.00  0.00    +0.000 A 
ATOM      4  C   UNL     1       1.644   4.854  19.538  0.00  0.00    +0.000 A 
ATOM      5  N   UNL     1       2.165   5.845  18.800  0.00  0.00    +0.000 NA
ATOM      6  C   UNL     1       3.463   5.672  18.477  0.00  0.00    +0.000 A 
ATOM      7  S   UNL     1       4.246   6.851  17.546  0.00  0.00    +0.000 S 
ATOM      8  C   UNL     1       5.723   5.990  17.555  0.00  0.00    +0.000 A 
ATOM      9  C   UNL     1       5.608   4.809  18.274  0.00  0.00    +0.000 A 
ATOM     10  C   UNL     1       4.285   4.602  18.826  0.00  0.00    +0.000 A 
ENDROOT
BRANCH   8  11
ATOM     11  C   UNL     1       6.892   6.518  16.865  0.00  0.00    +0.000 C 
ATOM     12  N   UNL     1       7.279   7.792  17.190  0.00  0.00    +0.000 N 
ATOM     13  O   UNL     1       7.540   5.902  16.019  0.00  0.00    +0.000 OA
ATOM     14  H   UNL     1       6.775   8.342  17.874  0.00  0.00    +0.000 HD
ATOM     15  H   UNL     1       8.080   8.186  16.722  0.00  0.00    +0.000 HD
ENDBRANCH   8  11
BRANCH   9  16
ATOM     16  N   UNL     1       6.640   3.951  18.429  0.00  0.00    +0.000 N 
ATOM     17  H   UNL     1       7.018   3.430  17.633  0.00  0.00    +0.000 HD
ATOM     18  H   UNL     1       7.095   3.748  19.310  0.00  0.00    +0.000 HD
ENDBRANCH   9  16
TORSDOF 2
ENDMDL
MODEL 9
REMARK VINA RESULT:      -5.8      2.561      3.063
REMARK  Name = 
REMARK  3 active torsions:
REMARK  status: ('A' for Active; 'I' for Inactive)
REMARK    1  A    between atoms: C_1  and  C_2
REMARK    2  A    between atoms: C_8  and  C_9
REMARK    3  A    between atoms: C_12  and  N_13
REMARK                            x       y       z     vdW  Elec       q    Type
REMARK                         _______ _______ _______ _____ _____    ______ ____
ROOT
ATOM      1  C   UNL     1       3.617   1.396  18.491  0.00  0.00    +0.000 C 
ATOM      2  C   UNL     1       2.988   2.709  18.866  0.00  0.00    +0.000 A 
ATOM      3  C   UNL     1       1.916   2.701  19.775  0.00  0.00    +0.000 A 
ATOM      4  C   UNL     1       1.315   3.890  20.141  0.00  0.00    +0.000 A 
ATOM      5  N   UNL     1       1.674   5.102  19.693  0.00  0.00    +0.000 NA
ATOM      6  C   UNL     1       2.704   5.089  18.823  0.00  0.00    +0.000 A 
ATOM      7  S   UNL     1       3.261   6.554  18.179  0.00  0.00    +0.000 S 
ATOM      8  C   UNL     1       4.465   5.777  17.246  0.00  0.00    +0.000 A 
ATOM      9  C   UNL     1       4.436   4.403  17.436  0.00  0.00    +0.000 A 
ATOM     10  C   UNL     1       3.406   3.975  18.362  0.00  0.00    +0.000 A 
ENDROOT
BRANCH   8  11
ATOM     11  C   UNL     1       5.355   6.553  16.393  0.00  0.00    +0.000 C 
ATOM     12  N   UNL     1       6.473   7.081  16.984  0.00  0.00    +0.000 N 
ATOM     13  O   UNL     1       5.165   6.763  15.196  0.00  0.00    +0.000 OA
ATOM     14  H   UNL     1       6.669   6.943  17.967  0.00  0.00    +0.000 HD
ATOM     15  H   UNL     1       7.103   7.629  16.419  0.00  0.00    +0.000 HD
ENDBRANCH   8  11
BRANCH   9  16
ATOM     16  N   UNL     1       5.291   3.566  16.809  0.00  0.00    +0.000 N 
ATOM     17  H   UNL     1       5.632   2.718  17.268  0.00  0.00    +0.000 HD
ATOM     18  H   UNL     1       5.663   3.712  15.879  0.00  0.00    +0.000 HD
ENDBRANCH   9  16
TORSDOF 2
ENDMDL
