MODEL 1
REMARK VINA RESULT:      -6.5      0.000      0.000
REMARK  Name = 
REMARK  10 active torsions:
REMARK  status: ('A' for Active; 'I' for Inactive)
REMARK    1  A    between atoms: C_1  and  C_2
REMARK    2  A    between atoms: C_2  and  C_3
REMARK    3  A    between atoms: C_3  and  C_4
REMARK    4  A    between atoms: C_4  and  C_5
REMARK    5  A    between atoms: C_5  and  C_27
REMARK    6  A    between atoms: C_6  and  C_7
REMARK    7  A    between atoms: C_6  and  C_18
REMARK    8  A    between atoms: C_10  and  C_11
REMARK    9  A    between atoms: C_12  and  C_13
REMARK   10  A    between atoms: C_13  and  O_15
REMARK                            x       y       z     vdW  Elec       q    Type
REMARK                         _______ _______ _______ _____ _____    ______ ____
ROOT
ATOM      1  C   UNL     1      -1.329  13.900  21.494  0.00  0.00    +0.000 C 
ATOM      2  C   UNL     1      -1.967  12.754  21.891  0.00  0.00    +0.000 C 
ENDROOT
BRANCH   2   3
ATOM      3  C   UNL     1      -3.318  12.724  22.569  0.00  0.00    +0.000 A 
ATOM      4  C   UNL     1      -3.394  12.517  23.963  0.00  0.00    +0.000 A 
ATOM      5  C   UNL     1      -4.599  12.550  24.681  0.00  0.00    +0.000 A 
ATOM      6  C   UNL     1      -5.746  12.847  23.952  0.00  0.00    +0.000 A 
ATOM      7  N   UNL     1      -7.045  13.042  24.335  0.00  0.00    +0.000 N 
ATOM      8  N   UNL     1      -7.876  13.339  23.319  0.00  0.00    +0.000 NA
ATOM      9  C   UNL     1      -7.079  13.305  22.249  0.00  0.00    +0.000 A 
ATOM     10  C   UNL     1      -5.740  12.997  22.574  0.00  0.00    +0.000 A 
ATOM     11  C   UNL     1      -4.529  12.852  21.868  0.00  0.00    +0.000 A 
ATOM     12  H   UNL     1      -7.424  13.011  25.274  0.00  0.00    +0.000 HD
ENDBRANCH   2   3
BRANCH   2  13
ATOM     13  C   UNL     1      -1.207  11.466  21.743  0.00  0.00    +0.000 A 
ATOM     14  C   UNL     1      -1.068  10.897  20.467  0.00  0.00    +0.000 A 
ATOM     15  C   UNL     1      -0.299   9.746  20.279  0.00  0.00    +0.000 A 
ATOM     16  C   UNL     1       0.334   9.128  21.364  0.00  0.00    +0.000 A 
ATOM     17  C   UNL     1       0.152   9.670  22.645  0.00  0.00    +0.000 A 
ATOM     18  C   UNL     1      -0.597  10.839  22.832  0.00  0.00    +0.000 A 
BRANCH  16  19
ATOM     19  C   UNL     1       1.123   7.913  21.111  0.00  0.00    +0.000 C 
ATOM     20  C   UNL     1       1.882   7.712  20.020  0.00  0.00    +0.000 C 
BRANCH  20  21
ATOM     21  C   UNL     1       2.607   6.435  19.869  0.00  0.00    +0.000 C 
ATOM     22  O   UNL     1       3.270   6.124  18.891  0.00  0.00    +0.000 OA
BRANCH  21  23
ATOM     23  O   UNL     1       2.460   5.638  20.945  0.00  0.00    +0.000 OA
ATOM     24  H   UNL     1       1.698   5.033  20.922  0.00  0.00    +0.000 HD
ENDBRANCH  21  23
ENDBRANCH  20  21
ENDBRANCH  16  19
ENDBRANCH   2  13
BRANCH   1  25
ATOM     25  C   UNL     1      -0.056  13.817  20.721  0.00  0.00    +0.000 A 
ATOM     26  C   UNL     1      -0.094  13.839  19.319  0.00  0.00    +0.000 A 
ATOM     27  C   UNL     1       1.080  13.683  18.579  0.00  0.00    +0.000 A 
ATOM     28  C   UNL     1       2.297  13.513  19.235  0.00  0.00    +0.000 A 
ATOM     29  C   UNL     1       2.347  13.522  20.629  0.00  0.00    +0.000 A 
ATOM     30  C   UNL     1       1.175  13.679  21.371  0.00  0.00    +0.000 A 
ENDBRANCH   1  25
BRANCH   1  31
ATOM     31  C   UNL     1      -1.747  15.358  21.677  0.00  0.00    +0.000 C 
BRANCH  31  32
ATOM     32  C   UNL     1      -1.585  15.994  23.067  0.00  0.00    +0.000 C 
BRANCH  32  34
ATOM     33  C   UNL     1      -4.038  16.441  22.823  0.00  0.00    +0.000 C 
ATOM     34  C   UNL     1      -2.894  16.251  23.812  0.00  0.00    +0.000 C 
ENDBRANCH  32  34
ENDBRANCH  31  32
ENDBRANCH   1  31
TORSDOF 9
ENDMDL
MODEL 2
REMARK VINA RESULT:      -6.3      0.652      1.262
REMARK  Name = 
REMARK  10 active torsions:
REMARK  status: ('A' for Active; 'I' for Inactive)
REMARK    1  A    between atoms: C_1  and  C_2
REMARK    2  A    between atoms: C_2  and  C_3
REMARK    3  A    between atoms: C_3  and  C_4
REMARK    4  A    between atoms: C_4  and  C_5
REMARK    5  A    between atoms: C_5  and  C_27
REMARK    6  A    between atoms: C_6  and  C_7
REMARK    7  A    between atoms: C_6  and  C_18
REMARK    8  A    between atoms: C_10  and  C_11
REMARK    9  A    between atoms: C_12  and  C_13
REMARK   10  A    between atoms: C_13  and  O_15
REMARK                            x       y       z     vdW  Elec       q    Type
REMARK                         _______ _______ _______ _____ _____    ______ ____
ROOT
ATOM      1  C   UNL     1      -1.348  14.085  21.646  0.00  0.00    +0.000 C 
ATOM      2  C   UNL     1      -2.005  12.919  21.937  0.00  0.00    +0.000 C 
ENDROOT
BRANCH   2   3
ATOM      3  C   UNL     1      -3.368  12.850  22.588  0.00  0.00    +0.000 A 
ATOM      4  C   UNL     1      -3.475  12.468  23.942  0.00  0.00    +0.000 A 
ATOM      5  C   UNL     1      -4.689  12.453  24.644  0.00  0.00    +0.000 A 
ATOM      6  C   UNL     1      -5.813  12.882  23.946  0.00  0.00    +0.000 A 
ATOM      7  N   UNL     1      -7.111  13.073  24.334  0.00  0.00    +0.000 N 
ATOM      8  N   UNL     1      -7.915  13.529  23.355  0.00  0.00    +0.000 NA
ATOM      9  C   UNL     1      -7.101  13.604  22.300  0.00  0.00    +0.000 A 
ATOM     10  C   UNL     1      -5.779  13.208  22.598  0.00  0.00    +0.000 A 
ATOM     11  C   UNL     1      -4.562  13.112  21.895  0.00  0.00    +0.000 A 
ATOM     12  H   UNL     1      -7.507  12.935  25.257  0.00  0.00    +0.000 HD
ENDBRANCH   2   3
BRANCH   2  13
ATOM     13  C   UNL     1      -1.258  11.637  21.695  0.00  0.00    +0.000 A 
ATOM     14  C   UNL     1      -0.714  10.946  22.788  0.00  0.00    +0.000 A 
ATOM     15  C   UNL     1      -0.085   9.711  22.610  0.00  0.00    +0.000 A 
ATOM     16  C   UNL     1       0.027   9.146  21.334  0.00  0.00    +0.000 A 
ATOM     17  C   UNL     1      -0.474   9.863  20.237  0.00  0.00    +0.000 A 
ATOM     18  C   UNL     1      -1.127  11.090  20.416  0.00  0.00    +0.000 A 
BRANCH  16  19
ATOM     19  C   UNL     1       0.705   7.849  21.203  0.00  0.00    +0.000 C 
ATOM     20  C   UNL     1       1.738   7.610  20.376  0.00  0.00    +0.000 C 
BRANCH  20  21
ATOM     21  C   UNL     1       2.317   6.254  20.315  0.00  0.00    +0.000 C 
ATOM     22  O   UNL     1       1.793   5.253  20.781  0.00  0.00    +0.000 OA
BRANCH  21  23
ATOM     23  O   UNL     1       3.502   6.237  19.676  0.00  0.00    +0.000 OA
ATOM     24  H   UNL     1       4.237   6.676  20.138  0.00  0.00    +0.000 HD
ENDBRANCH  21  23
ENDBRANCH  20  21
ENDBRANCH  16  19
ENDBRANCH   2  13
BRANCH   1  25
ATOM     25  C   UNL     1      -0.063  14.050  20.888  0.00  0.00    +0.000 A 
ATOM     26  C   UNL     1      -0.076  14.191  19.493  0.00  0.00    +0.000 A 
ATOM     27  C   UNL     1       1.107  14.081  18.761  0.00  0.00    +0.000 A 
ATOM     28  C   UNL     1       2.311  13.838  19.419  0.00  0.00    +0.000 A 
ATOM     29  C   UNL     1       2.337  13.728  20.810  0.00  0.00    +0.000 A 
ATOM     30  C   UNL     1       1.155  13.839  21.544  0.00  0.00    +0.000 A 
ENDBRANCH   1  25
BRANCH   1  31
ATOM     31  C   UNL     1      -1.752  15.529  21.942  0.00  0.00    +0.000 C 
BRANCH  31  32
ATOM     32  C   UNL     1      -1.231  16.181  23.232  0.00  0.00    +0.000 C 
BRANCH  32  34
ATOM     33  C   UNL     1      -2.181  15.552  25.463  0.00  0.00    +0.000 C 
ATOM     34  C   UNL     1      -1.111  15.235  24.426  0.00  0.00    +0.000 C 
ENDBRANCH  32  34
ENDBRANCH  31  32
ENDBRANCH   1  31
TORSDOF 9
ENDMDL
MODEL 3
REMARK VINA RESULT:      -6.3      0.401      1.309
REMARK  Name = 
REMARK  10 active torsions:
REMARK  status: ('A' for Active; 'I' for Inactive)
REMARK    1  A    between atoms: C_1  and  C_2
REMARK    2  A    between atoms: C_2  and  C_3
REMARK    3  A    between atoms: C_3  and  C_4
REMARK    4  A    between atoms: C_4  and  C_5
REMARK    5  A    between atoms: C_5  and  C_27
REMARK    6  A    between atoms: C_6  and  C_7
REMARK    7  A    between atoms: C_6  and  C_18
REMARK    8  A    between atoms: C_10  and  C_11
REMARK    9  A    between atoms: C_12  and  C_13
REMARK   10  A    between atoms: C_13  and  O_15
REMARK                            x       y       z     vdW  Elec       q    Type
REMARK                         _______ _______ _______ _____ _____    ______ ____
ROOT
ATOM      1  C   UNL     1      -1.239  14.060  21.496  0.00  0.00    +0.000 C 
ATOM      2  C   UNL     1      -1.855  12.879  21.816  0.00  0.00    +0.000 C 
ENDROOT
BRANCH   2   3
ATOM      3  C   UNL     1      -3.189  12.778  22.518  0.00  0.00    +0.000 A 
ATOM      4  C   UNL     1      -3.232  12.469  23.894  0.00  0.00    +0.000 A 
ATOM      5  C   UNL     1      -4.420  12.431  24.639  0.00  0.00    +0.000 A 
ATOM      6  C   UNL     1      -5.587  12.763  23.959  0.00  0.00    +0.000 A 
ATOM      7  N   UNL     1      -6.880  12.910  24.382  0.00  0.00    +0.000 N 
ATOM      8  N   UNL     1      -7.738  13.268  23.409  0.00  0.00    +0.000 NA
ATOM      9  C   UNL     1      -6.964  13.324  22.323  0.00  0.00    +0.000 A 
ATOM     10  C   UNL     1      -5.614  13.013  22.595  0.00  0.00    +0.000 A 
ATOM     11  C   UNL     1      -4.418  12.939  21.855  0.00  0.00    +0.000 A 
ATOM     12  H   UNL     1      -7.238  12.804  25.325  0.00  0.00    +0.000 HD
ENDBRANCH   2   3
BRANCH   2  13
ATOM     13  C   UNL     1      -1.085  11.615  21.550  0.00  0.00    +0.000 A 
ATOM     14  C   UNL     1      -0.475  10.947  22.624  0.00  0.00    +0.000 A 
ATOM     15  C   UNL     1       0.178   9.728  22.428  0.00  0.00    +0.000 A 
ATOM     16  C   UNL     1       0.250   9.157  21.152  0.00  0.00    +0.000 A 
ATOM     17  C   UNL     1      -0.316   9.851  20.072  0.00  0.00    +0.000 A 
ATOM     18  C   UNL     1      -0.994  11.061  20.272  0.00  0.00    +0.000 A 
BRANCH  16  19
ATOM     19  C   UNL     1       0.957   7.877  21.000  0.00  0.00    +0.000 C 
ATOM     20  C   UNL     1       1.872   7.620  20.049  0.00  0.00    +0.000 C 
BRANCH  20  21
ATOM     21  C   UNL     1       2.492   6.283  19.985  0.00  0.00    +0.000 C 
ATOM     22  O   UNL     1       3.094   5.841  19.016  0.00  0.00    +0.000 OA
BRANCH  21  23
ATOM     23  O   UNL     1       2.326   5.591  21.128  0.00  0.00    +0.000 OA
ATOM     24  H   UNL     1       1.609   5.901  21.708  0.00  0.00    +0.000 HD
ENDBRANCH  21  23
ENDBRANCH  20  21
ENDBRANCH  16  19
ENDBRANCH   2  13
BRANCH   1  25
ATOM     25  C   UNL     1       0.017  14.054  20.691  0.00  0.00    +0.000 A 
ATOM     26  C   UNL     1       1.255  13.922  21.338  0.00  0.00    +0.000 A 
ATOM     27  C   UNL     1       2.443  13.994  20.609  0.00  0.00    +0.000 A 
ATOM     28  C   UNL     1       2.402  14.189  19.230  0.00  0.00    +0.000 A 
ATOM     29  C   UNL     1       1.174  14.290  18.576  0.00  0.00    +0.000 A 
ATOM     30  C   UNL     1      -0.016  14.217  19.302  0.00  0.00    +0.000 A 
ENDBRANCH   1  25
BRANCH   1  31
ATOM     31  C   UNL     1      -1.668  15.494  21.802  0.00  0.00    +0.000 C 
BRANCH  31  32
ATOM     32  C   UNL     1      -1.947  15.875  23.264  0.00  0.00    +0.000 C 
BRANCH  32  34
ATOM     33  C   UNL     1      -3.666  16.048  25.079  0.00  0.00    +0.000 C 
ATOM     34  C   UNL     1      -3.412  16.171  23.581  0.00  0.00    +0.000 C 
ENDBRANCH  32  34
ENDBRANCH  31  32
ENDBRANCH   1  31
TORSDOF 9
ENDMDL
MODEL 4
REMARK VINA RESULT:      -6.2      1.021      1.816
REMARK  Name = 
REMARK  10 active torsions:
REMARK  status: ('A' for Active; 'I' for Inactive)
REMARK    1  A    between atoms: C_1  and  C_2
REMARK    2  A    between atoms: C_2  and  C_3
REMARK    3  A    between atoms: C_3  and  C_4
REMARK    4  A    between atoms: C_4  and  C_5
REMARK    5  A    between atoms: C_5  and  C_27
REMARK    6  A    between atoms: C_6  and  C_7
REMARK    7  A    between atoms: C_6  and  C_18
REMARK    8  A    between atoms: C_10  and  C_11
REMARK    9  A    between atoms: C_12  and  C_13
REMARK   10  A    between atoms: C_13  and  O_15
REMARK                            x       y       z     vdW  Elec       q    Type
REMARK                         _______ _______ _______ _____ _____    ______ ____
ROOT
ATOM      1  C   UNL     1      -0.882  13.925  20.652  0.00  0.00    +0.000 C 
ATOM      2  C   UNL     1      -1.607  12.796  20.926  0.00  0.00    +0.000 C 
ENDROOT
BRANCH   2   3
ATOM      3  C   UNL     1      -3.063  12.796  21.333  0.00  0.00    +0.000 A 
ATOM      4  C   UNL     1      -4.064  12.724  20.341  0.00  0.00    +0.000 A 
ATOM      5  C   UNL     1      -5.433  12.643  20.634  0.00  0.00    +0.000 A 
ATOM      6  C   UNL     1      -5.776  12.590  21.980  0.00  0.00    +0.000 A 
ATOM      7  N   UNL     1      -6.980  12.426  22.610  0.00  0.00    +0.000 N 
ATOM      8  N   UNL     1      -6.897  12.405  23.953  0.00  0.00    +0.000 NA
ATOM      9  C   UNL     1      -5.595  12.591  24.184  0.00  0.00    +0.000 A 
ATOM     10  C   UNL     1      -4.842  12.721  22.997  0.00  0.00    +0.000 A 
ATOM     11  C   UNL     1      -3.485  12.907  22.668  0.00  0.00    +0.000 A 
ATOM     12  H   UNL     1      -7.889  12.297  22.182  0.00  0.00    +0.000 HD
ENDBRANCH   2   3
BRANCH   2  13
ATOM     13  C   UNL     1      -0.859  11.492  20.932  0.00  0.00    +0.000 A 
ATOM     14  C   UNL     1      -0.728  10.772  19.734  0.00  0.00    +0.000 A 
ATOM     15  C   UNL     1       0.029   9.600  19.685  0.00  0.00    +0.000 A 
ATOM     16  C   UNL     1       0.661   9.111  20.835  0.00  0.00    +0.000 A 
ATOM     17  C   UNL     1       0.487   9.805  22.042  0.00  0.00    +0.000 A 
ATOM     18  C   UNL     1      -0.251  10.995  22.088  0.00  0.00    +0.000 A 
BRANCH  16  19
ATOM     19  C   UNL     1       1.438   7.868  20.729  0.00  0.00    +0.000 C 
ATOM     20  C   UNL     1       2.110   7.482  19.630  0.00  0.00    +0.000 C 
BRANCH  20  21
ATOM     21  C   UNL     1       2.832   6.195  19.640  0.00  0.00    +0.000 C 
ATOM     22  O   UNL     1       3.448   5.736  18.689  0.00  0.00    +0.000 OA
BRANCH  21  23
ATOM     23  O   UNL     1       2.742   5.571  20.830  0.00  0.00    +0.000 OA
ATOM     24  H   UNL     1       1.865   5.211  21.053  0.00  0.00    +0.000 HD
ENDBRANCH  21  23
ENDBRANCH  20  21
ENDBRANCH  16  19
ENDBRANCH   2  13
BRANCH   1  25
ATOM     25  C   UNL     1       0.513  13.812  20.137  0.00  0.00    +0.000 A 
ATOM     26  C   UNL     1       1.587  13.806  21.040  0.00  0.00    +0.000 A 
ATOM     27  C   UNL     1       2.902  13.781  20.572  0.00  0.00    +0.000 A 
ATOM     28  C   UNL     1       3.152  13.752  19.201  0.00  0.00    +0.000 A 
ATOM     29  C   UNL     1       2.088  13.726  18.298  0.00  0.00    +0.000 A 
ATOM     30  C   UNL     1       0.772  13.751  18.764  0.00  0.00    +0.000 A 
ENDBRANCH   1  25
BRANCH   1  31
ATOM     31  C   UNL     1      -1.298  15.393  20.744  0.00  0.00    +0.000 C 
BRANCH  31  32
ATOM     32  C   UNL     1      -1.488  16.010  22.139  0.00  0.00    +0.000 C 
BRANCH  32  34
ATOM     33  C   UNL     1      -1.275  14.920  24.385  0.00  0.00    +0.000 C 
ATOM     34  C   UNL     1      -0.513  15.505  23.202  0.00  0.00    +0.000 C 
ENDBRANCH  32  34
ENDBRANCH  31  32
ENDBRANCH   1  31
TORSDOF 9
ENDMDL
MODEL 5
REMARK VINA RESULT:      -6.1      1.439      2.435
REMARK  Name = 
REMARK  10 active torsions:
REMARK  status: ('A' for Active; 'I' for Inactive)
REMARK    1  A    between atoms: C_1  and  C_2
REMARK    2  A    between atoms: C_2  and  C_3
REMARK    3  A    between atoms: C_3  and  C_4
REMARK    4  A    between atoms: C_4  and  C_5
REMARK    5  A    between atoms: C_5  and  C_27
REMARK    6  A    between atoms: C_6  and  C_7
REMARK    7  A    between atoms: C_6  and  C_18
REMARK    8  A    between atoms: C_10  and  C_11
REMARK    9  A    between atoms: C_12  and  C_13
REMARK   10  A    between atoms: C_13  and  O_15
REMARK                            x       y       z     vdW  Elec       q    Type
REMARK                         _______ _______ _______ _____ _____    ______ ____
ROOT
ATOM      1  C   UNL     1      -0.472  14.037  20.591  0.00  0.00    +0.000 C 
ATOM      2  C   UNL     1      -1.203  12.902  20.823  0.00  0.00    +0.000 C 
ENDROOT
BRANCH   2   3
ATOM      3  C   UNL     1      -2.633  12.895  21.312  0.00  0.00    +0.000 A 
ATOM      4  C   UNL     1      -3.690  12.883  20.377  0.00  0.00    +0.000 A 
ATOM      5  C   UNL     1      -5.041  12.799  20.744  0.00  0.00    +0.000 A 
ATOM      6  C   UNL     1      -5.308  12.681  22.103  0.00  0.00    +0.000 A 
ATOM      7  N   UNL     1      -6.475  12.496  22.792  0.00  0.00    +0.000 N 
ATOM      8  N   UNL     1      -6.316  12.407  24.126  0.00  0.00    +0.000 NA
ATOM      9  C   UNL     1      -5.002  12.569  24.290  0.00  0.00    +0.000 A 
ATOM     10  C   UNL     1      -4.315  12.752  23.070  0.00  0.00    +0.000 A 
ATOM     11  C   UNL     1      -2.977  12.943  22.674  0.00  0.00    +0.000 A 
ATOM     12  H   UNL     1      -7.409  12.398  22.411  0.00  0.00    +0.000 HD
ENDBRANCH   2   3
BRANCH   2  13
ATOM     13  C   UNL     1      -0.482  11.590  20.691  0.00  0.00    +0.000 A 
ATOM     14  C   UNL     1      -0.492  10.925  19.455  0.00  0.00    +0.000 A 
ATOM     15  C   UNL     1       0.235   9.746  19.272  0.00  0.00    +0.000 A 
ATOM     16  C   UNL     1       0.976   9.197  20.325  0.00  0.00    +0.000 A 
ATOM     17  C   UNL     1       0.945   9.837  21.574  0.00  0.00    +0.000 A 
ATOM     18  C   UNL     1       0.237  11.033  21.751  0.00  0.00    +0.000 A 
BRANCH  16  19
ATOM     19  C   UNL     1       1.716   7.950  20.081  0.00  0.00    +0.000 C 
ATOM     20  C   UNL     1       2.335   7.645  18.927  0.00  0.00    +0.000 C 
BRANCH  20  21
ATOM     21  C   UNL     1       3.023   6.346  18.797  0.00  0.00    +0.000 C 
ATOM     22  O   UNL     1       3.185   5.749  17.743  0.00  0.00    +0.000 OA
BRANCH  21  23
ATOM     23  O   UNL     1       3.463   5.884  19.983  0.00  0.00    +0.000 OA
ATOM     24  H   UNL     1       2.802   5.857  20.697  0.00  0.00    +0.000 HD
ENDBRANCH  21  23
ENDBRANCH  20  21
ENDBRANCH  16  19
ENDBRANCH   2  13
BRANCH   1  25
ATOM     25  C   UNL     1       0.889  13.941  19.989  0.00  0.00    +0.000 A 
ATOM     26  C   UNL     1       2.020  14.123  20.799  0.00  0.00    +0.000 A 
ATOM     27  C   UNL     1       3.298  14.115  20.238  0.00  0.00    +0.000 A 
ATOM     28  C   UNL     1       3.455  13.915  18.869  0.00  0.00    +0.000 A 
ATOM     29  C   UNL     1       2.337  13.702  18.061  0.00  0.00    +0.000 A 
ATOM     30  C   UNL     1       1.057  13.709  18.620  0.00  0.00    +0.000 A 
ENDBRANCH   1  25
BRANCH   1  31
ATOM     31  C   UNL     1      -0.853  15.500  20.813  0.00  0.00    +0.000 C 
BRANCH  31  32
ATOM     32  C   UNL     1      -1.209  16.356  19.587  0.00  0.00    +0.000 C 
BRANCH  32  34
ATOM     33  C   UNL     1       0.999  17.405  19.035  0.00  0.00    +0.000 C 
ATOM     34  C   UNL     1      -0.436  17.669  19.476  0.00  0.00    +0.000 C 
ENDBRANCH  32  34
ENDBRANCH  31  32
ENDBRANCH   1  31
TORSDOF 9
ENDMDL
MODEL 6
REMARK VINA RESULT:      -6.1      1.776      2.529
REMARK  Name = 
REMARK  10 active torsions:
REMARK  status: ('A' for Active; 'I' for Inactive)
REMARK    1  A    between atoms: C_1  and  C_2
REMARK    2  A    between atoms: C_2  and  C_3
REMARK    3  A    between atoms: C_3  and  C_4
REMARK    4  A    between atoms: C_4  and  C_5
REMARK    5  A    between atoms: C_5  and  C_27
REMARK    6  A    between atoms: C_6  and  C_7
REMARK    7  A    between atoms: C_6  and  C_18
REMARK    8  A    between atoms: C_10  and  C_11
REMARK    9  A    between atoms: C_12  and  C_13
REMARK   10  A    between atoms: C_13  and  O_15
REMARK                            x       y       z     vdW  Elec       q    Type
REMARK                         _______ _______ _______ _____ _____    ______ ____
ROOT
ATOM      1  C   UNL     1      -1.144  13.895  20.147  0.00  0.00    +0.000 C 
ATOM      2  C   UNL     1      -1.755  12.689  19.925  0.00  0.00    +0.000 C 
ENDROOT
BRANCH   2   3
ATOM      3  C   UNL     1      -3.252  12.481  19.926  0.00  0.00    +0.000 A 
ATOM      4  C   UNL     1      -3.880  11.928  18.789  0.00  0.00    +0.000 A 
ATOM      5  C   UNL     1      -5.249  11.631  18.735  0.00  0.00    +0.000 A 
ATOM      6  C   UNL     1      -5.981  11.869  19.893  0.00  0.00    +0.000 A 
ATOM      7  N   UNL     1      -7.288  11.622  20.214  0.00  0.00    +0.000 N 
ATOM      8  N   UNL     1      -7.622  11.983  21.467  0.00  0.00    +0.000 NA
ATOM      9  C   UNL     1      -6.491  12.504  21.948  0.00  0.00    +0.000 A 
ATOM     10  C   UNL     1      -5.432  12.470  21.016  0.00  0.00    +0.000 A 
ATOM     11  C   UNL     1      -4.076  12.853  21.001  0.00  0.00    +0.000 A 
ATOM     12  H   UNL     1      -7.996  11.187  19.634  0.00  0.00    +0.000 HD
ENDBRANCH   2   3
BRANCH   2  13
ATOM     13  C   UNL     1      -0.862  11.488  19.793  0.00  0.00    +0.000 A 
ATOM     14  C   UNL     1      -0.332  11.165  18.534  0.00  0.00    +0.000 A 
ATOM     15  C   UNL     1       0.567  10.105  18.388  0.00  0.00    +0.000 A 
ATOM     16  C   UNL     1       0.944   9.335  19.494  0.00  0.00    +0.000 A 
ATOM     17  C   UNL     1       0.375   9.628  20.743  0.00  0.00    +0.000 A 
ATOM     18  C   UNL     1      -0.507  10.707  20.895  0.00  0.00    +0.000 A 
BRANCH  16  19
ATOM     19  C   UNL     1       1.886   8.226  19.283  0.00  0.00    +0.000 C 
ATOM     20  C   UNL     1       2.538   7.989  18.132  0.00  0.00    +0.000 C 
BRANCH  20  21
ATOM     21  C   UNL     1       3.439   6.824  18.037  0.00  0.00    +0.000 C 
ATOM     22  O   UNL     1       3.431   5.876  18.807  0.00  0.00    +0.000 OA
BRANCH  21  23
ATOM     23  O   UNL     1       4.281   6.918  16.990  0.00  0.00    +0.000 OA
ATOM     24  H   UNL     1       4.191   6.225  16.312  0.00  0.00    +0.000 HD
ENDBRANCH  21  23
ENDBRANCH  20  21
ENDBRANCH  16  19
ENDBRANCH   2  13
BRANCH   1  25
ATOM     25  C   UNL     1       0.336  14.022  20.001  0.00  0.00    +0.000 A 
ATOM     26  C   UNL     1       0.878  14.453  18.781  0.00  0.00    +0.000 A 
ATOM     27  C   UNL     1       2.261  14.501  18.602  0.00  0.00    +0.000 A 
ATOM     28  C   UNL     1       3.110  14.127  19.641  0.00  0.00    +0.000 A 
ATOM     29  C   UNL     1       2.579  13.727  20.867  0.00  0.00    +0.000 A 
ATOM     30  C   UNL     1       1.195  13.679  21.050  0.00  0.00    +0.000 A 
ENDBRANCH   1  25
BRANCH   1  31
ATOM     31  C   UNL     1      -1.761  15.248  20.499  0.00  0.00    +0.000 C 
BRANCH  31  32
ATOM     32  C   UNL     1      -1.469  15.844  21.885  0.00  0.00    +0.000 C 
BRANCH  32  34
ATOM     33  C   UNL     1      -1.341  14.170  23.745  0.00  0.00    +0.000 C 
ATOM     34  C   UNL     1      -2.228  15.188  23.038  0.00  0.00    +0.000 C 
ENDBRANCH  32  34
ENDBRANCH  31  32
ENDBRANCH   1  31
TORSDOF 9
ENDMDL
MODEL 7
REMARK VINA RESULT:      -6.0      0.814      1.457
REMARK  Name = 
REMARK  10 active torsions:
REMARK  status: ('A' for Active; 'I' for Inactive)
REMARK    1  A    between atoms: C_1  and  C_2
REMARK    2  A    between atoms: C_2  and  C_3
REMARK    3  A    between atoms: C_3  and  C_4
REMARK    4  A    between atoms: C_4  and  C_5
REMARK    5  A    between atoms: C_5  and  C_27
REMARK    6  A    between atoms: C_6  and  C_7
REMARK    7  A    between atoms: C_6  and  C_18
REMARK    8  A    between atoms: C_10  and  C_11
REMARK    9  A    between atoms: C_12  and  C_13
REMARK   10  A    between atoms: C_13  and  O_15
REMARK                            x       y       z     vdW  Elec       q    Type
REMARK                         _______ _______ _______ _____ _____    ______ ____
ROOT
ATOM      1  C   UNL     1      -1.099  14.000  21.460  0.00  0.00    +0.000 C 
ATOM      2  C   UNL     1      -1.732  12.829  21.787  0.00  0.00    +0.000 C 
ENDROOT
BRANCH   2   3
ATOM      3  C   UNL     1      -3.067  12.752  22.491  0.00  0.00    +0.000 A 
ATOM      4  C   UNL     1      -3.109  12.546  23.887  0.00  0.00    +0.000 A 
ATOM      5  C   UNL     1      -4.300  12.538  24.628  0.00  0.00    +0.000 A 
ATOM      6  C   UNL     1      -5.471  12.792  23.922  0.00  0.00    +0.000 A 
ATOM      7  N   UNL     1      -6.768  12.942  24.330  0.00  0.00    +0.000 N 
ATOM      8  N   UNL     1      -7.630  13.207  23.330  0.00  0.00    +0.000 NA
ATOM      9  C   UNL     1      -6.853  13.198  22.245  0.00  0.00    +0.000 A 
ATOM     10  C   UNL     1      -5.497  12.939  22.544  0.00  0.00    +0.000 A 
ATOM     11  C   UNL     1      -4.296  12.836  21.814  0.00  0.00    +0.000 A 
ATOM     12  H   UNL     1      -7.127  12.899  25.276  0.00  0.00    +0.000 HD
ENDBRANCH   2   3
BRANCH   2  13
ATOM     13  C   UNL     1      -0.981  11.554  21.528  0.00  0.00    +0.000 A 
ATOM     14  C   UNL     1      -0.415  10.861  22.609  0.00  0.00    +0.000 A 
ATOM     15  C   UNL     1       0.218   9.631  22.417  0.00  0.00    +0.000 A 
ATOM     16  C   UNL     1       0.314   9.072  21.137  0.00  0.00    +0.000 A 
ATOM     17  C   UNL     1      -0.208   9.790  20.050  0.00  0.00    +0.000 A 
ATOM     18  C   UNL     1      -0.866  11.013  20.245  0.00  0.00    +0.000 A 
BRANCH  16  19
ATOM     19  C   UNL     1       0.999   7.780  20.989  0.00  0.00    +0.000 C 
ATOM     20  C   UNL     1       1.915   7.507  20.044  0.00  0.00    +0.000 C 
BRANCH  20  21
ATOM     21  C   UNL     1       2.512   6.159  19.983  0.00  0.00    +0.000 C 
ATOM     22  O   UNL     1       3.022   5.669  18.987  0.00  0.00    +0.000 OA
BRANCH  21  23
ATOM     23  O   UNL     1       2.436   5.517  21.165  0.00  0.00    +0.000 OA
ATOM     24  H   UNL     1       3.063   5.814  21.847  0.00  0.00    +0.000 HD
ENDBRANCH  21  23
ENDBRANCH  20  21
ENDBRANCH  16  19
ENDBRANCH   2  13
BRANCH   1  25
ATOM     25  C   UNL     1       0.156  13.971  20.654  0.00  0.00    +0.000 A 
ATOM     26  C   UNL     1       0.093  14.170  19.266  0.00  0.00    +0.000 A 
ATOM     27  C   UNL     1       1.246  14.067  18.487  0.00  0.00    +0.000 A 
ATOM     28  C   UNL     1       2.469  13.775  19.088  0.00  0.00    +0.000 A 
ATOM     29  C   UNL     1       2.544  13.606  20.471  0.00  0.00    +0.000 A 
ATOM     30  C   UNL     1       1.392  13.709  21.254  0.00  0.00    +0.000 A 
ENDBRANCH   1  25
BRANCH   1  31
ATOM     31  C   UNL     1      -1.508  15.441  21.758  0.00  0.00    +0.000 C 
BRANCH  31  32
ATOM     32  C   UNL     1      -0.636  16.261  22.722  0.00  0.00    +0.000 C 
BRANCH  32  34
ATOM     33  C   UNL     1       1.041  17.446  21.285  0.00  0.00    +0.000 C 
ATOM     34  C   UNL     1      -0.180  17.616  22.181  0.00  0.00    +0.000 C 
ENDBRANCH  32  34
ENDBRANCH  31  32
ENDBRANCH   1  31
TORSDOF 9
ENDMDL
MODEL 8
REMARK VINA RESULT:      -6.0      2.083      3.041
REMARK  Name = 
REMARK  10 active torsions:
REMARK  status: ('A' for Active; 'I' for Inactive)
REMARK    1  A    between atoms: C_1  and  C_2
REMARK    2  A    between atoms: C_2  and  C_3
REMARK    3  A    between atoms: C_3  and  C_4
REMARK    4  A    between atoms: C_4  and  C_5
REMARK    5  A    between atoms: C_5  and  C_27
REMARK    6  A    between atoms: C_6  and  C_7
REMARK    7  A    between atoms: C_6  and  C_18
REMARK    8  A    between atoms: C_10  and  C_11
REMARK    9  A    between atoms: C_12  and  C_13
REMARK   10  A    between atoms: C_13  and  O_15
REMARK                            x       y       z     vdW  Elec       q    Type
REMARK                         _______ _______ _______ _____ _____    ______ ____
ROOT
ATOM      1  C   UNL     1      -0.867  13.485  19.622  0.00  0.00    +0.000 C 
ATOM      2  C   UNL     1      -1.467  12.275  19.395  0.00  0.00    +0.000 C 
ENDROOT
BRANCH   2   3
ATOM      3  C   UNL     1      -2.954  12.085  19.203  0.00  0.00    +0.000 A 
ATOM      4  C   UNL     1      -3.436  11.513  18.005  0.00  0.00    +0.000 A 
ATOM      5  C   UNL     1      -4.791  11.232  17.777  0.00  0.00    +0.000 A 
ATOM      6  C   UNL     1      -5.665  11.505  18.823  0.00  0.00    +0.000 A 
ATOM      7  N   UNL     1      -7.006  11.281  18.975  0.00  0.00    +0.000 N 
ATOM      8  N   UNL     1      -7.496  11.674  20.166  0.00  0.00    +0.000 NA
ATOM      9  C   UNL     1      -6.431  12.191  20.781  0.00  0.00    +0.000 A 
ATOM     10  C   UNL     1      -5.259  12.124  19.996  0.00  0.00    +0.000 A 
ATOM     11  C   UNL     1      -3.907  12.491  20.152  0.00  0.00    +0.000 A 
ATOM     12  H   UNL     1      -7.637  10.841  18.316  0.00  0.00    +0.000 HD
ENDBRANCH   2   3
BRANCH   2  13
ATOM     13  C   UNL     1      -0.589  11.057  19.462  0.00  0.00    +0.000 A 
ATOM     14  C   UNL     1       0.008  10.577  18.286  0.00  0.00    +0.000 A 
ATOM     15  C   UNL     1       0.894   9.499  18.324  0.00  0.00    +0.000 A 
ATOM     16  C   UNL     1       1.193   8.865  19.536  0.00  0.00    +0.000 A 
ATOM     17  C   UNL     1       0.556   9.314  20.703  0.00  0.00    +0.000 A 
ATOM     18  C   UNL     1      -0.314  10.412  20.670  0.00  0.00    +0.000 A 
BRANCH  16  19
ATOM     19  C   UNL     1       2.125   7.728  19.518  0.00  0.00    +0.000 C 
ATOM     20  C   UNL     1       2.715   7.245  18.410  0.00  0.00    +0.000 C 
BRANCH  20  21
ATOM     21  C   UNL     1       3.613   6.079  18.520  0.00  0.00    +0.000 C 
ATOM     22  O   UNL     1       4.019   5.424  17.572  0.00  0.00    +0.000 OA
BRANCH  21  23
ATOM     23  O   UNL     1       3.947   5.814  19.798  0.00  0.00    +0.000 OA
ATOM     24  H   UNL     1       3.716   6.502  20.446  0.00  0.00    +0.000 HD
ENDBRANCH  21  23
ENDBRANCH  20  21
ENDBRANCH  16  19
ENDBRANCH   2  13
BRANCH   1  25
ATOM     25  C   UNL     1       0.620  13.585  19.673  0.00  0.00    +0.000 A 
ATOM     26  C   UNL     1       1.277  13.530  20.911  0.00  0.00    +0.000 A 
ATOM     27  C   UNL     1       2.660  13.701  20.984  0.00  0.00    +0.000 A 
ATOM     28  C   UNL     1       3.396  13.918  19.822  0.00  0.00    +0.000 A 
ATOM     29  C   UNL     1       2.754  13.943  18.583  0.00  0.00    +0.000 A 
ATOM     30  C   UNL     1       1.371  13.771  18.507  0.00  0.00    +0.000 A 
ENDBRANCH   1  25
BRANCH   1  31
ATOM     31  C   UNL     1      -1.499  14.865  19.799  0.00  0.00    +0.000 C 
BRANCH  31  32
ATOM     32  C   UNL     1      -1.451  15.515  21.191  0.00  0.00    +0.000 C 
BRANCH  32  34
ATOM     33  C   UNL     1      -1.679  13.913  23.105  0.00  0.00    +0.000 C 
ATOM     34  C   UNL     1      -2.412  14.910  22.214  0.00  0.00    +0.000 C 
ENDBRANCH  32  34
ENDBRANCH  31  32
ENDBRANCH   1  31
TORSDOF 9
ENDMDL
MODEL 9
REMARK VINA RESULT:      -6.0      1.227      2.140
REMARK  Name = 
REMARK  10 active torsions:
REMARK  status: ('A' for Active; 'I' for Inactive)
REMARK    1  A    between atoms: C_1  and  C_2
REMARK    2  A    between atoms: C_2  and  C_3
REMARK    3  A    between atoms: C_3  and  C_4
REMARK    4  A    between atoms: C_4  and  C_5
REMARK    5  A    between atoms: C_5  and  C_27
REMARK    6  A    between atoms: C_6  and  C_7
REMARK    7  A    between atoms: C_6  and  C_18
REMARK    8  A    between atoms: C_10  and  C_11
REMARK    9  A    between atoms: C_12  and  C_13
REMARK   10  A    between atoms: C_13  and  O_15
REMARK                            x       y       z     vdW  Elec       q    Type
REMARK                         _______ _______ _______ _____ _____    ______ ____
ROOT
ATOM      1  C   UNL     1      -0.498  14.192  20.813  0.00  0.00    +0.000 C 
ATOM      2  C   UNL     1      -1.204  13.027  20.958  0.00  0.00    +0.000 C 
ENDROOT
BRANCH   2   3
ATOM      3  C   UNL     1      -2.654  12.958  21.379  0.00  0.00    +0.000 A 
ATOM      4  C   UNL     1      -3.661  12.848  20.396  0.00  0.00    +0.000 A 
ATOM      5  C   UNL     1      -5.022  12.702  20.701  0.00  0.00    +0.000 A 
ATOM      6  C   UNL     1      -5.349  12.623  22.051  0.00  0.00    +0.000 A 
ATOM      7  N   UNL     1      -6.537  12.399  22.691  0.00  0.00    +0.000 N 
ATOM      8  N   UNL     1      -6.440  12.372  24.033  0.00  0.00    +0.000 NA
ATOM      9  C   UNL     1      -5.146  12.615  24.252  0.00  0.00    +0.000 A 
ATOM     10  C   UNL     1      -4.412  12.788  23.059  0.00  0.00    +0.000 A 
ATOM     11  C   UNL     1      -3.067  13.040  22.719  0.00  0.00    +0.000 A 
ATOM     12  H   UNL     1      -7.444  12.233  22.270  0.00  0.00    +0.000 HD
ENDBRANCH   2   3
BRANCH   2  13
ATOM     13  C   UNL     1      -0.440  11.743  20.799  0.00  0.00    +0.000 A 
ATOM     14  C   UNL     1       0.122  11.136  21.933  0.00  0.00    +0.000 A 
ATOM     15  C   UNL     1       0.768   9.901  21.837  0.00  0.00    +0.000 A 
ATOM     16  C   UNL     1       0.880   9.252  20.601  0.00  0.00    +0.000 A 
ATOM     17  C   UNL     1       0.362   9.884  19.461  0.00  0.00    +0.000 A 
ATOM     18  C   UNL     1      -0.308  11.111  19.561  0.00  0.00    +0.000 A 
BRANCH  16  19
ATOM     19  C   UNL     1       1.578   7.958  20.554  0.00  0.00    +0.000 C 
ATOM     20  C   UNL     1       2.218   7.477  19.475  0.00  0.00    +0.000 C 
BRANCH  20  21
ATOM     21  C   UNL     1       2.857   6.149  19.546  0.00  0.00    +0.000 C 
ATOM     22  O   UNL     1       3.617   5.698  18.701  0.00  0.00    +0.000 OA
BRANCH  21  23
ATOM     23  O   UNL     1       2.512   5.479  20.662  0.00  0.00    +0.000 OA
ATOM     24  H   UNL     1       1.556   5.371  20.811  0.00  0.00    +0.000 HD
ENDBRANCH  21  23
ENDBRANCH  20  21
ENDBRANCH  16  19
ENDBRANCH   2  13
BRANCH   1  25
ATOM     25  C   UNL     1       0.892  14.161  20.272  0.00  0.00    +0.000 A 
ATOM     26  C   UNL     1       1.979  14.097  21.156  0.00  0.00    +0.000 A 
ATOM     27  C   UNL     1       3.287  14.147  20.671  0.00  0.00    +0.000 A 
ATOM     28  C   UNL     1       3.517  14.253  19.301  0.00  0.00    +0.000 A 
ATOM     29  C   UNL     1       2.441  14.286  18.413  0.00  0.00    +0.000 A 
ATOM     30  C   UNL     1       1.132  14.235  18.896  0.00  0.00    +0.000 A 
ENDBRANCH   1  25
BRANCH   1  31
ATOM     31  C   UNL     1      -0.931  15.632  21.086  0.00  0.00    +0.000 C 
BRANCH  31  32
ATOM     32  C   UNL     1      -1.984  16.263  20.162  0.00  0.00    +0.000 C 
BRANCH  32  34
ATOM     33  C   UNL     1      -4.442  16.506  20.588  0.00  0.00    +0.000 C 
ATOM     34  C   UNL     1      -3.059  17.079  20.879  0.00  0.00    +0.000 C 
ENDBRANCH  32  34
ENDBRANCH  31  32
ENDBRANCH   1  31
TORSDOF 9
ENDMDL
