MODEL 1
REMARK VINA RESULT:      -5.5      0.000      0.000
REMARK  Name = 
REMARK  3 active torsions:
REMARK  status: ('A' for Active; 'I' for Inactive)
REMARK    1  A    between atoms: C_1  and  C_2
REMARK    2  A    between atoms: C_2  and  C_3
REMARK    3  A    between atoms: C_2  and  C_4
REMARK                            x       y       z     vdW  Elec       q    Type
REMARK                         _______ _______ _______ _____ _____    ______ ____
ROOT
ATOM      1  C   UNL     1       6.630   4.524  14.910  0.00  0.00    +0.000 A 
ATOM      2  N   UNL     1       5.674   3.785  15.490  0.00  0.00    +0.000 NA
ATOM      3  C   UNL     1       5.317   4.136  16.746  0.00  0.00    +0.000 A 
ATOM      4 CL   UNL     1       4.082   3.112  17.377  0.00  0.00    +0.000 Cl
ATOM      5  C   UNL     1       5.859   5.180  17.459  0.00  0.00    +0.000 A 
ATOM      6 CL   UNL     1       5.382   5.585  19.061  0.00  0.00    +0.000 Cl
ATOM      7  C   UNL     1       6.823   5.864  16.759  0.00  0.00    +0.000 A 
ATOM      8 CL   UNL     1       7.664   7.222  17.403  0.00  0.00    +0.000 Cl
ATOM      9  N   UNL     1       7.225   5.567  15.503  0.00  0.00    +0.000 NA
ENDROOT
BRANCH   1  11
ATOM     10  C   UNL     1       5.877   3.640  12.689  0.00  0.00    +0.000 C 
ATOM     11  C   UNL     1       7.063   4.148  13.510  0.00  0.00    +0.000 C 
ATOM     12  C   UNL     1       7.742   5.329  12.817  0.00  0.00    +0.000 C 
ENDBRANCH   1  11
TORSDOF 1
ENDMDL
MODEL 2
REMARK VINA RESULT:      -5.5      0.027      2.600
REMARK  Name = 
REMARK  3 active torsions:
REMARK  status: ('A' for Active; 'I' for Inactive)
REMARK    1  A    between atoms: C_1  and  C_2
REMARK    2  A    between atoms: C_2  and  C_3
REMARK    3  A    between atoms: C_2  and  C_4
REMARK                            x       y       z     vdW  Elec       q    Type
REMARK                         _______ _______ _______ _____ _____    ______ ____
ROOT
ATOM      1  C   UNL     1       6.645   4.494  14.914  0.00  0.00    +0.000 A 
ATOM      2  N   UNL     1       7.240   5.540  15.506  0.00  0.00    +0.000 NA
ATOM      3  C   UNL     1       6.823   5.845  16.755  0.00  0.00    +0.000 A 
ATOM      4 CL   UNL     1       7.664   7.204  17.403  0.00  0.00    +0.000 Cl
ATOM      5  C   UNL     1       5.846   5.171  17.449  0.00  0.00    +0.000 A 
ATOM      6 CL   UNL     1       5.338   5.601  19.035  0.00  0.00    +0.000 Cl
ATOM      7  C   UNL     1       5.316   4.118  16.743  0.00  0.00    +0.000 A 
ATOM      8 CL   UNL     1       4.081   3.094  17.371  0.00  0.00    +0.000 Cl
ATOM      9  N   UNL     1       5.687   3.758  15.494  0.00  0.00    +0.000 NA
ENDROOT
BRANCH   1  11
ATOM     10  C   UNL     1       5.896   3.621  12.689  0.00  0.00    +0.000 C 
ATOM     11  C   UNL     1       7.078   4.135  13.510  0.00  0.00    +0.000 C 
ATOM     12  C   UNL     1       7.741   5.330  12.824  0.00  0.00    +0.000 C 
ENDBRANCH   1  11
TORSDOF 1
ENDMDL
MODEL 3
REMARK VINA RESULT:      -5.5      3.536      4.095
REMARK  Name = 
REMARK  3 active torsions:
REMARK  status: ('A' for Active; 'I' for Inactive)
REMARK    1  A    between atoms: C_1  and  C_2
REMARK    2  A    between atoms: C_2  and  C_3
REMARK    3  A    between atoms: C_2  and  C_4
REMARK                            x       y       z     vdW  Elec       q    Type
REMARK                         _______ _______ _______ _____ _____    ______ ____
ROOT
ATOM      1  C   UNL     1       5.787   5.544  17.889  0.00  0.00    +0.000 A 
ATOM      2  N   UNL     1       5.445   4.249  17.851  0.00  0.00    +0.000 NA
ATOM      3  C   UNL     1       4.122   3.975  17.801  0.00  0.00    +0.000 A 
ATOM      4 CL   UNL     1       3.815   2.279  17.754  0.00  0.00    +0.000 Cl
ATOM      5  C   UNL     1       3.119   4.916  17.788  0.00  0.00    +0.000 A 
ATOM      6 CL   UNL     1       1.447   4.522  17.735  0.00  0.00    +0.000 Cl
ATOM      7  C   UNL     1       3.594   6.205  17.825  0.00  0.00    +0.000 A 
ATOM      8 CL   UNL     1       2.562   7.585  17.812  0.00  0.00    +0.000 Cl
ATOM      9  N   UNL     1       4.900   6.548  17.875  0.00  0.00    +0.000 NA
ENDROOT
BRANCH   1  11
ATOM     10  C   UNL     1       7.512   7.316  17.486  0.00  0.00    +0.000 C 
ATOM     11  C   UNL     1       7.259   5.885  17.961  0.00  0.00    +0.000 C 
ATOM     12  C   UNL     1       7.796   5.677  19.377  0.00  0.00    +0.000 C 
ENDBRANCH   1  11
TORSDOF 1
ENDMDL
MODEL 4
REMARK VINA RESULT:      -5.5      3.856      4.356
REMARK  Name = 
REMARK  3 active torsions:
REMARK  status: ('A' for Active; 'I' for Inactive)
REMARK    1  A    between atoms: C_1  and  C_2
REMARK    2  A    between atoms: C_2  and  C_3
REMARK    3  A    between atoms: C_2  and  C_4
REMARK                            x       y       z     vdW  Elec       q    Type
REMARK                         _______ _______ _______ _____ _____    ______ ____
ROOT
ATOM      1  C   UNL     1       5.829   5.305  18.473  0.00  0.00    +0.000 A 
ATOM      2  N   UNL     1       5.639   4.117  19.063  0.00  0.00    +0.000 NA
ATOM      3  C   UNL     1       4.361   3.784  19.354  0.00  0.00    +0.000 A 
ATOM      4 CL   UNL     1       4.251   2.237  20.108  0.00  0.00    +0.000 Cl
ATOM      5  C   UNL     1       3.261   4.568  19.093  0.00  0.00    +0.000 A 
ATOM      6 CL   UNL     1       1.652   4.109  19.491  0.00  0.00    +0.000 Cl
ATOM      7  C   UNL     1       3.582   5.756  18.483  0.00  0.00    +0.000 A 
ATOM      8 CL   UNL     1       2.402   6.928  18.034  0.00  0.00    +0.000 Cl
ATOM      9  N   UNL     1       4.835   6.149  18.164  0.00  0.00    +0.000 NA
ENDROOT
BRANCH   1  11
ATOM     10  C   UNL     1       7.276   7.059  17.421  0.00  0.00    +0.000 C 
ATOM     11  C   UNL     1       7.248   5.714  18.147  0.00  0.00    +0.000 C 
ATOM     12  C   UNL     1       8.104   5.759  19.413  0.00  0.00    +0.000 C 
ENDBRANCH   1  11
TORSDOF 1
ENDMDL
MODEL 5
REMARK VINA RESULT:      -5.5      3.866      4.676
REMARK  Name = 
REMARK  3 active torsions:
REMARK  status: ('A' for Active; 'I' for Inactive)
REMARK    1  A    between atoms: C_1  and  C_2
REMARK    2  A    between atoms: C_2  and  C_3
REMARK    3  A    between atoms: C_2  and  C_4
REMARK                            x       y       z     vdW  Elec       q    Type
REMARK                         _______ _______ _______ _____ _____    ______ ____
ROOT
ATOM      1  C   UNL     1       5.842   5.305  18.490  0.00  0.00    +0.000 A 
ATOM      2  N   UNL     1       4.845   6.149  18.188  0.00  0.00    +0.000 NA
ATOM      3  C   UNL     1       3.592   5.735  18.485  0.00  0.00    +0.000 A 
ATOM      4 CL   UNL     1       2.405   6.907  18.050  0.00  0.00    +0.000 Cl
ATOM      5  C   UNL     1       3.275   4.528  19.064  0.00  0.00    +0.000 A 
ATOM      6 CL   UNL     1       1.665   4.038  19.414  0.00  0.00    +0.000 Cl
ATOM      7  C   UNL     1       4.379   3.755  19.331  0.00  0.00    +0.000 A 
ATOM      8 CL   UNL     1       4.278   2.198  20.061  0.00  0.00    +0.000 Cl
ATOM      9  N   UNL     1       5.655   4.108  19.061  0.00  0.00    +0.000 NA
ENDROOT
BRANCH   1  11
ATOM     10  C   UNL     1       7.264   7.087  17.449  0.00  0.00    +0.000 C 
ATOM     11  C   UNL     1       7.254   5.731  18.157  0.00  0.00    +0.000 C 
ATOM     12  C   UNL     1       8.122   5.767  19.415  0.00  0.00    +0.000 C 
ENDBRANCH   1  11
TORSDOF 1
ENDMDL
MODEL 6
REMARK VINA RESULT:      -5.5      3.192      4.339
REMARK  Name = 
REMARK  3 active torsions:
REMARK  status: ('A' for Active; 'I' for Inactive)
REMARK    1  A    between atoms: C_1  and  C_2
REMARK    2  A    between atoms: C_2  and  C_3
REMARK    3  A    between atoms: C_2  and  C_4
REMARK                            x       y       z     vdW  Elec       q    Type
REMARK                         _______ _______ _______ _____ _____    ______ ____
ROOT
ATOM      1  C   UNL     1       5.701   5.135  18.326  0.00  0.00    +0.000 A 
ATOM      2  N   UNL     1       4.781   6.080  18.089  0.00  0.00    +0.000 NA
ATOM      3  C   UNL     1       3.544   5.859  18.587  0.00  0.00    +0.000 A 
ATOM      4 CL   UNL     1       2.458   7.145  18.214  0.00  0.00    +0.000 Cl
ATOM      5  C   UNL     1       3.169   4.749  19.307  0.00  0.00    +0.000 A 
ATOM      6 CL   UNL     1       1.579   4.503  19.914  0.00  0.00    +0.000 Cl
ATOM      7  C   UNL     1       4.197   3.856  19.490  0.00  0.00    +0.000 A 
ATOM      8 CL   UNL     1       4.015   2.381  20.362  0.00  0.00    +0.000 Cl
ATOM      9  N   UNL     1       5.454   4.016  19.021  0.00  0.00    +0.000 NA
ENDROOT
BRANCH   1  11
ATOM     10  C   UNL     1       7.255   4.632  16.427  0.00  0.00    +0.000 C 
ATOM     11  C   UNL     1       7.091   5.345  17.770  0.00  0.00    +0.000 C 
ATOM     12  C   UNL     1       7.405   6.835  17.639  0.00  0.00    +0.000 C 
ENDBRANCH   1  11
TORSDOF 1
ENDMDL
MODEL 7
REMARK VINA RESULT:      -5.5      3.261      4.012
REMARK  Name = 
REMARK  3 active torsions:
REMARK  status: ('A' for Active; 'I' for Inactive)
REMARK    1  A    between atoms: C_1  and  C_2
REMARK    2  A    between atoms: C_2  and  C_3
REMARK    3  A    between atoms: C_2  and  C_4
REMARK                            x       y       z     vdW  Elec       q    Type
REMARK                         _______ _______ _______ _____ _____    ______ ____
ROOT
ATOM      1  C   UNL     1       5.703   5.117  18.399  0.00  0.00    +0.000 A 
ATOM      2  N   UNL     1       5.439   3.995  19.082  0.00  0.00    +0.000 NA
ATOM      3  C   UNL     1       4.171   3.843  19.529  0.00  0.00    +0.000 A 
ATOM      4 CL   UNL     1       3.961   2.364  20.388  0.00  0.00    +0.000 Cl
ATOM      5  C   UNL     1       3.152   4.747  19.335  0.00  0.00    +0.000 A 
ATOM      6 CL   UNL     1       1.555   4.518  19.931  0.00  0.00    +0.000 Cl
ATOM      7  C   UNL     1       3.543   5.852  18.619  0.00  0.00    +0.000 A 
ATOM      8 CL   UNL     1       2.471   7.140  18.222  0.00  0.00    +0.000 Cl
ATOM      9  N   UNL     1       4.790   6.064  18.143  0.00  0.00    +0.000 NA
ENDROOT
BRANCH   1  11
ATOM     10  C   UNL     1       7.345   4.575  16.586  0.00  0.00    +0.000 C 
ATOM     11  C   UNL     1       7.115   5.325  17.899  0.00  0.00    +0.000 C 
ATOM     12  C   UNL     1       7.421   6.814  17.738  0.00  0.00    +0.000 C 
ENDBRANCH   1  11
TORSDOF 1
ENDMDL
MODEL 8
REMARK VINA RESULT:      -5.4      3.088      4.393
REMARK  Name = 
REMARK  3 active torsions:
REMARK  status: ('A' for Active; 'I' for Inactive)
REMARK    1  A    between atoms: C_1  and  C_2
REMARK    2  A    between atoms: C_2  and  C_3
REMARK    3  A    between atoms: C_2  and  C_4
REMARK                            x       y       z     vdW  Elec       q    Type
REMARK                         _______ _______ _______ _____ _____    ______ ____
ROOT
ATOM      1  C   UNL     1       4.871   4.100  18.231  0.00  0.00    +0.000 A 
ATOM      2  N   UNL     1       4.620   4.844  17.144  0.00  0.00    +0.000 NA
ATOM      3  C   UNL     1       5.458   5.880  16.914  0.00  0.00    +0.000 A 
ATOM      4 CL   UNL     1       5.028   6.754  15.491  0.00  0.00    +0.000 Cl
ATOM      5  C   UNL     1       6.531   6.219  17.704  0.00  0.00    +0.000 A 
ATOM      6 CL   UNL     1       7.566   7.553  17.378  0.00  0.00    +0.000 Cl
ATOM      7  C   UNL     1       6.690   5.382  18.782  0.00  0.00    +0.000 A 
ATOM      8 CL   UNL     1       7.957   5.566  19.934  0.00  0.00    +0.000 Cl
ATOM      9  N   UNL     1       5.891   4.330  19.069  0.00  0.00    +0.000 NA
ENDROOT
BRANCH   1  11
ATOM     10  C   UNL     1       3.465   2.983  19.978  0.00  0.00    +0.000 C 
ATOM     11  C   UNL     1       3.943   2.943  18.526  0.00  0.00    +0.000 C 
ATOM     12  C   UNL     1       2.757   2.938  17.561  0.00  0.00    +0.000 C 
ENDBRANCH   1  11
TORSDOF 1
ENDMDL
MODEL 9
REMARK VINA RESULT:      -5.4      3.589      4.670
REMARK  Name = 
REMARK  3 active torsions:
REMARK  status: ('A' for Active; 'I' for Inactive)
REMARK    1  A    between atoms: C_1  and  C_2
REMARK    2  A    between atoms: C_2  and  C_3
REMARK    3  A    between atoms: C_2  and  C_4
REMARK                            x       y       z     vdW  Elec       q    Type
REMARK                         _______ _______ _______ _____ _____    ______ ____
ROOT
ATOM      1  C   UNL     1       5.245   4.557  18.379  0.00  0.00    +0.000 A 
ATOM      2  N   UNL     1       5.455   3.596  19.290  0.00  0.00    +0.000 NA
ATOM      3  C   UNL     1       4.370   2.895  19.690  0.00  0.00    +0.000 A 
ATOM      4 CL   UNL     1       4.772   1.693  20.858  0.00  0.00    +0.000 Cl
ATOM      5  C   UNL     1       3.088   3.096  19.235  0.00  0.00    +0.000 A 
ATOM      6 CL   UNL     1       1.734   2.186  19.780  0.00  0.00    +0.000 Cl
ATOM      7  C   UNL     1       3.000   4.101  18.303  0.00  0.00    +0.000 A 
ATOM      8 CL   UNL     1       1.518   4.563  17.558  0.00  0.00    +0.000 Cl
ATOM      9  N   UNL     1       4.043   4.839  17.860  0.00  0.00    +0.000 NA
ENDROOT
BRANCH   1  11
ATOM     10  C   UNL     1       7.348   5.712  19.101  0.00  0.00    +0.000 C 
ATOM     11  C   UNL     1       6.435   5.370  17.923  0.00  0.00    +0.000 C 
ATOM     12  C   UNL     1       7.209   4.634  16.829  0.00  0.00    +0.000 C 
ENDBRANCH   1  11
TORSDOF 1
ENDMDL
