MODEL 1
REMARK VINA RESULT:      -6.9      0.000      0.000
REMARK  Name = 
REMARK  12 active torsions:
REMARK  status: ('A' for Active; 'I' for Inactive)
REMARK    1  A    between atoms: C_1  and  C_2
REMARK    2  A    between atoms: C_2  and  C_3
REMARK    3  A    between atoms: C_2  and  C_4
REMARK    4  A    between atoms: C_2  and  O_5
REMARK    5  A    between atoms: O_5  and  C_6
REMARK    6  A    between atoms: N_8  and  C_9
REMARK    7  A    between atoms: C_15  and  N_16
REMARK    8  A    between atoms: N_16  and  C_17
REMARK    9  A    between atoms: C_17  and  N_19
REMARK   10  A    between atoms: N_19  and  C_20
REMARK   11  A    between atoms: C_28  and  C_29
REMARK   12  A    between atoms: C_28  and  C_30
REMARK                            x       y       z     vdW  Elec       q    Type
REMARK                         _______ _______ _______ _____ _____    ______ ____
ROOT
ATOM      1  C   UNL     1      -2.127  12.756  21.974  0.00  0.00    +0.000 A 
ATOM      2  C   UNL     1      -1.262  11.876  22.646  0.00  0.00    +0.000 A 
ATOM      3  C   UNL     1      -0.389  11.048  21.965  0.00  0.00    +0.000 A 
ATOM      4  C   UNL     1      -0.380  11.042  20.582  0.00  0.00    +0.000 A 
ATOM      5  C   UNL     1      -1.269  11.843  19.855  0.00  0.00    +0.000 A 
ATOM      6  C   UNL     1      -2.138  12.725  20.573  0.00  0.00    +0.000 A 
ATOM      7  C   UNL     1      -1.192  11.840  18.343  0.00  0.00    +0.000 C 
ATOM      8  C   UNL     1      -0.506  10.546  17.877  0.00  0.00    +0.000 C 
ATOM      9  C   UNL     1       0.799  10.302  18.645  0.00  0.00    +0.000 C 
ATOM     10  C   UNL     1       1.380   8.944  18.219  0.00  0.00    +0.000 C 
ATOM     11  C   UNL     1       1.865  11.382  18.407  0.00  0.00    +0.000 C 
ATOM     12  O   UNL     1       0.546  10.196  20.047  0.00  0.00    +0.000 OA
ENDROOT
BRANCH   1  15
ATOM     13  C   UNL     1      -4.239  13.365  23.080  0.00  0.00    +0.000 C 
ATOM     14  O   UNL     1      -4.759  12.268  22.891  0.00  0.00    +0.000 OA
ATOM     15  N   UNL     1      -2.953  13.667  22.688  0.00  0.00    +0.000 N 
ATOM     16  H   UNL     1      -2.562  14.526  23.059  0.00  0.00    +0.000 HD
BRANCH  13  17
ATOM     17  O   UNL     1      -4.881  14.363  23.756  0.00  0.00    +0.000 OA
BRANCH  17  19
ATOM     18  C   UNL     1      -6.049  16.478  23.210  0.00  0.00    +0.000 C 
ATOM     19  C   UNL     1      -6.045  14.945  23.073  0.00  0.00    +0.000 C 
ATOM     20  C   UNL     1      -7.372  14.360  23.599  0.00  0.00    +0.000 C 
ATOM     21  C   UNL     1      -5.938  14.634  21.565  0.00  0.00    +0.000 C 
ENDBRANCH  17  19
ENDBRANCH  13  17
ENDBRANCH   1  15
BRANCH   7  22
ATOM     22  N   UNL     1      -2.501  12.064  17.695  0.00  0.00    +0.000 N 
ATOM     23  H   UNL     1      -3.024  12.884  17.988  0.00  0.00    +0.000 HD
BRANCH  22  24
ATOM     24  C   UNL     1      -3.210  11.100  16.985  0.00  0.00    +0.000 C 
ATOM     25  S   UNL     1      -3.007  10.769  15.354  0.00  0.00    +0.000 S 
BRANCH  24  26
ATOM     26  N   UNL     1      -4.219  10.550  17.776  0.00  0.00    +0.000 N 
ATOM     27  H   UNL     1      -3.895   9.803  18.379  0.00  0.00    +0.000 HD
BRANCH  26  28
ATOM     28  C   UNL     1      -5.430  11.185  18.158  0.00  0.00    +0.000 A 
ATOM     29  C   UNL     1      -5.985  12.183  17.351  0.00  0.00    +0.000 A 
ATOM     30  C   UNL     1      -7.138  12.866  17.762  0.00  0.00    +0.000 A 
ATOM     31  C   UNL     1      -7.736  12.561  18.985  0.00  0.00    +0.000 A 
ATOM     32  C   UNL     1      -7.182  11.570  19.790  0.00  0.00    +0.000 A 
ATOM     33 CL   UNL     1      -7.899  11.197  21.309  0.00  0.00    +0.000 Cl
ATOM     34  C   UNL     1      -6.035  10.889  19.386  0.00  0.00    +0.000 A 
ENDBRANCH  26  28
ENDBRANCH  24  26
ENDBRANCH  22  24
ENDBRANCH   7  22
TORSDOF 7
ENDMDL
MODEL 2
REMARK VINA RESULT:      -6.9      4.369      9.275
REMARK  Name = 
REMARK  12 active torsions:
REMARK  status: ('A' for Active; 'I' for Inactive)
REMARK    1  A    between atoms: C_1  and  C_2
REMARK    2  A    between atoms: C_2  and  C_3
REMARK    3  A    between atoms: C_2  and  C_4
REMARK    4  A    between atoms: C_2  and  O_5
REMARK    5  A    between atoms: O_5  and  C_6
REMARK    6  A    between atoms: N_8  and  C_9
REMARK    7  A    between atoms: C_15  and  N_16
REMARK    8  A    between atoms: N_16  and  C_17
REMARK    9  A    between atoms: C_17  and  N_19
REMARK   10  A    between atoms: N_19  and  C_20
REMARK   11  A    between atoms: C_28  and  C_29
REMARK   12  A    between atoms: C_28  and  C_30
REMARK                            x       y       z     vdW  Elec       q    Type
REMARK                         _______ _______ _______ _____ _____    ______ ____
ROOT
ATOM      1  C   UNL     1       3.148   6.984  18.003  0.00  0.00    +0.000 A 
ATOM      2  C   UNL     1       3.066   6.208  19.171  0.00  0.00    +0.000 A 
ATOM      3  C   UNL     1       2.375   6.640  20.288  0.00  0.00    +0.000 A 
ATOM      4  C   UNL     1       1.775   7.886  20.290  0.00  0.00    +0.000 A 
ATOM      5  C   UNL     1       1.883   8.737  19.183  0.00  0.00    +0.000 A 
ATOM      6  C   UNL     1       2.565   8.259  18.018  0.00  0.00    +0.000 A 
ATOM      7  C   UNL     1       1.172  10.073  19.210  0.00  0.00    +0.000 C 
ATOM      8  C   UNL     1       0.905  10.470  20.670  0.00  0.00    +0.000 C 
ATOM      9  C   UNL     1       0.261   9.318  21.451  0.00  0.00    +0.000 C 
ATOM     10  C   UNL     1       0.121   9.733  22.924  0.00  0.00    +0.000 C 
ATOM     11  C   UNL     1      -1.126   8.918  20.926  0.00  0.00    +0.000 C 
ATOM     12  O   UNL     1       1.111   8.170  21.447  0.00  0.00    +0.000 OA
ENDROOT
BRANCH   1  15
ATOM     13  C   UNL     1       5.119   6.683  16.562  0.00  0.00    +0.000 C 
ATOM     14  O   UNL     1       5.884   7.255  17.335  0.00  0.00    +0.000 OA
ATOM     15  N   UNL     1       3.782   6.488  16.832  0.00  0.00    +0.000 N 
ATOM     16  H   UNL     1       3.292   5.845  16.219  0.00  0.00    +0.000 HD
BRANCH  13  17
ATOM     17  O   UNL     1       5.553   6.135  15.389  0.00  0.00    +0.000 OA
BRANCH  17  19
ATOM     18  C   UNL     1       4.998   3.874  16.235  0.00  0.00    +0.000 C 
ATOM     19  C   UNL     1       6.014   4.742  15.471  0.00  0.00    +0.000 C 
ATOM     20  C   UNL     1       7.406   4.633  16.126  0.00  0.00    +0.000 C 
ATOM     21  C   UNL     1       6.101   4.167  14.041  0.00  0.00    +0.000 C 
ENDBRANCH  17  19
ENDBRANCH  13  17
ENDBRANCH   1  15
BRANCH   7  22
ATOM     22  N   UNL     1       1.879  11.121  18.446  0.00  0.00    +0.000 N 
ATOM     23  H   UNL     1       2.767  10.865  18.027  0.00  0.00    +0.000 HD
BRANCH  22  24
ATOM     24  C   UNL     1       1.605  12.484  18.529  0.00  0.00    +0.000 C 
ATOM     25  S   UNL     1       2.504  13.589  19.413  0.00  0.00    +0.000 S 
BRANCH  24  26
ATOM     26  N   UNL     1       0.395  12.782  17.902  0.00  0.00    +0.000 N 
ATOM     27  H   UNL     1       0.452  12.768  16.891  0.00  0.00    +0.000 HD
BRANCH  26  28
ATOM     28  C   UNL     1      -0.902  12.630  18.459  0.00  0.00    +0.000 A 
ATOM     29  C   UNL     1      -1.216  13.232  19.682  0.00  0.00    +0.000 A 
ATOM     30  C   UNL     1      -2.469  13.022  20.273  0.00  0.00    +0.000 A 
ATOM     31  C   UNL     1      -3.410  12.202  19.650  0.00  0.00    +0.000 A 
ATOM     32  C   UNL     1      -3.097  11.600  18.435  0.00  0.00    +0.000 A 
ATOM     33 CL   UNL     1      -4.243  10.571  17.667  0.00  0.00    +0.000 Cl
ATOM     34  C   UNL     1      -1.852  11.805  17.845  0.00  0.00    +0.000 A 
ENDBRANCH  26  28
ENDBRANCH  24  26
ENDBRANCH  22  24
ENDBRANCH   7  22
TORSDOF 7
ENDMDL
MODEL 3
REMARK VINA RESULT:      -6.8      7.285     11.002
REMARK  Name = 
REMARK  12 active torsions:
REMARK  status: ('A' for Active; 'I' for Inactive)
REMARK    1  A    between atoms: C_1  and  C_2
REMARK    2  A    between atoms: C_2  and  C_3
REMARK    3  A    between atoms: C_2  and  C_4
REMARK    4  A    between atoms: C_2  and  O_5
REMARK    5  A    between atoms: O_5  and  C_6
REMARK    6  A    between atoms: N_8  and  C_9
REMARK    7  A    between atoms: C_15  and  N_16
REMARK    8  A    between atoms: N_16  and  C_17
REMARK    9  A    between atoms: C_17  and  N_19
REMARK   10  A    between atoms: N_19  and  C_20
REMARK   11  A    between atoms: C_28  and  C_29
REMARK   12  A    between atoms: C_28  and  C_30
REMARK                            x       y       z     vdW  Elec       q    Type
REMARK                         _______ _______ _______ _____ _____    ______ ____
ROOT
ATOM      1  C   UNL     1       1.946   6.963  19.959  0.00  0.00    +0.000 A 
ATOM      2  C   UNL     1       1.061   5.995  20.460  0.00  0.00    +0.000 A 
ATOM      3  C   UNL     1       1.302   4.641  20.318  0.00  0.00    +0.000 A 
ATOM      4  C   UNL     1       2.421   4.208  19.629  0.00  0.00    +0.000 A 
ATOM      5  C   UNL     1       3.303   5.124  19.042  0.00  0.00    +0.000 A 
ATOM      6  C   UNL     1       3.063   6.522  19.234  0.00  0.00    +0.000 A 
ATOM      7  C   UNL     1       4.539   4.607  18.337  0.00  0.00    +0.000 C 
ATOM      8  C   UNL     1       4.312   3.141  17.936  0.00  0.00    +0.000 C 
ATOM      9  C   UNL     1       3.782   2.317  19.116  0.00  0.00    +0.000 C 
ATOM     10  C   UNL     1       3.469   0.894  18.627  0.00  0.00    +0.000 C 
ATOM     11  C   UNL     1       4.766   2.221  20.291  0.00  0.00    +0.000 C 
ATOM     12  O   UNL     1       2.543   2.850  19.586  0.00  0.00    +0.000 OA
ENDROOT
BRANCH   1  15
ATOM     13  C   UNL     1       1.457   9.247  19.186  0.00  0.00    +0.000 C 
ATOM     14  O   UNL     1       1.320   8.918  18.010  0.00  0.00    +0.000 OA
ATOM     15  N   UNL     1       1.734   8.349  20.193  0.00  0.00    +0.000 N 
ATOM     16  H   UNL     1       1.637   8.697  21.141  0.00  0.00    +0.000 HD
BRANCH  13  17
ATOM     17  O   UNL     1       1.282  10.537  19.599  0.00  0.00    +0.000 OA
BRANCH  17  19
ATOM     18  C   UNL     1      -0.265  10.389  21.528  0.00  0.00    +0.000 C 
ATOM     19  C   UNL     1      -0.065  10.873  20.081  0.00  0.00    +0.000 C 
ATOM     20  C   UNL     1      -1.164  10.290  19.168  0.00  0.00    +0.000 C 
ATOM     21  C   UNL     1      -0.212  12.409  20.102  0.00  0.00    +0.000 C 
ENDBRANCH  17  19
ENDBRANCH  13  17
ENDBRANCH   1  15
BRANCH   7  22
ATOM     22  N   UNL     1       4.959   5.458  17.205  0.00  0.00    +0.000 N 
ATOM     23  H   UNL     1       4.282   5.604  16.464  0.00  0.00    +0.000 HD
BRANCH  22  24
ATOM     24  C   UNL     1       6.278   5.792  16.912  0.00  0.00    +0.000 C 
ATOM     25  S   UNL     1       6.971   7.293  17.192  0.00  0.00    +0.000 S 
BRANCH  24  26
ATOM     26  N   UNL     1       6.904   4.759  16.215  0.00  0.00    +0.000 N 
ATOM     27  H   UNL     1       6.965   3.896  16.743  0.00  0.00    +0.000 HD
BRANCH  26  28
ATOM     28  C   UNL     1       7.013   4.639  14.805  0.00  0.00    +0.000 A 
ATOM     29  C   UNL     1       7.911   5.447  14.099  0.00  0.00    +0.000 A 
ATOM     30  C   UNL     1       7.967   5.388  12.700  0.00  0.00    +0.000 A 
ATOM     31  C   UNL     1       7.120   4.527  12.000  0.00  0.00    +0.000 A 
ATOM     32  C   UNL     1       6.225   3.725  12.702  0.00  0.00    +0.000 A 
ATOM     33 CL   UNL     1       5.163   2.674  11.849  0.00  0.00    +0.000 Cl
ATOM     34  C   UNL     1       6.165   3.782  14.092  0.00  0.00    +0.000 A 
ENDBRANCH  26  28
ENDBRANCH  24  26
ENDBRANCH  22  24
ENDBRANCH   7  22
TORSDOF 7
ENDMDL
MODEL 4
REMARK VINA RESULT:      -6.7      4.375      9.245
REMARK  Name = 
REMARK  12 active torsions:
REMARK  status: ('A' for Active; 'I' for Inactive)
REMARK    1  A    between atoms: C_1  and  C_2
REMARK    2  A    between atoms: C_2  and  C_3
REMARK    3  A    between atoms: C_2  and  C_4
REMARK    4  A    between atoms: C_2  and  O_5
REMARK    5  A    between atoms: O_5  and  C_6
REMARK    6  A    between atoms: N_8  and  C_9
REMARK    7  A    between atoms: C_15  and  N_16
REMARK    8  A    between atoms: N_16  and  C_17
REMARK    9  A    between atoms: C_17  and  N_19
REMARK   10  A    between atoms: N_19  and  C_20
REMARK   11  A    between atoms: C_28  and  C_29
REMARK   12  A    between atoms: C_28  and  C_30
REMARK                            x       y       z     vdW  Elec       q    Type
REMARK                         _______ _______ _______ _____ _____    ______ ____
ROOT
ATOM      1  C   UNL     1       3.166   6.984  17.969  0.00  0.00    +0.000 A 
ATOM      2  C   UNL     1       3.172   6.205  19.138  0.00  0.00    +0.000 A 
ATOM      3  C   UNL     1       2.503   6.599  20.282  0.00  0.00    +0.000 A 
ATOM      4  C   UNL     1       1.838   7.812  20.309  0.00  0.00    +0.000 A 
ATOM      5  C   UNL     1       1.857   8.667  19.201  0.00  0.00    +0.000 A 
ATOM      6  C   UNL     1       2.517   8.227  18.009  0.00  0.00    +0.000 A 
ATOM      7  C   UNL     1       1.077   9.963  19.259  0.00  0.00    +0.000 C 
ATOM      8  C   UNL     1       0.847  10.346  20.729  0.00  0.00    +0.000 C 
ATOM      9  C   UNL     1       0.297   9.160  21.532  0.00  0.00    +0.000 C 
ATOM     10  C   UNL     1       0.193   9.567  23.011  0.00  0.00    +0.000 C 
ATOM     11  C   UNL     1      -1.087   8.687  21.062  0.00  0.00    +0.000 C 
ATOM     12  O   UNL     1       1.206   8.060  21.492  0.00  0.00    +0.000 OA
ENDROOT
BRANCH   1  15
ATOM     13  C   UNL     1       5.130   6.638  16.528  0.00  0.00    +0.000 C 
ATOM     14  O   UNL     1       5.924   7.101  17.345  0.00  0.00    +0.000 OA
ATOM     15  N   UNL     1       3.779   6.524  16.772  0.00  0.00    +0.000 N 
ATOM     16  H   UNL     1       3.253   5.959  16.113  0.00  0.00    +0.000 HD
BRANCH  13  17
ATOM     17  O   UNL     1       5.541   6.140  15.325  0.00  0.00    +0.000 OA
BRANCH  17  19
ATOM     18  C   UNL     1       7.358   4.589  15.977  0.00  0.00    +0.000 C 
ATOM     19  C   UNL     1       5.969   4.734  15.332  0.00  0.00    +0.000 C 
ATOM     20  C   UNL     1       5.974   4.127  13.913  0.00  0.00    +0.000 C 
ATOM     21  C   UNL     1       4.987   3.924  16.206  0.00  0.00    +0.000 C 
ENDBRANCH  17  19
ENDBRANCH  13  17
ENDBRANCH   1  15
BRANCH   7  22
ATOM     22  N   UNL     1       1.695  11.048  18.470  0.00  0.00    +0.000 N 
ATOM     23  H   UNL     1       2.557  10.827  17.981  0.00  0.00    +0.000 HD
BRANCH  22  24
ATOM     24  C   UNL     1       1.390  12.399  18.604  0.00  0.00    +0.000 C 
ATOM     25  S   UNL     1       2.245  13.484  19.555  0.00  0.00    +0.000 S 
BRANCH  24  26
ATOM     26  N   UNL     1       0.189  12.699  17.962  0.00  0.00    +0.000 N 
ATOM     27  H   UNL     1       0.280  12.784  16.957  0.00  0.00    +0.000 HD
BRANCH  26  28
ATOM     28  C   UNL     1      -1.116  12.434  18.453  0.00  0.00    +0.000 A 
ATOM     29  C   UNL     1      -2.015  11.681  17.690  0.00  0.00    +0.000 A 
ATOM     30  C   UNL     1      -3.329  11.482  18.135  0.00  0.00    +0.000 A 
ATOM     31  C   UNL     1      -3.754  12.043  19.340  0.00  0.00    +0.000 A 
ATOM     32  C   UNL     1      -2.861  12.795  20.098  0.00  0.00    +0.000 A 
ATOM     33 CL   UNL     1      -3.379  13.507  21.577  0.00  0.00    +0.000 Cl
ATOM     34  C   UNL     1      -1.555  12.996  19.659  0.00  0.00    +0.000 A 
ENDBRANCH  26  28
ENDBRANCH  24  26
ENDBRANCH  22  24
ENDBRANCH   7  22
TORSDOF 7
ENDMDL
MODEL 5
REMARK VINA RESULT:      -6.5      2.857      7.276
REMARK  Name = 
REMARK  12 active torsions:
REMARK  status: ('A' for Active; 'I' for Inactive)
REMARK    1  A    between atoms: C_1  and  C_2
REMARK    2  A    between atoms: C_2  and  C_3
REMARK    3  A    between atoms: C_2  and  C_4
REMARK    4  A    between atoms: C_2  and  O_5
REMARK    5  A    between atoms: O_5  and  C_6
REMARK    6  A    between atoms: N_8  and  C_9
REMARK    7  A    between atoms: C_15  and  N_16
REMARK    8  A    between atoms: N_16  and  C_17
REMARK    9  A    between atoms: C_17  and  N_19
REMARK   10  A    between atoms: N_19  and  C_20
REMARK   11  A    between atoms: C_28  and  C_29
REMARK   12  A    between atoms: C_28  and  C_30
REMARK                            x       y       z     vdW  Elec       q    Type
REMARK                         _______ _______ _______ _____ _____    ______ ____
ROOT
ATOM      1  C   UNL     1       1.568   9.427  17.938  0.00  0.00    +0.000 A 
ATOM      2  C   UNL     1       2.512  10.467  17.917  0.00  0.00    +0.000 A 
ATOM      3  C   UNL     1       2.200  11.746  18.340  0.00  0.00    +0.000 A 
ATOM      4  C   UNL     1       0.915  12.039  18.761  0.00  0.00    +0.000 A 
ATOM      5  C   UNL     1      -0.089  11.063  18.736  0.00  0.00    +0.000 A 
ATOM      6  C   UNL     1       0.259   9.734  18.336  0.00  0.00    +0.000 A 
ATOM      7  C   UNL     1      -1.469  11.416  19.250  0.00  0.00    +0.000 C 
ATOM      8  C   UNL     1      -1.648  12.942  19.204  0.00  0.00    +0.000 C 
ATOM      9  C   UNL     1      -0.455  13.660  19.849  0.00  0.00    +0.000 C 
ATOM     10  C   UNL     1      -0.636  15.176  19.674  0.00  0.00    +0.000 C 
ATOM     11  C   UNL     1      -0.292  13.361  21.346  0.00  0.00    +0.000 C 
ATOM     12  O   UNL     1       0.757  13.330  19.170  0.00  0.00    +0.000 OA
ENDROOT
BRANCH   1  15
ATOM     13  C   UNL     1       2.364   7.170  18.509  0.00  0.00    +0.000 C 
ATOM     14  O   UNL     1       2.430   7.400  19.715  0.00  0.00    +0.000 OA
ATOM     15  N   UNL     1       1.928   8.097  17.588  0.00  0.00    +0.000 N 
ATOM     16  H   UNL     1       1.735   7.744  16.656  0.00  0.00    +0.000 HD
BRANCH  13  17
ATOM     17  O   UNL     1       2.665   5.943  17.990  0.00  0.00    +0.000 OA
BRANCH  17  19
ATOM     18  C   UNL     1       4.837   6.900  17.282  0.00  0.00    +0.000 C 
ATOM     19  C   UNL     1       4.097   5.661  17.816  0.00  0.00    +0.000 C 
ATOM     20  C   UNL     1       4.336   4.455  16.883  0.00  0.00    +0.000 C 
ATOM     21  C   UNL     1       4.708   5.339  19.196  0.00  0.00    +0.000 C 
ENDBRANCH  17  19
ENDBRANCH  13  17
ENDBRANCH   1  15
BRANCH   7  22
ATOM     22  N   UNL     1      -2.550  10.686  18.556  0.00  0.00    +0.000 N 
ATOM     23  H   UNL     1      -2.614   9.688  18.726  0.00  0.00    +0.000 HD
BRANCH  22  24
ATOM     24  C   UNL     1      -3.258  11.173  17.460  0.00  0.00    +0.000 C 
ATOM     25  S   UNL     1      -2.826  10.934  15.858  0.00  0.00    +0.000 S 
BRANCH  24  26
ATOM     26  N   UNL     1      -4.290  12.013  17.876  0.00  0.00    +0.000 N 
ATOM     27  H   UNL     1      -4.543  12.711  17.187  0.00  0.00    +0.000 HD
BRANCH  26  28
ATOM     28  C   UNL     1      -5.271  11.720  18.859  0.00  0.00    +0.000 A 
ATOM     29  C   UNL     1      -6.160  10.656  18.669  0.00  0.00    +0.000 A 
ATOM     30  C   UNL     1      -7.178  10.410  19.599  0.00  0.00    +0.000 A 
ATOM     31  C   UNL     1      -7.320  11.231  20.719  0.00  0.00    +0.000 A 
ATOM     32  C   UNL     1      -6.437  12.290  20.907  0.00  0.00    +0.000 A 
ATOM     33 CL   UNL     1      -6.613  13.321  22.274  0.00  0.00    +0.000 Cl
ATOM     34  C   UNL     1      -5.424  12.539  19.984  0.00  0.00    +0.000 A 
ENDBRANCH  26  28
ENDBRANCH  24  26
ENDBRANCH  22  24
ENDBRANCH   7  22
TORSDOF 7
ENDMDL
MODEL 6
REMARK VINA RESULT:      -6.5      7.297     10.900
REMARK  Name = 
REMARK  12 active torsions:
REMARK  status: ('A' for Active; 'I' for Inactive)
REMARK    1  A    between atoms: C_1  and  C_2
REMARK    2  A    between atoms: C_2  and  C_3
REMARK    3  A    between atoms: C_2  and  C_4
REMARK    4  A    between atoms: C_2  and  O_5
REMARK    5  A    between atoms: O_5  and  C_6
REMARK    6  A    between atoms: N_8  and  C_9
REMARK    7  A    between atoms: C_15  and  N_16
REMARK    8  A    between atoms: N_16  and  C_17
REMARK    9  A    between atoms: C_17  and  N_19
REMARK   10  A    between atoms: N_19  and  C_20
REMARK   11  A    between atoms: C_28  and  C_29
REMARK   12  A    between atoms: C_28  and  C_30
REMARK                            x       y       z     vdW  Elec       q    Type
REMARK                         _______ _______ _______ _____ _____    ______ ____
ROOT
ATOM      1  C   UNL     1       2.134   7.055  20.151  0.00  0.00    +0.000 A 
ATOM      2  C   UNL     1       1.213   6.111  20.634  0.00  0.00    +0.000 A 
ATOM      3  C   UNL     1       1.379   4.755  20.427  0.00  0.00    +0.000 A 
ATOM      4  C   UNL     1       2.457   4.296  19.690  0.00  0.00    +0.000 A 
ATOM      5  C   UNL     1       3.370   5.192  19.120  0.00  0.00    +0.000 A 
ATOM      6  C   UNL     1       3.208   6.590  19.379  0.00  0.00    +0.000 A 
ATOM      7  C   UNL     1       4.560   4.644  18.360  0.00  0.00    +0.000 C 
ATOM      8  C   UNL     1       4.247   3.211  17.902  0.00  0.00    +0.000 C 
ATOM      9  C   UNL     1       3.704   2.363  19.060  0.00  0.00    +0.000 C 
ATOM     10  C   UNL     1       3.306   0.981  18.519  0.00  0.00    +0.000 C 
ATOM     11  C   UNL     1       4.711   2.165  20.203  0.00  0.00    +0.000 C 
ATOM     12  O   UNL     1       2.506   2.937  19.585  0.00  0.00    +0.000 OA
ENDROOT
BRANCH   1  15
ATOM     13  C   UNL     1       0.883   8.970  21.057  0.00  0.00    +0.000 C 
ATOM     14  O   UNL     1      -0.067   8.287  21.434  0.00  0.00    +0.000 OA
ATOM     15  N   UNL     1       2.000   8.438  20.451  0.00  0.00    +0.000 N 
ATOM     16  H   UNL     1       2.796   9.060  20.355  0.00  0.00    +0.000 HD
BRANCH  13  17
ATOM     17  O   UNL     1       0.931  10.318  21.267  0.00  0.00    +0.000 OA
BRANCH  17  19
ATOM     18  C   UNL     1       0.970  12.364  19.871  0.00  0.00    +0.000 C 
ATOM     19  C   UNL     1       0.159  11.136  20.321  0.00  0.00    +0.000 C 
ATOM     20  C   UNL     1      -1.194  11.580  20.916  0.00  0.00    +0.000 C 
ATOM     21  C   UNL     1      -0.116  10.298  19.055  0.00  0.00    +0.000 C 
ENDBRANCH  17  19
ENDBRANCH  13  17
ENDBRANCH   1  15
BRANCH   7  22
ATOM     22  N   UNL     1       4.996   5.522  17.255  0.00  0.00    +0.000 N 
ATOM     23  H   UNL     1       4.307   5.740  16.543  0.00  0.00    +0.000 HD
BRANCH  22  24
ATOM     24  C   UNL     1       6.323   5.794  16.936  0.00  0.00    +0.000 C 
ATOM     25  S   UNL     1       7.089   7.262  17.198  0.00  0.00    +0.000 S 
BRANCH  24  26
ATOM     26  N   UNL     1       6.888   4.731  16.230  0.00  0.00    +0.000 N 
ATOM     27  H   UNL     1       6.891   3.861  16.748  0.00  0.00    +0.000 HD
BRANCH  26  28
ATOM     28  C   UNL     1       6.997   4.622  14.820  0.00  0.00    +0.000 A 
ATOM     29  C   UNL     1       7.892   5.437  14.119  0.00  0.00    +0.000 A 
ATOM     30  C   UNL     1       7.949   5.387  12.720  0.00  0.00    +0.000 A 
ATOM     31  C   UNL     1       7.106   4.528  12.013  0.00  0.00    +0.000 A 
ATOM     32  C   UNL     1       6.213   3.719  12.710  0.00  0.00    +0.000 A 
ATOM     33 CL   UNL     1       5.155   2.669  11.849  0.00  0.00    +0.000 Cl
ATOM     34  C   UNL     1       6.153   3.766  14.101  0.00  0.00    +0.000 A 
ENDBRANCH  26  28
ENDBRANCH  24  26
ENDBRANCH  22  24
ENDBRANCH   7  22
TORSDOF 7
ENDMDL
MODEL 7
REMARK VINA RESULT:      -6.4      6.604     10.410
REMARK  Name = 
REMARK  12 active torsions:
REMARK  status: ('A' for Active; 'I' for Inactive)
REMARK    1  A    between atoms: C_1  and  C_2
REMARK    2  A    between atoms: C_2  and  C_3
REMARK    3  A    between atoms: C_2  and  C_4
REMARK    4  A    between atoms: C_2  and  O_5
REMARK    5  A    between atoms: O_5  and  C_6
REMARK    6  A    between atoms: N_8  and  C_9
REMARK    7  A    between atoms: C_15  and  N_16
REMARK    8  A    between atoms: N_16  and  C_17
REMARK    9  A    between atoms: C_17  and  N_19
REMARK   10  A    between atoms: N_19  and  C_20
REMARK   11  A    between atoms: C_28  and  C_29
REMARK   12  A    between atoms: C_28  and  C_30
REMARK                            x       y       z     vdW  Elec       q    Type
REMARK                         _______ _______ _______ _____ _____    ______ ____
ROOT
ATOM      1  C   UNL     1       2.016   7.153  19.973  0.00  0.00    +0.000 A 
ATOM      2  C   UNL     1       1.332   6.236  20.788  0.00  0.00    +0.000 A 
ATOM      3  C   UNL     1       1.546   4.873  20.692  0.00  0.00    +0.000 A 
ATOM      4  C   UNL     1       2.424   4.377  19.746  0.00  0.00    +0.000 A 
ATOM      5  C   UNL     1       3.080   5.235  18.855  0.00  0.00    +0.000 A 
ATOM      6  C   UNL     1       2.882   6.646  18.993  0.00  0.00    +0.000 A 
ATOM      7  C   UNL     1       4.067   4.652  17.866  0.00  0.00    +0.000 C 
ATOM      8  C   UNL     1       3.760   3.160  17.669  0.00  0.00    +0.000 C 
ATOM      9  C   UNL     1       3.610   2.441  19.016  0.00  0.00    +0.000 C 
ATOM     10  C   UNL     1       3.195   0.984  18.758  0.00  0.00    +0.000 C 
ATOM     11  C   UNL     1       4.895   2.436  19.857  0.00  0.00    +0.000 C 
ATOM     12  O   UNL     1       2.552   3.020  19.780  0.00  0.00    +0.000 OA
ENDROOT
BRANCH   1  15
ATOM     13  C   UNL     1       0.742   9.118  20.730  0.00  0.00    +0.000 C 
ATOM     14  O   UNL     1      -0.180   8.453  21.196  0.00  0.00    +0.000 OA
ATOM     15  N   UNL     1       1.856   8.555  20.145  0.00  0.00    +0.000 N 
ATOM     16  H   UNL     1       2.633   9.183  19.968  0.00  0.00    +0.000 HD
BRANCH  13  17
ATOM     17  O   UNL     1       0.763  10.481  20.810  0.00  0.00    +0.000 OA
BRANCH  17  19
ATOM     18  C   UNL     1      -0.364  10.228  18.619  0.00  0.00    +0.000 C 
ATOM     19  C   UNL     1       0.028  11.191  19.753  0.00  0.00    +0.000 C 
ATOM     20  C   UNL     1       0.837  12.377  19.189  0.00  0.00    +0.000 C 
ATOM     21  C   UNL     1      -1.287  11.735  20.349  0.00  0.00    +0.000 C 
ENDBRANCH  17  19
ENDBRANCH  13  17
ENDBRANCH   1  15
BRANCH   7  22
ATOM     22  N   UNL     1       4.126   5.403  16.595  0.00  0.00    +0.000 N 
ATOM     23  H   UNL     1       3.240   5.656  16.169  0.00  0.00    +0.000 HD
BRANCH  22  24
ATOM     24  C   UNL     1       5.251   5.498  15.781  0.00  0.00    +0.000 C 
ATOM     25  S   UNL     1       5.809   4.280  14.773  0.00  0.00    +0.000 S 
BRANCH  24  26
ATOM     26  N   UNL     1       5.939   6.685  16.030  0.00  0.00    +0.000 N 
ATOM     27  H   UNL     1       5.476   7.504  15.655  0.00  0.00    +0.000 HD
BRANCH  26  28
ATOM     28  C   UNL     1       6.871   6.915  17.076  0.00  0.00    +0.000 A 
ATOM     29  C   UNL     1       7.143   5.908  18.008  0.00  0.00    +0.000 A 
ATOM     30  C   UNL     1       8.003   6.155  19.086  0.00  0.00    +0.000 A 
ATOM     31  C   UNL     1       8.589   7.412  19.243  0.00  0.00    +0.000 A 
ATOM     32  C   UNL     1       8.317   8.415  18.317  0.00  0.00    +0.000 A 
ATOM     33 CL   UNL     1       9.018   9.974  18.509  0.00  0.00    +0.000 Cl
ATOM     34  C   UNL     1       7.461   8.174  17.244  0.00  0.00    +0.000 A 
ENDBRANCH  26  28
ENDBRANCH  24  26
ENDBRANCH  22  24
ENDBRANCH   7  22
TORSDOF 7
ENDMDL
MODEL 8
REMARK VINA RESULT:      -6.4      5.033      7.827
REMARK  Name = 
REMARK  12 active torsions:
REMARK  status: ('A' for Active; 'I' for Inactive)
REMARK    1  A    between atoms: C_1  and  C_2
REMARK    2  A    between atoms: C_2  and  C_3
REMARK    3  A    between atoms: C_2  and  C_4
REMARK    4  A    between atoms: C_2  and  O_5
REMARK    5  A    between atoms: O_5  and  C_6
REMARK    6  A    between atoms: N_8  and  C_9
REMARK    7  A    between atoms: C_15  and  N_16
REMARK    8  A    between atoms: N_16  and  C_17
REMARK    9  A    between atoms: C_17  and  N_19
REMARK   10  A    between atoms: N_19  and  C_20
REMARK   11  A    between atoms: C_28  and  C_29
REMARK   12  A    between atoms: C_28  and  C_30
REMARK                            x       y       z     vdW  Elec       q    Type
REMARK                         _______ _______ _______ _____ _____    ______ ____
ROOT
ATOM      1  C   UNL     1       1.864  13.747  20.176  0.00  0.00    +0.000 A 
ATOM      2  C   UNL     1       1.279  14.596  19.221  0.00  0.00    +0.000 A 
ATOM      3  C   UNL     1       0.245  14.176  18.405  0.00  0.00    +0.000 A 
ATOM      4  C   UNL     1      -0.214  12.873  18.488  0.00  0.00    +0.000 A 
ATOM      5  C   UNL     1       0.377  11.958  19.368  0.00  0.00    +0.000 A 
ATOM      6  C   UNL     1       1.418  12.419  20.236  0.00  0.00    +0.000 A 
ATOM      7  C   UNL     1      -0.187  10.556  19.459  0.00  0.00    +0.000 C 
ATOM      8  C   UNL     1      -0.966  10.244  18.172  0.00  0.00    +0.000 C 
ATOM      9  C   UNL     1      -1.946  11.373  17.828  0.00  0.00    +0.000 C 
ATOM     10  C   UNL     1      -2.613  11.058  16.480  0.00  0.00    +0.000 C 
ATOM     11  C   UNL     1      -3.049  11.571  18.879  0.00  0.00    +0.000 C 
ATOM     12  O   UNL     1      -1.249  12.605  17.642  0.00  0.00    +0.000 OA
ENDROOT
BRANCH   1  15
ATOM     13  C   UNL     1       2.575  14.985  22.180  0.00  0.00    +0.000 C 
ATOM     14  O   UNL     1       1.429  15.278  22.516  0.00  0.00    +0.000 OA
ATOM     15  N   UNL     1       2.862  14.220  21.070  0.00  0.00    +0.000 N 
ATOM     16  H   UNL     1       3.816  13.883  20.995  0.00  0.00    +0.000 HD
BRANCH  13  17
ATOM     17  O   UNL     1       3.661  15.348  22.923  0.00  0.00    +0.000 OA
BRANCH  17  19
ATOM     18  C   UNL     1       4.575  17.485  23.778  0.00  0.00    +0.000 C 
ATOM     19  C   UNL     1       4.298  16.615  22.540  0.00  0.00    +0.000 C 
ATOM     20  C   UNL     1       3.450  17.399  21.517  0.00  0.00    +0.000 C 
ATOM     21  C   UNL     1       5.669  16.304  21.901  0.00  0.00    +0.000 C 
ENDBRANCH  17  19
ENDBRANCH  13  17
ENDBRANCH   1  15
BRANCH   7  22
ATOM     22  N   UNL     1       0.837   9.539  19.776  0.00  0.00    +0.000 N 
ATOM     23  H   UNL     1       1.334   9.128  18.993  0.00  0.00    +0.000 HD
BRANCH  22  24
ATOM     24  C   UNL     1       0.940   8.871  20.993  0.00  0.00    +0.000 C 
ATOM     25  S   UNL     1       0.047   9.235  22.364  0.00  0.00    +0.000 S 
BRANCH  24  26
ATOM     26  N   UNL     1       1.993   7.957  20.965  0.00  0.00    +0.000 N 
ATOM     27  H   UNL     1       2.545   7.953  21.814  0.00  0.00    +0.000 HD
BRANCH  26  28
ATOM     28  C   UNL     1       2.076   6.792  20.158  0.00  0.00    +0.000 A 
ATOM     29  C   UNL     1       2.577   6.874  18.854  0.00  0.00    +0.000 A 
ATOM     30  C   UNL     1       2.588   5.743  18.028  0.00  0.00    +0.000 A 
ATOM     31  C   UNL     1       2.092   4.526  18.498  0.00  0.00    +0.000 A 
ATOM     32  C   UNL     1       1.591   4.444  19.794  0.00  0.00    +0.000 A 
ATOM     33 CL   UNL     1       0.959   2.954  20.378  0.00  0.00    +0.000 Cl
ATOM     34  C   UNL     1       1.577   5.567  20.618  0.00  0.00    +0.000 A 
ENDBRANCH  26  28
ENDBRANCH  24  26
ENDBRANCH  22  24
ENDBRANCH   7  22
TORSDOF 7
ENDMDL
MODEL 9
REMARK VINA RESULT:      -6.3      1.773      2.220
REMARK  Name = 
REMARK  12 active torsions:
REMARK  status: ('A' for Active; 'I' for Inactive)
REMARK    1  A    between atoms: C_1  and  C_2
REMARK    2  A    between atoms: C_2  and  C_3
REMARK    3  A    between atoms: C_2  and  C_4
REMARK    4  A    between atoms: C_2  and  O_5
REMARK    5  A    between atoms: O_5  and  C_6
REMARK    6  A    between atoms: N_8  and  C_9
REMARK    7  A    between atoms: C_15  and  N_16
REMARK    8  A    between atoms: N_16  and  C_17
REMARK    9  A    between atoms: C_17  and  N_19
REMARK   10  A    between atoms: N_19  and  C_20
REMARK   11  A    between atoms: C_28  and  C_29
REMARK   12  A    between atoms: C_28  and  C_30
REMARK                            x       y       z     vdW  Elec       q    Type
REMARK                         _______ _______ _______ _____ _____    ______ ____
ROOT
ATOM      1  C   UNL     1      -2.476  12.816  21.776  0.00  0.00    +0.000 A 
ATOM      2  C   UNL     1      -1.668  11.972  22.554  0.00  0.00    +0.000 A 
ATOM      3  C   UNL     1      -0.732  11.127  21.985  0.00  0.00    +0.000 A 
ATOM      4  C   UNL     1      -0.603  11.068  20.609  0.00  0.00    +0.000 A 
ATOM      5  C   UNL     1      -1.431  11.831  19.776  0.00  0.00    +0.000 A 
ATOM      6  C   UNL     1      -2.365  12.732  20.380  0.00  0.00    +0.000 A 
ATOM      7  C   UNL     1      -1.223  11.770  18.277  0.00  0.00    +0.000 C 
ATOM      8  C   UNL     1      -0.490  10.466  17.925  0.00  0.00    +0.000 C 
ATOM      9  C   UNL     1       0.745  10.265  18.812  0.00  0.00    +0.000 C 
ATOM     10  C   UNL     1       1.369   8.898  18.491  0.00  0.00    +0.000 C 
ATOM     11  C   UNL     1       1.820  11.345  18.624  0.00  0.00    +0.000 C 
ATOM     12  O   UNL     1       0.371  10.211  20.189  0.00  0.00    +0.000 OA
ENDROOT
BRANCH   1  15
ATOM     13  C   UNL     1      -3.101  15.095  22.460  0.00  0.00    +0.000 C 
ATOM     14  O   UNL     1      -2.098  15.614  21.976  0.00  0.00    +0.000 OA
ATOM     15  N   UNL     1      -3.367  13.746  22.378  0.00  0.00    +0.000 N 
ATOM     16  H   UNL     1      -4.303  13.458  22.642  0.00  0.00    +0.000 HD
BRANCH  13  17
ATOM     17  O   UNL     1      -4.072  15.835  23.073  0.00  0.00    +0.000 OA
BRANCH  17  19
ATOM     18  C   UNL     1      -2.766  17.668  24.108  0.00  0.00    +0.000 C 
ATOM     19  C   UNL     1      -3.687  16.458  24.347  0.00  0.00    +0.000 C 
ATOM     20  C   UNL     1      -3.006  15.451  25.298  0.00  0.00    +0.000 C 
ATOM     21  C   UNL     1      -4.958  16.998  25.036  0.00  0.00    +0.000 C 
ENDBRANCH  17  19
ENDBRANCH  13  17
ENDBRANCH   1  15
BRANCH   7  22
ATOM     22  N   UNL     1      -2.472  11.957  17.511  0.00  0.00    +0.000 N 
ATOM     23  H   UNL     1      -2.944  12.849  17.612  0.00  0.00    +0.000 HD
BRANCH  22  24
ATOM     24  C   UNL     1      -3.214  10.926  16.941  0.00  0.00    +0.000 C 
ATOM     25  S   UNL     1      -2.950  10.288  15.413  0.00  0.00    +0.000 S 
BRANCH  24  26
ATOM     26  N   UNL     1      -4.301  10.597  17.750  0.00  0.00    +0.000 N 
ATOM     27  H   UNL     1      -4.095   9.869  18.424  0.00  0.00    +0.000 HD
BRANCH  26  28
ATOM     28  C   UNL     1      -5.413  11.428  18.045  0.00  0.00    +0.000 A 
ATOM     29  C   UNL     1      -6.183  11.192  19.189  0.00  0.00    +0.000 A 
ATOM     30  C   UNL     1      -7.326  11.960  19.444  0.00  0.00    +0.000 A 
ATOM     31  C   UNL     1      -7.711  12.964  18.553  0.00  0.00    +0.000 A 
ATOM     32  C   UNL     1      -6.946  13.198  17.414  0.00  0.00    +0.000 A 
ATOM     33 CL   UNL     1      -7.420  14.419  16.298  0.00  0.00    +0.000 Cl
ATOM     34  C   UNL     1      -5.810  12.435  17.156  0.00  0.00    +0.000 A 
ENDBRANCH  26  28
ENDBRANCH  24  26
ENDBRANCH  22  24
ENDBRANCH   7  22
TORSDOF 7
ENDMDL
