MODEL 1
REMARK VINA RESULT:      -8.3      0.000      0.000
REMARK  Name = 
REMARK  9 active torsions:
REMARK  status: ('A' for Active; 'I' for Inactive)
REMARK    1  A    between atoms: C_1  and  C_2
REMARK    2  A    between atoms: C_2  and  C_3
REMARK    3  A    between atoms: C_2  and  O_4
REMARK    4  A    between atoms: C_2  and  C_5
REMARK    5  A    between atoms: N_7  and  C_8
REMARK    6  A    between atoms: C_11  and  N_12
REMARK    7  A    between atoms: C_14  and  C_15
REMARK    8  A    between atoms: N_19  and  C_20
REMARK    9  A    between atoms: C_28  and  C_29
REMARK                            x       y       z     vdW  Elec       q    Type
REMARK                         _______ _______ _______ _____ _____    ______ ____
ROOT
ATOM      1  N   UNL     1       2.224   7.151  19.878  0.00  0.00    +0.000 N 
ATOM      2  C   UNL     1       1.518   6.261  20.614  0.00  0.00    +0.000 A 
ATOM      3  C   UNL     1       2.181   5.060  20.534  0.00  0.00    +0.000 A 
ATOM      4  C   UNL     1       3.327   5.342  19.721  0.00  0.00    +0.000 A 
ATOM      5  N   UNL     1       4.275   4.441  19.345  0.00  0.00    +0.000 N 
ATOM      6  N   UNL     1       3.325   6.628  19.332  0.00  0.00    +0.000 NA
ATOM      7  H   UNL     1       4.288   3.523  19.779  0.00  0.00    +0.000 HD
ENDROOT
BRANCH   5   8
ATOM      8  C   UNL     1       5.024   4.459  18.144  0.00  0.00    +0.000 A 
ATOM      9  C   UNL     1       6.379   4.817  18.161  0.00  0.00    +0.000 A 
ATOM     10  C   UNL     1       7.106   4.891  16.968  0.00  0.00    +0.000 A 
ATOM     11  C   UNL     1       6.473   4.619  15.756  0.00  0.00    +0.000 A 
ATOM     12 CL   UNL     1       7.350   4.752  14.282  0.00  0.00    +0.000 Cl
ATOM     13  C   UNL     1       5.130   4.260  15.724  0.00  0.00    +0.000 A 
ATOM     14  C   UNL     1       4.412   4.183  16.914  0.00  0.00    +0.000 A 
ENDBRANCH   5   8
BRANCH   1  18
ATOM     15  C   UNL     1       0.031  10.757  18.773  0.00  0.00    +0.000 C 
ATOM     16  C   UNL     1       1.085  10.136  17.815  0.00  0.00    +0.000 C 
ATOM     17  C   UNL     1       1.396   8.678  18.157  0.00  0.00    +0.000 C 
ATOM     18  C   UNL     1       1.869   8.542  19.605  0.00  0.00    +0.000 C 
ATOM     19  C   UNL     1       0.805   9.075  20.579  0.00  0.00    +0.000 C 
ATOM     20  C   UNL     1       0.415  10.521  20.249  0.00  0.00    +0.000 C 
BRANCH  15  23
ATOM     21  C   UNL     1       0.499  14.000  19.539  0.00  0.00    +0.000 C 
ATOM     22  C   UNL     1       1.117  12.948  18.593  0.00  0.00    +0.000 C 
ATOM     23  N   UNL     1      -0.183  12.209  18.578  0.00  0.00    +0.000 NA
ATOM     24  C   UNL     1      -0.581  12.916  19.823  0.00  0.00    +0.000 C 
BRANCH  21  26
ATOM     25  C   UNL     1       0.583  15.197  21.792  0.00  0.00    +0.000 C 
ATOM     26  C   UNL     1       1.389  14.517  20.678  0.00  0.00    +0.000 C 
ATOM     27  C   UNL     1       2.417  15.501  20.118  0.00  0.00    +0.000 C 
BRANCH  26  28
ATOM     28  O   UNL     1       2.091  13.413  21.246  0.00  0.00    +0.000 OA
ATOM     29  H   UNL     1       2.933  13.310  20.771  0.00  0.00    +0.000 HD
ENDBRANCH  26  28
ENDBRANCH  21  26
ENDBRANCH  15  23
BRANCH  19  30
ATOM     30  C   UNL     1       1.289   9.018  21.979  0.00  0.00    +0.000 C 
ATOM     31  N   UNL     1       1.653   8.983  23.066  0.00  0.00    +0.000 NA
ENDBRANCH  19  30
ENDBRANCH   1  18
BRANCH   3  32
ATOM     32  C   UNL     1       1.726   3.843  21.175  0.00  0.00    +0.000 C 
ATOM     33  N   UNL     1       0.660   3.190  20.589  0.00  0.00    +0.000 N 
ATOM     34  O   UNL     1       2.218   3.381  22.193  0.00  0.00    +0.000 OA
ATOM     35  H   UNL     1       0.345   3.342  19.640  0.00  0.00    +0.000 HD
ATOM     36  H   UNL     1       0.416   2.302  21.013  0.00  0.00    +0.000 HD
ENDBRANCH   3  32
TORSDOF 7
ENDMDL
MODEL 2
REMARK VINA RESULT:      -8.2      2.186      3.305
REMARK  Name = 
REMARK  9 active torsions:
REMARK  status: ('A' for Active; 'I' for Inactive)
REMARK    1  A    between atoms: C_1  and  C_2
REMARK    2  A    between atoms: C_2  and  C_3
REMARK    3  A    between atoms: C_2  and  O_4
REMARK    4  A    between atoms: C_2  and  C_5
REMARK    5  A    between atoms: N_7  and  C_8
REMARK    6  A    between atoms: C_11  and  N_12
REMARK    7  A    between atoms: C_14  and  C_15
REMARK    8  A    between atoms: N_19  and  C_20
REMARK    9  A    between atoms: C_28  and  C_29
REMARK                            x       y       z     vdW  Elec       q    Type
REMARK                         _______ _______ _______ _____ _____    ______ ____
ROOT
ATOM      1  N   UNL     1       2.085   6.281  20.143  0.00  0.00    +0.000 N 
ATOM      2  C   UNL     1       1.719   5.241  20.929  0.00  0.00    +0.000 A 
ATOM      3  C   UNL     1       2.666   4.260  20.761  0.00  0.00    +0.000 A 
ATOM      4  C   UNL     1       3.606   4.829  19.842  0.00  0.00    +0.000 A 
ATOM      5  N   UNL     1       4.716   4.210  19.356  0.00  0.00    +0.000 N 
ATOM      6  N   UNL     1       3.223   6.065  19.478  0.00  0.00    +0.000 NA
ATOM      7  H   UNL     1       5.017   3.332  19.770  0.00  0.00    +0.000 HD
ENDROOT
BRANCH   5   8
ATOM      8  C   UNL     1       5.306   4.415  18.086  0.00  0.00    +0.000 A 
ATOM      9  C   UNL     1       4.555   4.223  16.917  0.00  0.00    +0.000 A 
ATOM     10  C   UNL     1       5.153   4.369  15.661  0.00  0.00    +0.000 A 
ATOM     11  C   UNL     1       6.506   4.697  15.574  0.00  0.00    +0.000 A 
ATOM     12 CL   UNL     1       7.256   4.835  14.032  0.00  0.00    +0.000 Cl
ATOM     13  C   UNL     1       7.261   4.894  16.724  0.00  0.00    +0.000 A 
ATOM     14  C   UNL     1       6.661   4.752  17.971  0.00  0.00    +0.000 A 
ENDBRANCH   5   8
BRANCH   1  18
ATOM     15  C   UNL     1       0.769  10.436  20.338  0.00  0.00    +0.000 C 
ATOM     16  C   UNL     1      -0.009   9.315  21.080  0.00  0.00    +0.000 C 
ATOM     17  C   UNL     1       0.832   8.052  21.272  0.00  0.00    +0.000 C 
ATOM     18  C   UNL     1       1.346   7.525  19.932  0.00  0.00    +0.000 C 
ATOM     19  C   UNL     1       2.191   8.590  19.214  0.00  0.00    +0.000 C 
ATOM     20  C   UNL     1       1.413   9.900  19.041  0.00  0.00    +0.000 C 
BRANCH  15  23
ATOM     21  C   UNL     1      -1.666  12.014  18.634  0.00  0.00    +0.000 C 
ATOM     22  C   UNL     1      -1.509  11.268  19.976  0.00  0.00    +0.000 C 
ATOM     23  N   UNL     1      -0.055  11.616  19.991  0.00  0.00    +0.000 NA
ATOM     24  C   UNL     1      -0.119  11.878  18.529  0.00  0.00    +0.000 C 
BRANCH  21  26
ATOM     25  C   UNL     1      -4.055  11.672  17.801  0.00  0.00    +0.000 C 
ATOM     26  C   UNL     1      -2.569  11.360  17.579  0.00  0.00    +0.000 C 
ATOM     27  C   UNL     1      -2.359   9.845  17.591  0.00  0.00    +0.000 C 
BRANCH  26  28
ATOM     28  O   UNL     1      -2.199  11.852  16.292  0.00  0.00    +0.000 OA
ATOM     29  H   UNL     1      -1.811  11.119  15.785  0.00  0.00    +0.000 HD
ENDBRANCH  26  28
ENDBRANCH  21  26
ENDBRANCH  15  23
BRANCH  19  30
ATOM     30  C   UNL     1       2.628   8.114  17.880  0.00  0.00    +0.000 C 
ATOM     31  N   UNL     1       2.953   7.747  16.843  0.00  0.00    +0.000 NA
ENDBRANCH  19  30
ENDBRANCH   1  18
BRANCH   3  32
ATOM     32  C   UNL     1       2.618   2.972  21.423  0.00  0.00    +0.000 C 
ATOM     33  N   UNL     1       1.425   2.624  22.025  0.00  0.00    +0.000 N 
ATOM     34  O   UNL     1       3.561   2.199  21.484  0.00  0.00    +0.000 OA
ATOM     35  H   UNL     1       0.535   3.062  21.830  0.00  0.00    +0.000 HD
ATOM     36  H   UNL     1       1.397   1.687  22.409  0.00  0.00    +0.000 HD
ENDBRANCH   3  32
TORSDOF 7
ENDMDL
MODEL 3
REMARK VINA RESULT:      -8.1      1.286      1.641
REMARK  Name = 
REMARK  9 active torsions:
REMARK  status: ('A' for Active; 'I' for Inactive)
REMARK    1  A    between atoms: C_1  and  C_2
REMARK    2  A    between atoms: C_2  and  C_3
REMARK    3  A    between atoms: C_2  and  O_4
REMARK    4  A    between atoms: C_2  and  C_5
REMARK    5  A    between atoms: N_7  and  C_8
REMARK    6  A    between atoms: C_11  and  N_12
REMARK    7  A    between atoms: C_14  and  C_15
REMARK    8  A    between atoms: N_19  and  C_20
REMARK    9  A    between atoms: C_28  and  C_29
REMARK                            x       y       z     vdW  Elec       q    Type
REMARK                         _______ _______ _______ _____ _____    ______ ____
ROOT
ATOM      1  N   UNL     1       2.272   7.103  19.863  0.00  0.00    +0.000 N 
ATOM      2  C   UNL     1       1.555   6.224  20.601  0.00  0.00    +0.000 A 
ATOM      3  C   UNL     1       2.207   5.017  20.530  0.00  0.00    +0.000 A 
ATOM      4  C   UNL     1       3.358   5.283  19.720  0.00  0.00    +0.000 A 
ATOM      5  N   UNL     1       4.299   4.371  19.353  0.00  0.00    +0.000 N 
ATOM      6  N   UNL     1       3.370   6.567  19.323  0.00  0.00    +0.000 NA
ATOM      7  H   UNL     1       4.302   3.456  19.793  0.00  0.00    +0.000 HD
ENDROOT
BRANCH   5   8
ATOM      8  C   UNL     1       5.052   4.375  18.154  0.00  0.00    +0.000 A 
ATOM      9  C   UNL     1       6.415   4.706  18.177  0.00  0.00    +0.000 A 
ATOM     10  C   UNL     1       7.147   4.766  16.987  0.00  0.00    +0.000 A 
ATOM     11  C   UNL     1       6.513   4.507  15.772  0.00  0.00    +0.000 A 
ATOM     12 CL   UNL     1       7.398   4.623  14.302  0.00  0.00    +0.000 Cl
ATOM     13  C   UNL     1       5.164   4.175  15.736  0.00  0.00    +0.000 A 
ATOM     14  C   UNL     1       4.440   4.111  16.922  0.00  0.00    +0.000 A 
ENDBRANCH   5   8
BRANCH   1  18
ATOM     15  C   UNL     1       0.120  10.723  18.723  0.00  0.00    +0.000 C 
ATOM     16  C   UNL     1       1.175  10.088  17.776  0.00  0.00    +0.000 C 
ATOM     17  C   UNL     1       1.470   8.629  18.128  0.00  0.00    +0.000 C 
ATOM     18  C   UNL     1       1.931   8.497  19.580  0.00  0.00    +0.000 C 
ATOM     19  C   UNL     1       0.865   9.044  20.543  0.00  0.00    +0.000 C 
ATOM     20  C   UNL     1       0.491  10.491  20.203  0.00  0.00    +0.000 C 
BRANCH  15  23
ATOM     21  C   UNL     1      -1.114  13.740  19.557  0.00  0.00    +0.000 C 
ATOM     22  C   UNL     1       0.183  12.934  19.781  0.00  0.00    +0.000 C 
ATOM     23  N   UNL     1      -0.080  12.176  18.519  0.00  0.00    +0.000 NA
ATOM     24  C   UNL     1      -1.507  12.588  18.588  0.00  0.00    +0.000 C 
BRANCH  21  26
ATOM     25  C   UNL     1      -1.153  14.593  21.964  0.00  0.00    +0.000 C 
ATOM     26  C   UNL     1      -1.974  14.029  20.797  0.00  0.00    +0.000 C 
ATOM     27  C   UNL     1      -2.679  12.747  21.242  0.00  0.00    +0.000 C 
BRANCH  26  28
ATOM     28  O   UNL     1      -2.969  14.989  20.448  0.00  0.00    +0.000 OA
ATOM     29  H   UNL     1      -3.839  14.629  20.694  0.00  0.00    +0.000 HD
ENDBRANCH  26  28
ENDBRANCH  21  26
ENDBRANCH  15  23
BRANCH  19  30
ATOM     30  C   UNL     1       1.337   8.989  21.947  0.00  0.00    +0.000 C 
ATOM     31  N   UNL     1       1.700   8.961  23.035  0.00  0.00    +0.000 NA
ENDBRANCH  19  30
ENDBRANCH   1  18
BRANCH   3  32
ATOM     32  C   UNL     1       1.738   3.809  21.177  0.00  0.00    +0.000 C 
ATOM     33  N   UNL     1       0.664   3.165  20.594  0.00  0.00    +0.000 N 
ATOM     34  O   UNL     1       2.225   3.344  22.196  0.00  0.00    +0.000 OA
ATOM     35  H   UNL     1       0.350   3.317  19.645  0.00  0.00    +0.000 HD
ATOM     36  H   UNL     1       0.410   2.283  21.022  0.00  0.00    +0.000 HD
ENDBRANCH   3  32
TORSDOF 7
ENDMDL
MODEL 4
REMARK VINA RESULT:      -8.0      4.097      9.843
REMARK  Name = 
REMARK  9 active torsions:
REMARK  status: ('A' for Active; 'I' for Inactive)
REMARK    1  A    between atoms: C_1  and  C_2
REMARK    2  A    between atoms: C_2  and  C_3
REMARK    3  A    between atoms: C_2  and  O_4
REMARK    4  A    between atoms: C_2  and  C_5
REMARK    5  A    between atoms: N_7  and  C_8
REMARK    6  A    between atoms: C_11  and  N_12
REMARK    7  A    between atoms: C_14  and  C_15
REMARK    8  A    between atoms: N_19  and  C_20
REMARK    9  A    between atoms: C_28  and  C_29
REMARK                            x       y       z     vdW  Elec       q    Type
REMARK                         _______ _______ _______ _____ _____    ______ ____
ROOT
ATOM      1  N   UNL     1       0.124  10.984  19.404  0.00  0.00    +0.000 N 
ATOM      2  C   UNL     1       0.810  12.073  18.984  0.00  0.00    +0.000 A 
ATOM      3  C   UNL     1       0.003  13.163  19.204  0.00  0.00    +0.000 A 
ATOM      4  C   UNL     1      -1.178  12.614  19.801  0.00  0.00    +0.000 A 
ATOM      5  N   UNL     1      -2.279  13.319  20.176  0.00  0.00    +0.000 N 
ATOM      6  N   UNL     1      -1.077  11.279  19.908  0.00  0.00    +0.000 NA
ATOM      7  H   UNL     1      -2.239  14.334  20.190  0.00  0.00    +0.000 HD
ENDROOT
BRANCH   5   8
ATOM      8  C   UNL     1      -3.616  12.852  20.185  0.00  0.00    +0.000 A 
ATOM      9  C   UNL     1      -4.398  12.968  21.343  0.00  0.00    +0.000 A 
ATOM     10  C   UNL     1      -5.699  12.455  21.371  0.00  0.00    +0.000 A 
ATOM     11  C   UNL     1      -6.214  11.815  20.244  0.00  0.00    +0.000 A 
ATOM     12 CL   UNL     1      -7.797  11.144  20.288  0.00  0.00    +0.000 Cl
ATOM     13  C   UNL     1      -5.450  11.697  19.088  0.00  0.00    +0.000 A 
ATOM     14  C   UNL     1      -4.158  12.212  19.063  0.00  0.00    +0.000 A 
ENDBRANCH   5   8
BRANCH   1  18
ATOM     15  C   UNL     1       2.548   7.360  19.228  0.00  0.00    +0.000 C 
ATOM     16  C   UNL     1       1.911   7.960  17.944  0.00  0.00    +0.000 C 
ATOM     17  C   UNL     1       1.507   9.424  18.124  0.00  0.00    +0.000 C 
ATOM     18  C   UNL     1       0.547   9.588  19.303  0.00  0.00    +0.000 C 
ATOM     19  C   UNL     1       1.188   9.076  20.604  0.00  0.00    +0.000 C 
ATOM     20  C   UNL     1       1.661   7.625  20.464  0.00  0.00    +0.000 C 
BRANCH  15  23
ATOM     21  C   UNL     1       4.315   4.665  18.262  0.00  0.00    +0.000 C 
ATOM     22  C   UNL     1       4.234   5.599  19.488  0.00  0.00    +0.000 C 
ATOM     23  N   UNL     1       2.810   5.905  19.151  0.00  0.00    +0.000 NA
ATOM     24  C   UNL     1       3.052   5.424  17.765  0.00  0.00    +0.000 C 
BRANCH  21  26
ATOM     25  C   UNL     1       6.065   6.141  17.132  0.00  0.00    +0.000 C 
ATOM     26  C   UNL     1       5.612   4.708  17.442  0.00  0.00    +0.000 C 
ATOM     27  C   UNL     1       5.417   3.941  16.133  0.00  0.00    +0.000 C 
BRANCH  26  28
ATOM     28  O   UNL     1       6.646   4.066  18.186  0.00  0.00    +0.000 OA
ATOM     29  H   UNL     1       7.439   4.627  18.152  0.00  0.00    +0.000 HD
ENDBRANCH  26  28
ENDBRANCH  21  26
ENDBRANCH  15  23
BRANCH  19  30
ATOM     30  C   UNL     1       0.235   9.161  21.736  0.00  0.00    +0.000 C 
ATOM     31  N   UNL     1      -0.492   9.228  22.621  0.00  0.00    +0.000 NA
ENDBRANCH  19  30
ENDBRANCH   1  18
BRANCH   3  32
ATOM     32  C   UNL     1       0.374  14.522  18.865  0.00  0.00    +0.000 C 
ATOM     33  N   UNL     1       1.716  14.768  18.655  0.00  0.00    +0.000 N 
ATOM     34  O   UNL     1      -0.421  15.444  18.768  0.00  0.00    +0.000 OA
ATOM     35  H   UNL     1       2.409  14.054  18.471  0.00  0.00    +0.000 HD
ATOM     36  H   UNL     1       1.935  15.707  18.342  0.00  0.00    +0.000 HD
ENDBRANCH   3  32
TORSDOF 7
ENDMDL
MODEL 5
REMARK VINA RESULT:      -8.0      0.657      1.184
REMARK  Name = 
REMARK  9 active torsions:
REMARK  status: ('A' for Active; 'I' for Inactive)
REMARK    1  A    between atoms: C_1  and  C_2
REMARK    2  A    between atoms: C_2  and  C_3
REMARK    3  A    between atoms: C_2  and  O_4
REMARK    4  A    between atoms: C_2  and  C_5
REMARK    5  A    between atoms: N_7  and  C_8
REMARK    6  A    between atoms: C_11  and  N_12
REMARK    7  A    between atoms: C_14  and  C_15
REMARK    8  A    between atoms: N_19  and  C_20
REMARK    9  A    between atoms: C_28  and  C_29
REMARK                            x       y       z     vdW  Elec       q    Type
REMARK                         _______ _______ _______ _____ _____    ______ ____
ROOT
ATOM      1  N   UNL     1       2.099   7.323  19.894  0.00  0.00    +0.000 N 
ATOM      2  C   UNL     1       1.439   6.391  20.622  0.00  0.00    +0.000 A 
ATOM      3  C   UNL     1       2.147   5.219  20.507  0.00  0.00    +0.000 A 
ATOM      4  C   UNL     1       3.267   5.561  19.682  0.00  0.00    +0.000 A 
ATOM      5  N   UNL     1       4.242   4.705  19.273  0.00  0.00    +0.000 N 
ATOM      6  N   UNL     1       3.210   6.853  19.319  0.00  0.00    +0.000 NA
ATOM      7  H   UNL     1       4.298   3.780  19.689  0.00  0.00    +0.000 HD
ENDROOT
BRANCH   5   8
ATOM      8  C   UNL     1       4.970   4.776  18.061  0.00  0.00    +0.000 A 
ATOM      9  C   UNL     1       4.397   4.323  16.865  0.00  0.00    +0.000 A 
ATOM     10  C   UNL     1       5.135   4.338  15.676  0.00  0.00    +0.000 A 
ATOM     11  C   UNL     1       6.453   4.796  15.688  0.00  0.00    +0.000 A 
ATOM     12 CL   UNL     1       7.379   4.776  14.239  0.00  0.00    +0.000 Cl
ATOM     13  C   UNL     1       7.032   5.251  16.866  0.00  0.00    +0.000 A 
ATOM     14  C   UNL     1       6.293   5.238  18.045  0.00  0.00    +0.000 A 
ENDBRANCH   5   8
BRANCH   1  18
ATOM     15  C   UNL     1      -0.261  10.867  18.942  0.00  0.00    +0.000 C 
ATOM     16  C   UNL     1       0.761  10.288  17.924  0.00  0.00    +0.000 C 
ATOM     17  C   UNL     1       1.135   8.838  18.234  0.00  0.00    +0.000 C 
ATOM     18  C   UNL     1       1.686   8.704  19.654  0.00  0.00    +0.000 C 
ATOM     19  C   UNL     1       0.658   9.194  20.687  0.00  0.00    +0.000 C 
ATOM     20  C   UNL     1       0.207  10.630  20.394  0.00  0.00    +0.000 C 
BRANCH  15  23
ATOM     21  C   UNL     1       0.428  14.130  19.385  0.00  0.00    +0.000 C 
ATOM     22  C   UNL     1       0.700  13.038  18.329  0.00  0.00    +0.000 C 
ATOM     23  N   UNL     1      -0.530  12.313  18.774  0.00  0.00    +0.000 NA
ATOM     24  C   UNL     1      -0.493  13.070  20.053  0.00  0.00    +0.000 C 
BRANCH  21  26
ATOM     25  C   UNL     1       2.566  13.567  20.663  0.00  0.00    +0.000 C 
ATOM     26  C   UNL     1       1.645  14.679  20.144  0.00  0.00    +0.000 C 
ATOM     27  C   UNL     1       1.174  15.540  21.316  0.00  0.00    +0.000 C 
BRANCH  26  28
ATOM     28  O   UNL     1       2.401  15.505  19.259  0.00  0.00    +0.000 OA
ATOM     29  H   UNL     1       2.873  16.168  19.790  0.00  0.00    +0.000 HD
ENDBRANCH  26  28
ENDBRANCH  21  26
ENDBRANCH  15  23
BRANCH  19  30
ATOM     30  C   UNL     1       1.215   9.140  22.060  0.00  0.00    +0.000 C 
ATOM     31  N   UNL     1       1.647   9.111  23.122  0.00  0.00    +0.000 NA
ENDBRANCH  19  30
ENDBRANCH   1  18
BRANCH   3  32
ATOM     32  C   UNL     1       1.749   3.973  21.130  0.00  0.00    +0.000 C 
ATOM     33  N   UNL     1       0.703   3.288  20.544  0.00  0.00    +0.000 N 
ATOM     34  O   UNL     1       2.271   3.513  22.134  0.00  0.00    +0.000 OA
ATOM     35  H   UNL     1       0.372   3.444  19.601  0.00  0.00    +0.000 HD
ATOM     36  H   UNL     1       0.501   2.384  20.954  0.00  0.00    +0.000 HD
ENDBRANCH   3  32
TORSDOF 7
ENDMDL
MODEL 6
REMARK VINA RESULT:      -8.0      0.683      1.149
REMARK  Name = 
REMARK  9 active torsions:
REMARK  status: ('A' for Active; 'I' for Inactive)
REMARK    1  A    between atoms: C_1  and  C_2
REMARK    2  A    between atoms: C_2  and  C_3
REMARK    3  A    between atoms: C_2  and  O_4
REMARK    4  A    between atoms: C_2  and  C_5
REMARK    5  A    between atoms: N_7  and  C_8
REMARK    6  A    between atoms: C_11  and  N_12
REMARK    7  A    between atoms: C_14  and  C_15
REMARK    8  A    between atoms: N_19  and  C_20
REMARK    9  A    between atoms: C_28  and  C_29
REMARK                            x       y       z     vdW  Elec       q    Type
REMARK                         _______ _______ _______ _____ _____    ______ ____
ROOT
ATOM      1  N   UNL     1       2.168   7.222  19.914  0.00  0.00    +0.000 N 
ATOM      2  C   UNL     1       1.475   6.307  20.632  0.00  0.00    +0.000 A 
ATOM      3  C   UNL     1       2.152   5.116  20.522  0.00  0.00    +0.000 A 
ATOM      4  C   UNL     1       3.291   5.430  19.712  0.00  0.00    +0.000 A 
ATOM      5  N   UNL     1       4.247   4.549  19.312  0.00  0.00    +0.000 N 
ATOM      6  N   UNL     1       3.273   6.724  19.351  0.00  0.00    +0.000 NA
ATOM      7  H   UNL     1       4.273   3.621  19.726  0.00  0.00    +0.000 HD
ENDROOT
BRANCH   5   8
ATOM      8  C   UNL     1       4.991   4.602  18.108  0.00  0.00    +0.000 A 
ATOM      9  C   UNL     1       4.354   4.402  16.875  0.00  0.00    +0.000 A 
ATOM     10  C   UNL     1       5.097   4.397  15.689  0.00  0.00    +0.000 A 
ATOM     11  C   UNL     1       6.479   4.580  15.739  0.00  0.00    +0.000 A 
ATOM     12 CL   UNL     1       7.402   4.531  14.289  0.00  0.00    +0.000 Cl
ATOM     13  C   UNL     1       7.121   4.783  16.955  0.00  0.00    +0.000 A 
ATOM     14  C   UNL     1       6.378   4.792  18.131  0.00  0.00    +0.000 A 
ENDBRANCH   5   8
BRANCH   1  18
ATOM     15  C   UNL     1      -0.085  10.832  18.950  0.00  0.00    +0.000 C 
ATOM     16  C   UNL     1       0.927  10.226  17.938  0.00  0.00    +0.000 C 
ATOM     17  C   UNL     1       1.258   8.765  18.250  0.00  0.00    +0.000 C 
ATOM     18  C   UNL     1       1.796   8.615  19.673  0.00  0.00    +0.000 C 
ATOM     19  C   UNL     1       0.776   9.132  20.700  0.00  0.00    +0.000 C 
ATOM     20  C   UNL     1       0.366  10.580  20.405  0.00  0.00    +0.000 C 
BRANCH  15  23
ATOM     21  C   UNL     1      -0.204  14.009  20.051  0.00  0.00    +0.000 C 
ATOM     22  C   UNL     1       0.815  13.074  19.366  0.00  0.00    +0.000 C 
ATOM     23  N   UNL     1      -0.313  12.285  18.782  0.00  0.00    +0.000 NA
ATOM     24  C   UNL     1      -1.224  12.859  19.807  0.00  0.00    +0.000 C 
BRANCH  21  26
ATOM     25  C   UNL     1      -0.726  13.729  22.535  0.00  0.00    +0.000 C 
ATOM     26  C   UNL     1       0.120  14.458  21.483  0.00  0.00    +0.000 C 
ATOM     27  C   UNL     1      -0.099  15.966  21.609  0.00  0.00    +0.000 C 
BRANCH  26  28
ATOM     28  O   UNL     1       1.495  14.182  21.748  0.00  0.00    +0.000 OA
ATOM     29  H   UNL     1       1.965  14.135  20.898  0.00  0.00    +0.000 HD
ENDBRANCH  26  28
ENDBRANCH  21  26
ENDBRANCH  15  23
BRANCH  19  30
ATOM     30  C   UNL     1       1.322   9.061  22.076  0.00  0.00    +0.000 C 
ATOM     31  N   UNL     1       1.732   9.008  23.146  0.00  0.00    +0.000 NA
ENDBRANCH  19  30
ENDBRANCH   1  18
BRANCH   3  32
ATOM     32  C   UNL     1       1.713   3.881  21.139  0.00  0.00    +0.000 C 
ATOM     33  N   UNL     1       0.656   3.225  20.539  0.00  0.00    +0.000 N 
ATOM     34  O   UNL     1       2.211   3.404  22.147  0.00  0.00    +0.000 OA
ATOM     35  H   UNL     1       0.340   3.393  19.593  0.00  0.00    +0.000 HD
ATOM     36  H   UNL     1       0.424   2.326  20.944  0.00  0.00    +0.000 HD
ENDBRANCH   3  32
TORSDOF 7
ENDMDL
MODEL 7
REMARK VINA RESULT:      -7.7      3.124      8.730
REMARK  Name = 
REMARK  9 active torsions:
REMARK  status: ('A' for Active; 'I' for Inactive)
REMARK    1  A    between atoms: C_1  and  C_2
REMARK    2  A    between atoms: C_2  and  C_3
REMARK    3  A    between atoms: C_2  and  O_4
REMARK    4  A    between atoms: C_2  and  C_5
REMARK    5  A    between atoms: N_7  and  C_8
REMARK    6  A    between atoms: C_11  and  N_12
REMARK    7  A    between atoms: C_14  and  C_15
REMARK    8  A    between atoms: N_19  and  C_20
REMARK    9  A    between atoms: C_28  and  C_29
REMARK                            x       y       z     vdW  Elec       q    Type
REMARK                         _______ _______ _______ _____ _____    ______ ____
ROOT
ATOM      1  N   UNL     1       0.465  10.215  18.938  0.00  0.00    +0.000 N 
ATOM      2  C   UNL     1      -0.834  10.499  19.195  0.00  0.00    +0.000 A 
ATOM      3  C   UNL     1      -0.933  11.866  19.288  0.00  0.00    +0.000 A 
ATOM      4  C   UNL     1       0.397  12.336  19.038  0.00  0.00    +0.000 A 
ATOM      5  N   UNL     1       0.794  13.637  19.049  0.00  0.00    +0.000 N 
ATOM      6  N   UNL     1       1.232  11.303  18.832  0.00  0.00    +0.000 NA
ATOM      7  H   UNL     1       0.092  14.371  19.081  0.00  0.00    +0.000 HD
ENDROOT
BRANCH   5   8
ATOM      8  C   UNL     1       2.073  14.124  19.412  0.00  0.00    +0.000 A 
ATOM      9  C   UNL     1       2.964  14.573  18.427  0.00  0.00    +0.000 A 
ATOM     10  C   UNL     1       4.249  15.001  18.779  0.00  0.00    +0.000 A 
ATOM     11  C   UNL     1       4.646  14.967  20.116  0.00  0.00    +0.000 A 
ATOM     12 CL   UNL     1       6.239  15.450  20.548  0.00  0.00    +0.000 Cl
ATOM     13  C   UNL     1       3.771  14.527  21.102  0.00  0.00    +0.000 A 
ATOM     14  C   UNL     1       2.493  14.107  20.749  0.00  0.00    +0.000 A 
ENDBRANCH   5   8
BRANCH   1  18
ATOM     15  C   UNL     1       3.318   6.914  18.972  0.00  0.00    +0.000 C 
ATOM     16  C   UNL     1       2.832   7.538  17.635  0.00  0.00    +0.000 C 
ATOM     17  C   UNL     1       2.223   8.928  17.828  0.00  0.00    +0.000 C 
ATOM     18  C   UNL     1       1.069   8.888  18.830  0.00  0.00    +0.000 C 
ATOM     19  C   UNL     1       1.545   8.351  20.190  0.00  0.00    +0.000 C 
ATOM     20  C   UNL     1       2.213   6.978  20.049  0.00  0.00    +0.000 C 
BRANCH  15  23
ATOM     21  C   UNL     1       5.448   4.506  17.979  0.00  0.00    +0.000 C 
ATOM     22  C   UNL     1       5.210   5.376  19.231  0.00  0.00    +0.000 C 
ATOM     23  N   UNL     1       3.768   5.508  18.856  0.00  0.00    +0.000 NA
ATOM     24  C   UNL     1       4.112   5.115  17.464  0.00  0.00    +0.000 C 
BRANCH  21  26
ATOM     25  C   UNL     1       7.137   6.231  17.148  0.00  0.00    +0.000 C 
ATOM     26  C   UNL     1       6.752   4.747  17.205  0.00  0.00    +0.000 C 
ATOM     27  C   UNL     1       6.614   4.201  15.784  0.00  0.00    +0.000 C 
BRANCH  26  28
ATOM     28  O   UNL     1       7.806   4.039  17.855  0.00  0.00    +0.000 OA
ATOM     29  H   UNL     1       7.434   3.229  18.244  0.00  0.00    +0.000 HD
ENDBRANCH  26  28
ENDBRANCH  21  26
ENDBRANCH  15  23
BRANCH  19  30
ATOM     30  C   UNL     1       0.415   8.237  21.143  0.00  0.00    +0.000 C 
ATOM     31  N   UNL     1      -0.460   8.135  21.878  0.00  0.00    +0.000 NA
ENDBRANCH  19  30
ENDBRANCH   1  18
BRANCH   3  32
ATOM     32  C   UNL     1      -2.169  12.566  19.576  0.00  0.00    +0.000 C 
ATOM     33  N   UNL     1      -3.268  12.233  18.810  0.00  0.00    +0.000 N 
ATOM     34  O   UNL     1      -2.284  13.425  20.437  0.00  0.00    +0.000 OA
ATOM     35  H   UNL     1      -3.349  11.390  18.257  0.00  0.00    +0.000 HD
ATOM     36  H   UNL     1      -4.135  12.680  19.088  0.00  0.00    +0.000 HD
ENDBRANCH   3  32
TORSDOF 7
ENDMDL
MODEL 8
REMARK VINA RESULT:      -7.7      3.209      8.724
REMARK  Name = 
REMARK  9 active torsions:
REMARK  status: ('A' for Active; 'I' for Inactive)
REMARK    1  A    between atoms: C_1  and  C_2
REMARK    2  A    between atoms: C_2  and  C_3
REMARK    3  A    between atoms: C_2  and  O_4
REMARK    4  A    between atoms: C_2  and  C_5
REMARK    5  A    between atoms: N_7  and  C_8
REMARK    6  A    between atoms: C_11  and  N_12
REMARK    7  A    between atoms: C_14  and  C_15
REMARK    8  A    between atoms: N_19  and  C_20
REMARK    9  A    between atoms: C_28  and  C_29
REMARK                            x       y       z     vdW  Elec       q    Type
REMARK                         _______ _______ _______ _____ _____    ______ ____
ROOT
ATOM      1  N   UNL     1       0.457  10.625  19.028  0.00  0.00    +0.000 N 
ATOM      2  C   UNL     1      -0.767  10.997  19.471  0.00  0.00    +0.000 A 
ATOM      3  C   UNL     1      -0.773  12.370  19.523  0.00  0.00    +0.000 A 
ATOM      4  C   UNL     1       0.526  12.748  19.053  0.00  0.00    +0.000 A 
ATOM      5  N   UNL     1       0.993  14.022  18.951  0.00  0.00    +0.000 N 
ATOM      6  N   UNL     1       1.259  11.660  18.762  0.00  0.00    +0.000 NA
ATOM      7  H   UNL     1       0.348  14.798  19.061  0.00  0.00    +0.000 HD
ENDROOT
BRANCH   5   8
ATOM      8  C   UNL     1       2.339  14.439  19.093  0.00  0.00    +0.000 A 
ATOM      9  C   UNL     1       2.925  14.510  20.365  0.00  0.00    +0.000 A 
ATOM     10  C   UNL     1       4.236  14.977  20.513  0.00  0.00    +0.000 A 
ATOM     11  C   UNL     1       4.955  15.384  19.390  0.00  0.00    +0.000 A 
ATOM     12 CL   UNL     1       6.551  16.000  19.571  0.00  0.00    +0.000 Cl
ATOM     13  C   UNL     1       4.387  15.315  18.123  0.00  0.00    +0.000 A 
ATOM     14  C   UNL     1       3.085  14.846  17.980  0.00  0.00    +0.000 A 
ENDBRANCH   5   8
BRANCH   1  18
ATOM     15  C   UNL     1       3.077   7.140  18.860  0.00  0.00    +0.000 C 
ATOM     16  C   UNL     1       2.531   7.794  17.560  0.00  0.00    +0.000 C 
ATOM     17  C   UNL     1       2.033   9.222  17.792  0.00  0.00    +0.000 C 
ATOM     18  C   UNL     1       0.961   9.260  18.881  0.00  0.00    +0.000 C 
ATOM     19  C   UNL     1       1.504   8.693  20.203  0.00  0.00    +0.000 C 
ATOM     20  C   UNL     1       2.066   7.279  20.019  0.00  0.00    +0.000 C 
BRANCH  15  23
ATOM     21  C   UNL     1       2.523   3.851  19.301  0.00  0.00    +0.000 C 
ATOM     22  C   UNL     1       2.249   4.921  18.224  0.00  0.00    +0.000 C 
ATOM     23  N   UNL     1       3.422   5.707  18.717  0.00  0.00    +0.000 NA
ATOM     24  C   UNL     1       3.363   4.958  20.000  0.00  0.00    +0.000 C 
BRANCH  21  26
ATOM     25  C   UNL     1       1.671   2.522  21.308  0.00  0.00    +0.000 C 
ATOM     26  C   UNL     1       1.300   3.249  20.009  0.00  0.00    +0.000 C 
ATOM     27  C   UNL     1       0.588   2.279  19.066  0.00  0.00    +0.000 C 
BRANCH  26  28
ATOM     28  O   UNL     1       0.395   4.304  20.332  0.00  0.00    +0.000 OA
ATOM     29  H   UNL     1       0.842   4.911  20.946  0.00  0.00    +0.000 HD
ENDBRANCH  26  28
ENDBRANCH  21  26
ENDBRANCH  15  23
BRANCH  19  30
ATOM     30  C   UNL     1       0.447   8.656  21.242  0.00  0.00    +0.000 C 
ATOM     31  N   UNL     1      -0.367   8.615  22.049  0.00  0.00    +0.000 NA
ENDBRANCH  19  30
ENDBRANCH   1  18
BRANCH   3  32
ATOM     32  C   UNL     1      -1.907  13.154  19.970  0.00  0.00    +0.000 C 
ATOM     33  N   UNL     1      -3.155  12.747  19.541  0.00  0.00    +0.000 N 
ATOM     34  O   UNL     1      -1.817  14.142  20.682  0.00  0.00    +0.000 OA
ATOM     35  H   UNL     1      -3.363  11.831  19.166  0.00  0.00    +0.000 HD
ATOM     36  H   UNL     1      -3.932  13.265  19.934  0.00  0.00    +0.000 HD
ENDBRANCH   3  32
TORSDOF 7
ENDMDL
MODEL 9
REMARK VINA RESULT:      -7.7      3.016      8.770
REMARK  Name = 
REMARK  9 active torsions:
REMARK  status: ('A' for Active; 'I' for Inactive)
REMARK    1  A    between atoms: C_1  and  C_2
REMARK    2  A    between atoms: C_2  and  C_3
REMARK    3  A    between atoms: C_2  and  O_4
REMARK    4  A    between atoms: C_2  and  C_5
REMARK    5  A    between atoms: N_7  and  C_8
REMARK    6  A    between atoms: C_11  and  N_12
REMARK    7  A    between atoms: C_14  and  C_15
REMARK    8  A    between atoms: N_19  and  C_20
REMARK    9  A    between atoms: C_28  and  C_29
REMARK                            x       y       z     vdW  Elec       q    Type
REMARK                         _______ _______ _______ _____ _____    ______ ____
ROOT
ATOM      1  N   UNL     1       0.342  10.775  19.181  0.00  0.00    +0.000 N 
ATOM      2  C   UNL     1      -0.860  11.214  19.622  0.00  0.00    +0.000 A 
ATOM      3  C   UNL     1      -0.808  12.587  19.623  0.00  0.00    +0.000 A 
ATOM      4  C   UNL     1       0.500  12.893  19.127  0.00  0.00    +0.000 A 
ATOM      5  N   UNL     1       1.019  14.141  18.972  0.00  0.00    +0.000 N 
ATOM      6  N   UNL     1       1.183  11.765  18.868  0.00  0.00    +0.000 NA
ATOM      7  H   UNL     1       0.408  14.947  19.060  0.00  0.00    +0.000 HD
ENDROOT
BRANCH   5   8
ATOM      8  C   UNL     1       2.382  14.506  19.085  0.00  0.00    +0.000 A 
ATOM      9  C   UNL     1       2.999  14.552  20.343  0.00  0.00    +0.000 A 
ATOM     10  C   UNL     1       4.330  14.968  20.463  0.00  0.00    +0.000 A 
ATOM     11  C   UNL     1       5.039  15.349  19.324  0.00  0.00    +0.000 A 
ATOM     12 CL   UNL     1       6.661  15.903  19.471  0.00  0.00    +0.000 Cl
ATOM     13  C   UNL     1       4.441  15.304  18.071  0.00  0.00    +0.000 A 
ATOM     14  C   UNL     1       3.119  14.885  17.956  0.00  0.00    +0.000 A 
ENDBRANCH   5   8
BRANCH   1  18
ATOM     15  C   UNL     1       2.813   7.179  19.105  0.00  0.00    +0.000 C 
ATOM     16  C   UNL     1       2.269   7.805  17.790  0.00  0.00    +0.000 C 
ATOM     17  C   UNL     1       1.835   9.260  17.974  0.00  0.00    +0.000 C 
ATOM     18  C   UNL     1       0.787   9.386  19.080  0.00  0.00    +0.000 C 
ATOM     19  C   UNL     1       1.332   8.849  20.413  0.00  0.00    +0.000 C 
ATOM     20  C   UNL     1       1.831   7.406  20.275  0.00  0.00    +0.000 C 
BRANCH  15  23
ATOM     21  C   UNL     1       4.610   4.519  18.098  0.00  0.00    +0.000 C 
ATOM     22  C   UNL     1       4.528   5.442  19.332  0.00  0.00    +0.000 C 
ATOM     23  N   UNL     1       3.096   5.729  19.013  0.00  0.00    +0.000 NA
ATOM     24  C   UNL     1       3.330   5.263  17.621  0.00  0.00    +0.000 C 
BRANCH  21  26
ATOM     25  C   UNL     1       6.261   6.024  16.862  0.00  0.00    +0.000 C 
ATOM     26  C   UNL     1       5.898   4.589  17.265  0.00  0.00    +0.000 C 
ATOM     27  C   UNL     1       5.742   3.731  16.008  0.00  0.00    +0.000 C 
BRANCH  26  28
ATOM     28  O   UNL     1       6.972   4.058  18.038  0.00  0.00    +0.000 OA
ATOM     29  H   UNL     1       6.848   4.336  18.962  0.00  0.00    +0.000 HD
ENDBRANCH  26  28
ENDBRANCH  21  26
ENDBRANCH  15  23
BRANCH  19  30
ATOM     30  C   UNL     1       0.295   8.896  21.471  0.00  0.00    +0.000 C 
ATOM     31  N   UNL     1      -0.517   8.926  22.281  0.00  0.00    +0.000 NA
ENDBRANCH  19  30
ENDBRANCH   1  18
BRANCH   3  32
ATOM     32  C   UNL     1      -1.902  13.434  20.053  0.00  0.00    +0.000 C 
ATOM     33  N   UNL     1      -3.175  12.908  19.954  0.00  0.00    +0.000 N 
ATOM     34  O   UNL     1      -1.762  14.570  20.479  0.00  0.00    +0.000 OA
ATOM     35  H   UNL     1      -3.383  11.923  19.852  0.00  0.00    +0.000 HD
ATOM     36  H   UNL     1      -3.911  13.491  20.335  0.00  0.00    +0.000 HD
ENDBRANCH   3  32
TORSDOF 7
ENDMDL
