MODEL 1
REMARK VINA RESULT:      -6.9      0.000      0.000
REMARK  Name = 
REMARK  8 active torsions:
REMARK  status: ('A' for Active; 'I' for Inactive)
REMARK    1  A    between atoms: C_1  and  C_2
REMARK    2  A    between atoms: C_2  and  O_3
REMARK    3  A    between atoms: O_3  and  C_4
REMARK    4  A    between atoms: C_4  and  C_6
REMARK    5  A    between atoms: C_6  and  C_7
REMARK    6  A    between atoms: N_11  and  N_12
REMARK    7  A    between atoms: C_13  and  C_14
REMARK    8  A    between atoms: C_18  and  N_19
REMARK                            x       y       z     vdW  Elec       q    Type
REMARK                         _______ _______ _______ _____ _____    ______ ____
ROOT
ATOM      1  C   UNL     1       3.223   3.488  17.609  0.00  0.00    +0.000 A 
ATOM      2  C   UNL     1       4.574   3.477  17.323  0.00  0.00    +0.000 A 
ATOM      3  S   UNL     1       5.162   5.081  17.222  0.00  0.00    +0.000 S 
ATOM      4  C   UNL     1       3.598   5.683  17.637  0.00  0.00    +0.000 A 
ATOM      5  N   UNL     1       3.400   7.027  17.730  0.00  0.00    +0.000 N 
ATOM      6  N   UNL     1       2.695   4.749  17.843  0.00  0.00    +0.000 NA
ATOM      7  H   UNL     1       4.192   7.611  17.482  0.00  0.00    +0.000 HD
ENDROOT
BRANCH   5   8
ATOM      8  N   UNL     1       2.377   7.556  18.455  0.00  0.00    +0.000 NA
ATOM      9  C   UNL     1       2.086   8.792  18.213  0.00  0.00    +0.000 C 
BRANCH   9  10
ATOM     10  C   UNL     1       1.032   9.480  18.988  0.00  0.00    +0.000 A 
ATOM     11  C   UNL     1      -0.017  10.130  18.323  0.00  0.00    +0.000 A 
ATOM     12  C   UNL     1      -1.019  10.775  19.046  0.00  0.00    +0.000 A 
ATOM     13  C   UNL     1      -0.977  10.779  20.441  0.00  0.00    +0.000 A 
ATOM     14  C   UNL     1       0.073  10.126  21.103  0.00  0.00    +0.000 A 
ATOM     15  C   UNL     1       1.081   9.467  20.383  0.00  0.00    +0.000 A 
BRANCH  14  16
ATOM     16  N   UNL     1       0.113  10.130  22.572  0.00  0.00    +0.000 N 
ATOM     17  O   UNL     1       1.013   9.488  23.129  0.00  0.00    +0.000 OA
ATOM     18  O   UNL     1      -0.760  10.780  23.166  0.00  0.00    +0.000 OA
ENDBRANCH  14  16
ENDBRANCH   9  10
ENDBRANCH   5   8
BRANCH   1  19
ATOM     19  C   UNL     1       2.305   2.314  17.647  0.00  0.00    +0.000 C 
BRANCH  19  20
ATOM     20  C   UNL     1       1.428   2.383  18.877  0.00  0.00    +0.000 C 
ATOM     21  O   UNL     1       0.210   2.532  18.873  0.00  0.00    +0.000 OA
BRANCH  20  22
ATOM     22  O   UNL     1       2.192   2.264  19.999  0.00  0.00    +0.000 OA
BRANCH  22  24
ATOM     23  C   UNL     1       2.161   4.253  21.317  0.00  0.00    +0.000 C 
ATOM     24  C   UNL     1       1.623   2.839  21.183  0.00  0.00    +0.000 C 
ENDBRANCH  22  24
ENDBRANCH  20  22
ENDBRANCH  19  20
ENDBRANCH   1  19
TORSDOF 7
ENDMDL
MODEL 2
REMARK VINA RESULT:      -6.7      7.240      8.476
REMARK  Name = 
REMARK  8 active torsions:
REMARK  status: ('A' for Active; 'I' for Inactive)
REMARK    1  A    between atoms: C_1  and  C_2
REMARK    2  A    between atoms: C_2  and  O_3
REMARK    3  A    between atoms: O_3  and  C_4
REMARK    4  A    between atoms: C_4  and  C_6
REMARK    5  A    between atoms: C_6  and  C_7
REMARK    6  A    between atoms: N_11  and  N_12
REMARK    7  A    between atoms: C_13  and  C_14
REMARK    8  A    between atoms: C_18  and  N_19
REMARK                            x       y       z     vdW  Elec       q    Type
REMARK                         _______ _______ _______ _____ _____    ______ ____
ROOT
ATOM      1  C   UNL     1       6.369   5.858  16.719  0.00  0.00    +0.000 A 
ATOM      2  C   UNL     1       6.217   4.961  17.758  0.00  0.00    +0.000 A 
ATOM      3  S   UNL     1       7.166   5.451  19.095  0.00  0.00    +0.000 S 
ATOM      4  C   UNL     1       7.660   6.862  18.231  0.00  0.00    +0.000 A 
ATOM      5  N   UNL     1       8.507   7.749  18.822  0.00  0.00    +0.000 N 
ATOM      6  N   UNL     1       7.147   6.966  17.024  0.00  0.00    +0.000 NA
ATOM      7  H   UNL     1       8.854   7.487  19.740  0.00  0.00    +0.000 HD
ENDROOT
BRANCH   5   8
ATOM      8  N   UNL     1       8.589   9.045  18.419  0.00  0.00    +0.000 NA
ATOM      9  C   UNL     1       9.258   9.841  19.188  0.00  0.00    +0.000 C 
BRANCH   9  10
ATOM     10  C   UNL     1       9.357  11.281  18.873  0.00  0.00    +0.000 A 
ATOM     11  C   UNL     1       8.619  11.819  17.809  0.00  0.00    +0.000 A 
ATOM     12  C   UNL     1       8.701  13.178  17.510  0.00  0.00    +0.000 A 
ATOM     13  C   UNL     1       9.525  14.009  18.269  0.00  0.00    +0.000 A 
ATOM     14  C   UNL     1      10.261  13.467  19.333  0.00  0.00    +0.000 A 
ATOM     15  C   UNL     1      10.178  12.103  19.647  0.00  0.00    +0.000 A 
BRANCH  14  16
ATOM     16  N   UNL     1      11.128  14.345  20.131  0.00  0.00    +0.000 N 
ATOM     17  O   UNL     1      12.227  14.660  19.657  0.00  0.00    +0.000 OA
ATOM     18  O   UNL     1      10.704  14.718  21.235  0.00  0.00    +0.000 OA
ENDBRANCH  14  16
ENDBRANCH   9  10
ENDBRANCH   5   8
BRANCH   1  19
ATOM     19  C   UNL     1       5.827   5.729  15.336  0.00  0.00    +0.000 C 
BRANCH  19  20
ATOM     20  C   UNL     1       6.828   5.020  14.452  0.00  0.00    +0.000 C 
ATOM     21  O   UNL     1       7.873   5.505  14.031  0.00  0.00    +0.000 OA
BRANCH  20  22
ATOM     22  O   UNL     1       6.395   3.755  14.182  0.00  0.00    +0.000 OA
BRANCH  22  24
ATOM     23  C   UNL     1       5.904   2.950  11.990  0.00  0.00    +0.000 C 
ATOM     24  C   UNL     1       5.347   3.671  13.205  0.00  0.00    +0.000 C 
ENDBRANCH  22  24
ENDBRANCH  20  22
ENDBRANCH  19  20
ENDBRANCH   1  19
TORSDOF 7
ENDMDL
MODEL 3
REMARK VINA RESULT:      -6.7      0.945      1.151
REMARK  Name = 
REMARK  8 active torsions:
REMARK  status: ('A' for Active; 'I' for Inactive)
REMARK    1  A    between atoms: C_1  and  C_2
REMARK    2  A    between atoms: C_2  and  O_3
REMARK    3  A    between atoms: O_3  and  C_4
REMARK    4  A    between atoms: C_4  and  C_6
REMARK    5  A    between atoms: C_6  and  C_7
REMARK    6  A    between atoms: N_11  and  N_12
REMARK    7  A    between atoms: C_13  and  C_14
REMARK    8  A    between atoms: C_18  and  N_19
REMARK                            x       y       z     vdW  Elec       q    Type
REMARK                         _______ _______ _______ _____ _____    ______ ____
ROOT
ATOM      1  C   UNL     1       3.471   4.207  17.519  0.00  0.00    +0.000 A 
ATOM      2  C   UNL     1       4.824   4.332  17.276  0.00  0.00    +0.000 A 
ATOM      3  S   UNL     1       5.257   5.986  17.218  0.00  0.00    +0.000 S 
ATOM      4  C   UNL     1       3.630   6.427  17.594  0.00  0.00    +0.000 A 
ATOM      5  N   UNL     1       3.299   7.744  17.701  0.00  0.00    +0.000 N 
ATOM      6  N   UNL     1       2.816   5.407  17.756  0.00  0.00    +0.000 NA
ATOM      7  H   UNL     1       4.038   8.406  17.488  0.00  0.00    +0.000 HD
ENDROOT
BRANCH   5   8
ATOM      8  N   UNL     1       2.209   8.157  18.402  0.00  0.00    +0.000 NA
ATOM      9  C   UNL     1       1.884   9.401  18.270  0.00  0.00    +0.000 C 
BRANCH   9  10
ATOM     10  C   UNL     1       0.753   9.967  19.034  0.00  0.00    +0.000 A 
ATOM     11  C   UNL     1      -0.388  10.427  18.361  0.00  0.00    +0.000 A 
ATOM     12  C   UNL     1      -1.463  10.954  19.076  0.00  0.00    +0.000 A 
ATOM     13  C   UNL     1      -1.403  11.032  20.467  0.00  0.00    +0.000 A 
ATOM     14  C   UNL     1      -0.260  10.570  21.136  0.00  0.00    +0.000 A 
ATOM     15  C   UNL     1       0.823  10.029  20.427  0.00  0.00    +0.000 A 
BRANCH  14  16
ATOM     16  N   UNL     1      -0.200  10.651  22.602  0.00  0.00    +0.000 N 
ATOM     17  O   UNL     1       0.525   9.844  23.198  0.00  0.00    +0.000 OA
ATOM     18  O   UNL     1      -0.882  11.527  23.155  0.00  0.00    +0.000 OA
ENDBRANCH  14  16
ENDBRANCH   9  10
ENDBRANCH   5   8
BRANCH   1  19
ATOM     19  C   UNL     1       2.671   2.949  17.510  0.00  0.00    +0.000 C 
BRANCH  19  20
ATOM     20  C   UNL     1       3.153   2.022  18.603  0.00  0.00    +0.000 C 
ATOM     21  O   UNL     1       3.797   0.993  18.429  0.00  0.00    +0.000 OA
BRANCH  20  22
ATOM     22  O   UNL     1       2.757   2.494  19.819  0.00  0.00    +0.000 OA
BRANCH  22  24
ATOM     23  C   UNL     1       1.065   3.965  20.638  0.00  0.00    +0.000 C 
ATOM     24  C   UNL     1       1.338   2.620  19.987  0.00  0.00    +0.000 C 
ENDBRANCH  22  24
ENDBRANCH  20  22
ENDBRANCH  19  20
ENDBRANCH   1  19
TORSDOF 7
ENDMDL
MODEL 4
REMARK VINA RESULT:      -6.7      6.848      8.193
REMARK  Name = 
REMARK  8 active torsions:
REMARK  status: ('A' for Active; 'I' for Inactive)
REMARK    1  A    between atoms: C_1  and  C_2
REMARK    2  A    between atoms: C_2  and  O_3
REMARK    3  A    between atoms: O_3  and  C_4
REMARK    4  A    between atoms: C_4  and  C_6
REMARK    5  A    between atoms: C_6  and  C_7
REMARK    6  A    between atoms: N_11  and  N_12
REMARK    7  A    between atoms: C_13  and  C_14
REMARK    8  A    between atoms: C_18  and  N_19
REMARK                            x       y       z     vdW  Elec       q    Type
REMARK                         _______ _______ _______ _____ _____    ______ ____
ROOT
ATOM      1  C   UNL     1       6.271   5.786  16.594  0.00  0.00    +0.000 A 
ATOM      2  C   UNL     1       6.010   5.001  17.700  0.00  0.00    +0.000 A 
ATOM      3  S   UNL     1       6.883   5.586  19.050  0.00  0.00    +0.000 S 
ATOM      4  C   UNL     1       7.494   6.888  18.094  0.00  0.00    +0.000 A 
ATOM      5  N   UNL     1       8.334   7.799  18.659  0.00  0.00    +0.000 N 
ATOM      6  N   UNL     1       7.070   6.891  16.849  0.00  0.00    +0.000 NA
ATOM      7  H   UNL     1       8.606   7.616  19.619  0.00  0.00    +0.000 HD
ENDROOT
BRANCH   5   8
ATOM      8  N   UNL     1       8.497   9.046  18.141  0.00  0.00    +0.000 NA
ATOM      9  C   UNL     1       9.360   9.803  18.736  0.00  0.00    +0.000 C 
BRANCH   9  10
ATOM     10  C   UNL     1       9.569  11.196  18.291  0.00  0.00    +0.000 A 
ATOM     11  C   UNL     1      10.814  11.589  17.778  0.00  0.00    +0.000 A 
ATOM     12  C   UNL     1      11.017  12.900  17.349  0.00  0.00    +0.000 A 
ATOM     13  C   UNL     1       9.980  13.829  17.433  0.00  0.00    +0.000 A 
ATOM     14  C   UNL     1       8.737  13.431  17.946  0.00  0.00    +0.000 A 
ATOM     15  C   UNL     1       8.520  12.113  18.372  0.00  0.00    +0.000 A 
BRANCH  14  16
ATOM     16  N   UNL     1       7.646  14.412  18.032  0.00  0.00    +0.000 N 
ATOM     17  O   UNL     1       7.883  15.496  18.579  0.00  0.00    +0.000 OA
ATOM     18  O   UNL     1       6.549  14.092  17.549  0.00  0.00    +0.000 OA
ENDBRANCH  14  16
ENDBRANCH   9  10
ENDBRANCH   5   8
BRANCH   1  19
ATOM     19  C   UNL     1       5.821   5.540  15.194  0.00  0.00    +0.000 C 
BRANCH  19  20
ATOM     20  C   UNL     1       6.965   4.993  14.372  0.00  0.00    +0.000 C 
ATOM     21  O   UNL     1       8.069   5.515  14.255  0.00  0.00    +0.000 OA
BRANCH  20  22
ATOM     22  O   UNL     1       6.587   3.831  13.766  0.00  0.00    +0.000 OA
BRANCH  22  24
ATOM     23  C   UNL     1       5.148   3.235  11.958  0.00  0.00    +0.000 C 
ATOM     24  C   UNL     1       5.207   3.772  13.378  0.00  0.00    +0.000 C 
ENDBRANCH  22  24
ENDBRANCH  20  22
ENDBRANCH  19  20
ENDBRANCH   1  19
TORSDOF 7
ENDMDL
MODEL 5
REMARK VINA RESULT:      -6.7      1.254      1.533
REMARK  Name = 
REMARK  8 active torsions:
REMARK  status: ('A' for Active; 'I' for Inactive)
REMARK    1  A    between atoms: C_1  and  C_2
REMARK    2  A    between atoms: C_2  and  O_3
REMARK    3  A    between atoms: O_3  and  C_4
REMARK    4  A    between atoms: C_4  and  C_6
REMARK    5  A    between atoms: C_6  and  C_7
REMARK    6  A    between atoms: N_11  and  N_12
REMARK    7  A    between atoms: C_13  and  C_14
REMARK    8  A    between atoms: C_18  and  N_19
REMARK                            x       y       z     vdW  Elec       q    Type
REMARK                         _______ _______ _______ _____ _____    ______ ____
ROOT
ATOM      1  C   UNL     1       4.397   4.082  17.681  0.00  0.00    +0.000 A 
ATOM      2  C   UNL     1       5.559   4.280  16.960  0.00  0.00    +0.000 A 
ATOM      3  S   UNL     1       5.655   5.908  16.443  0.00  0.00    +0.000 S 
ATOM      4  C   UNL     1       4.182   6.261  17.274  0.00  0.00    +0.000 A 
ATOM      5  N   UNL     1       3.679   7.526  17.239  0.00  0.00    +0.000 N 
ATOM      6  N   UNL     1       3.654   5.233  17.901  0.00  0.00    +0.000 NA
ATOM      7  H   UNL     1       4.184   8.189  16.659  0.00  0.00    +0.000 HD
ENDROOT
BRANCH   5   8
ATOM      8  N   UNL     1       2.816   7.984  18.185  0.00  0.00    +0.000 NA
ATOM      9  C   UNL     1       1.946   8.854  17.791  0.00  0.00    +0.000 C 
BRANCH   9  10
ATOM     10  C   UNL     1       1.001   9.460  18.753  0.00  0.00    +0.000 A 
ATOM     11  C   UNL     1      -0.082  10.221  18.288  0.00  0.00    +0.000 A 
ATOM     12  C   UNL     1      -0.982  10.789  19.189  0.00  0.00    +0.000 A 
ATOM     13  C   UNL     1      -0.803  10.606  20.560  0.00  0.00    +0.000 A 
ATOM     14  C   UNL     1       0.281   9.844  21.020  0.00  0.00    +0.000 A 
ATOM     15  C   UNL     1       1.186   9.261  20.122  0.00  0.00    +0.000 A 
BRANCH  14  16
ATOM     16  N   UNL     1       0.465   9.652  22.465  0.00  0.00    +0.000 N 
ATOM     17  O   UNL     1       1.615   9.458  22.882  0.00  0.00    +0.000 OA
ATOM     18  O   UNL     1      -0.546   9.697  23.183  0.00  0.00    +0.000 OA
ENDBRANCH  14  16
ENDBRANCH   9  10
ENDBRANCH   5   8
BRANCH   1  19
ATOM     19  C   UNL     1       3.869   2.785  18.190  0.00  0.00    +0.000 C 
BRANCH  19  20
ATOM     20  C   UNL     1       4.158   2.654  19.669  0.00  0.00    +0.000 C 
ATOM     21  O   UNL     1       5.076   2.005  20.158  0.00  0.00    +0.000 OA
BRANCH  20  22
ATOM     22  O   UNL     1       3.237   3.360  20.386  0.00  0.00    +0.000 OA
BRANCH  22  24
ATOM     23  C   UNL     1       1.159   2.839  21.436  0.00  0.00    +0.000 C 
ATOM     24  C   UNL     1       2.665   2.655  21.496  0.00  0.00    +0.000 C 
ENDBRANCH  22  24
ENDBRANCH  20  22
ENDBRANCH  19  20
ENDBRANCH   1  19
TORSDOF 7
ENDMDL
MODEL 6
REMARK VINA RESULT:      -6.6      3.672      8.047
REMARK  Name = 
REMARK  8 active torsions:
REMARK  status: ('A' for Active; 'I' for Inactive)
REMARK    1  A    between atoms: C_1  and  C_2
REMARK    2  A    between atoms: C_2  and  O_3
REMARK    3  A    between atoms: O_3  and  C_4
REMARK    4  A    between atoms: C_4  and  C_6
REMARK    5  A    between atoms: C_6  and  C_7
REMARK    6  A    between atoms: N_11  and  N_12
REMARK    7  A    between atoms: C_13  and  C_14
REMARK    8  A    between atoms: C_18  and  N_19
REMARK                            x       y       z     vdW  Elec       q    Type
REMARK                         _______ _______ _______ _____ _____    ______ ____
ROOT
ATOM      1  C   UNL     1       0.005  10.574  19.957  0.00  0.00    +0.000 A 
ATOM      2  C   UNL     1      -0.167  10.822  21.304  0.00  0.00    +0.000 A 
ATOM      3  S   UNL     1       0.476   9.529  22.222  0.00  0.00    +0.000 S 
ATOM      4  C   UNL     1       1.007   8.759  20.771  0.00  0.00    +0.000 A 
ATOM      5  N   UNL     1       1.659   7.566  20.843  0.00  0.00    +0.000 N 
ATOM      6  N   UNL     1       0.727   9.425  19.671  0.00  0.00    +0.000 NA
ATOM      7  H   UNL     1       1.742   7.162  21.771  0.00  0.00    +0.000 HD
ENDROOT
BRANCH   5   8
ATOM      8  N   UNL     1       2.472   7.128  19.845  0.00  0.00    +0.000 NA
ATOM      9  C   UNL     1       2.372   5.877  19.535  0.00  0.00    +0.000 C 
BRANCH   9  10
ATOM     10  C   UNL     1       3.252   5.286  18.505  0.00  0.00    +0.000 A 
ATOM     11  C   UNL     1       2.889   4.087  17.876  0.00  0.00    +0.000 A 
ATOM     12  C   UNL     1       3.711   3.527  16.899  0.00  0.00    +0.000 A 
ATOM     13  C   UNL     1       4.904   4.159  16.547  0.00  0.00    +0.000 A 
ATOM     14  C   UNL     1       5.263   5.359  17.178  0.00  0.00    +0.000 A 
ATOM     15  C   UNL     1       4.438   5.934  18.156  0.00  0.00    +0.000 A 
BRANCH  14  16
ATOM     16  N   UNL     1       6.519   6.022  16.805  0.00  0.00    +0.000 N 
ATOM     17  O   UNL     1       6.517   7.256  16.709  0.00  0.00    +0.000 OA
ATOM     18  O   UNL     1       7.510   5.302  16.607  0.00  0.00    +0.000 OA
ENDBRANCH  14  16
ENDBRANCH   9  10
ENDBRANCH   5   8
BRANCH   1  19
ATOM     19  C   UNL     1      -0.530  11.380  18.822  0.00  0.00    +0.000 C 
BRANCH  19  20
ATOM     20  C   UNL     1      -2.017  11.145  18.677  0.00  0.00    +0.000 C 
ATOM     21  O   UNL     1      -2.897  11.894  19.086  0.00  0.00    +0.000 OA
BRANCH  20  22
ATOM     22  O   UNL     1      -2.239   9.966  18.029  0.00  0.00    +0.000 OA
BRANCH  22  24
ATOM     23  C   UNL     1      -2.797   9.855  15.711  0.00  0.00    +0.000 C 
ATOM     24  C   UNL     1      -3.350   9.975  17.120  0.00  0.00    +0.000 C 
ENDBRANCH  22  24
ENDBRANCH  20  22
ENDBRANCH  19  20
ENDBRANCH   1  19
TORSDOF 7
ENDMDL
MODEL 7
REMARK VINA RESULT:      -6.5      6.249      7.194
REMARK  Name = 
REMARK  8 active torsions:
REMARK  status: ('A' for Active; 'I' for Inactive)
REMARK    1  A    between atoms: C_1  and  C_2
REMARK    2  A    between atoms: C_2  and  O_3
REMARK    3  A    between atoms: O_3  and  C_4
REMARK    4  A    between atoms: C_4  and  C_6
REMARK    5  A    between atoms: C_6  and  C_7
REMARK    6  A    between atoms: N_11  and  N_12
REMARK    7  A    between atoms: C_13  and  C_14
REMARK    8  A    between atoms: C_18  and  N_19
REMARK                            x       y       z     vdW  Elec       q    Type
REMARK                         _______ _______ _______ _____ _____    ______ ____
ROOT
ATOM      1  C   UNL     1       5.210   5.263  18.385  0.00  0.00    +0.000 A 
ATOM      2  C   UNL     1       5.469   4.396  17.342  0.00  0.00    +0.000 A 
ATOM      3  S   UNL     1       6.621   5.087  16.282  0.00  0.00    +0.000 S 
ATOM      4  C   UNL     1       6.754   6.462  17.318  0.00  0.00    +0.000 A 
ATOM      5  N   UNL     1       7.604   7.473  16.986  0.00  0.00    +0.000 N 
ATOM      6  N   UNL     1       5.992   6.409  18.389  0.00  0.00    +0.000 NA
ATOM      7  H   UNL     1       8.077   7.380  16.093  0.00  0.00    +0.000 HD
ENDROOT
BRANCH   5   8
ATOM      8  N   UNL     1       8.090   8.339  17.916  0.00  0.00    +0.000 NA
ATOM      9  C   UNL     1       8.353   9.534  17.500  0.00  0.00    +0.000 C 
BRANCH   9  10
ATOM     10  C   UNL     1       8.942  10.535  18.415  0.00  0.00    +0.000 A 
ATOM     11  C   UNL     1       9.172  10.207  19.758  0.00  0.00    +0.000 A 
ATOM     12  C   UNL     1       9.735  11.142  20.625  0.00  0.00    +0.000 A 
ATOM     13  C   UNL     1      10.065  12.414  20.158  0.00  0.00    +0.000 A 
ATOM     14  C   UNL     1       9.834  12.738  18.813  0.00  0.00    +0.000 A 
ATOM     15  C   UNL     1       9.277  11.800  17.931  0.00  0.00    +0.000 A 
BRANCH  14  16
ATOM     16  N   UNL     1      10.184  14.078  18.323  0.00  0.00    +0.000 N 
ATOM     17  O   UNL     1      10.672  14.171  17.189  0.00  0.00    +0.000 OA
ATOM     18  O   UNL     1       9.969  15.038  19.079  0.00  0.00    +0.000 OA
ENDBRANCH  14  16
ENDBRANCH   9  10
ENDBRANCH   5   8
BRANCH   1  19
ATOM     19  C   UNL     1       4.174   5.105  19.446  0.00  0.00    +0.000 C 
BRANCH  19  20
ATOM     20  C   UNL     1       2.810   4.938  18.816  0.00  0.00    +0.000 C 
ATOM     21  O   UNL     1       2.308   5.700  17.996  0.00  0.00    +0.000 OA
BRANCH  20  22
ATOM     22  O   UNL     1       2.209   3.814  19.300  0.00  0.00    +0.000 OA
BRANCH  22  24
ATOM     23  C   UNL     1       1.317   2.775  21.254  0.00  0.00    +0.000 C 
ATOM     24  C   UNL     1       1.315   4.032  20.401  0.00  0.00    +0.000 C 
ENDBRANCH  22  24
ENDBRANCH  20  22
ENDBRANCH  19  20
ENDBRANCH   1  19
TORSDOF 7
ENDMDL
MODEL 8
REMARK VINA RESULT:      -6.5      2.949      4.265
REMARK  Name = 
REMARK  8 active torsions:
REMARK  status: ('A' for Active; 'I' for Inactive)
REMARK    1  A    between atoms: C_1  and  C_2
REMARK    2  A    between atoms: C_2  and  O_3
REMARK    3  A    between atoms: O_3  and  C_4
REMARK    4  A    between atoms: C_4  and  C_6
REMARK    5  A    between atoms: C_6  and  C_7
REMARK    6  A    between atoms: N_11  and  N_12
REMARK    7  A    between atoms: C_13  and  C_14
REMARK    8  A    between atoms: C_18  and  N_19
REMARK                            x       y       z     vdW  Elec       q    Type
REMARK                         _______ _______ _______ _____ _____    ______ ____
ROOT
ATOM      1  C   UNL     1       4.740   5.006  16.802  0.00  0.00    +0.000 A 
ATOM      2  C   UNL     1       4.572   3.712  17.256  0.00  0.00    +0.000 A 
ATOM      3  S   UNL     1       3.813   3.727  18.790  0.00  0.00    +0.000 S 
ATOM      4  C   UNL     1       3.692   5.448  18.716  0.00  0.00    +0.000 A 
ATOM      5  N   UNL     1       3.119   6.126  19.749  0.00  0.00    +0.000 N 
ATOM      6  N   UNL     1       4.182   5.979  17.617  0.00  0.00    +0.000 NA
ATOM      7  H   UNL     1       2.844   5.565  20.549  0.00  0.00    +0.000 HD
ENDROOT
BRANCH   5   8
ATOM      8  N   UNL     1       2.596   7.371  19.591  0.00  0.00    +0.000 NA
ATOM      9  C   UNL     1       1.579   7.661  20.334  0.00  0.00    +0.000 C 
BRANCH   9  10
ATOM     10  C   UNL     1       0.898   8.966  20.199  0.00  0.00    +0.000 A 
ATOM     11  C   UNL     1       0.899   9.633  18.965  0.00  0.00    +0.000 A 
ATOM     12  C   UNL     1       0.252  10.860  18.827  0.00  0.00    +0.000 A 
ATOM     13  C   UNL     1      -0.395  11.433  19.922  0.00  0.00    +0.000 A 
ATOM     14  C   UNL     1      -0.393  10.763  21.154  0.00  0.00    +0.000 A 
ATOM     15  C   UNL     1       0.247   9.523  21.300  0.00  0.00    +0.000 A 
BRANCH  14  16
ATOM     16  N   UNL     1      -1.076  11.369  22.305  0.00  0.00    +0.000 N 
ATOM     17  O   UNL     1      -0.576  11.208  23.426  0.00  0.00    +0.000 OA
ATOM     18  O   UNL     1      -2.117  12.007  22.083  0.00  0.00    +0.000 OA
ENDBRANCH  14  16
ENDBRANCH   9  10
ENDBRANCH   5   8
BRANCH   1  19
ATOM     19  C   UNL     1       5.477   5.437  15.580  0.00  0.00    +0.000 C 
BRANCH  19  20
ATOM     20  C   UNL     1       6.813   4.732  15.505  0.00  0.00    +0.000 C 
ATOM     21  O   UNL     1       7.685   4.770  16.368  0.00  0.00    +0.000 OA
BRANCH  20  22
ATOM     22  O   UNL     1       6.913   4.051  14.329  0.00  0.00    +0.000 OA
BRANCH  22  24
ATOM     23  C   UNL     1       6.018   3.307  12.246  0.00  0.00    +0.000 C 
ATOM     24  C   UNL     1       5.692   3.946  13.584  0.00  0.00    +0.000 C 
ENDBRANCH  22  24
ENDBRANCH  20  22
ENDBRANCH  19  20
ENDBRANCH   1  19
TORSDOF 7
ENDMDL
MODEL 9
REMARK VINA RESULT:      -6.5      3.402      4.705
REMARK  Name = 
REMARK  8 active torsions:
REMARK  status: ('A' for Active; 'I' for Inactive)
REMARK    1  A    between atoms: C_1  and  C_2
REMARK    2  A    between atoms: C_2  and  O_3
REMARK    3  A    between atoms: O_3  and  C_4
REMARK    4  A    between atoms: C_4  and  C_6
REMARK    5  A    between atoms: C_6  and  C_7
REMARK    6  A    between atoms: N_11  and  N_12
REMARK    7  A    between atoms: C_13  and  C_14
REMARK    8  A    between atoms: C_18  and  N_19
REMARK                            x       y       z     vdW  Elec       q    Type
REMARK                         _______ _______ _______ _____ _____    ______ ____
ROOT
ATOM      1  C   UNL     1       4.389   5.812  17.141  0.00  0.00    +0.000 A 
ATOM      2  C   UNL     1       4.222   4.451  17.304  0.00  0.00    +0.000 A 
ATOM      3  S   UNL     1       3.390   4.137  18.766  0.00  0.00    +0.000 S 
ATOM      4  C   UNL     1       3.241   5.834  19.049  0.00  0.00    +0.000 A 
ATOM      5  N   UNL     1       2.606   6.274  20.170  0.00  0.00    +0.000 N 
ATOM      6  N   UNL     1       3.773   6.588  18.112  0.00  0.00    +0.000 NA
ATOM      7  H   UNL     1       2.303   5.555  20.820  0.00  0.00    +0.000 HD
ENDROOT
BRANCH   5   8
ATOM      8  N   UNL     1       2.068   7.521  20.251  0.00  0.00    +0.000 NA
ATOM      9  C   UNL     1       1.140   7.686  21.135  0.00  0.00    +0.000 C 
BRANCH   9  10
ATOM     10  C   UNL     1       0.448   8.985  21.263  0.00  0.00    +0.000 A 
ATOM     11  C   UNL     1       0.028   9.435  22.523  0.00  0.00    +0.000 A 
ATOM     12  C   UNL     1      -0.619  10.664  22.653  0.00  0.00    +0.000 A 
ATOM     13  C   UNL     1      -0.855  11.449  21.524  0.00  0.00    +0.000 A 
ATOM     14  C   UNL     1      -0.433  10.995  20.266  0.00  0.00    +0.000 A 
ATOM     15  C   UNL     1       0.226   9.765  20.126  0.00  0.00    +0.000 A 
BRANCH  14  16
ATOM     16  N   UNL     1      -0.682  11.825  19.079  0.00  0.00    +0.000 N 
ATOM     17  O   UNL     1       0.247  12.526  18.657  0.00  0.00    +0.000 OA
ATOM     18  O   UNL     1      -1.813  11.773  18.572  0.00  0.00    +0.000 OA
ENDBRANCH  14  16
ENDBRANCH   9  10
ENDBRANCH   5   8
BRANCH   1  19
ATOM     19  C   UNL     1       5.176   6.497  16.076  0.00  0.00    +0.000 C 
BRANCH  19  20
ATOM     20  C   UNL     1       6.483   5.771  15.851  0.00  0.00    +0.000 C 
ATOM     21  O   UNL     1       7.346   5.583  16.703  0.00  0.00    +0.000 OA
BRANCH  20  22
ATOM     22  O   UNL     1       6.569   5.360  14.554  0.00  0.00    +0.000 OA
BRANCH  22  24
ATOM     23  C   UNL     1       6.307   3.720  12.840  0.00  0.00    +0.000 C 
ATOM     24  C   UNL     1       6.260   3.975  14.337  0.00  0.00    +0.000 C 
ENDBRANCH  22  24
ENDBRANCH  20  22
ENDBRANCH  19  20
ENDBRANCH   1  19
TORSDOF 7
ENDMDL
