MODEL 1
REMARK VINA RESULT:      -7.8      0.000      0.000
REMARK  Name = 
REMARK  10 active torsions:
REMARK  status: ('A' for Active; 'I' for Inactive)
REMARK    1  A    between atoms: C_1  and  C_2
REMARK    2  A    between atoms: N_4  and  C_5
REMARK    3  A    between atoms: C_6  and  C_7
REMARK    4  A    between atoms: C_8  and  N_9
REMARK    5  A    between atoms: N_9  and  S_10
REMARK    6  A    between atoms: S_10  and  C_13
REMARK    7  A    between atoms: C_17  and  C_18
REMARK    8  A    between atoms: C_18  and  C_19
REMARK    9  A    between atoms: C_19  and  C_20
REMARK   10  A    between atoms: C_20  and  C_21
REMARK                            x       y       z     vdW  Elec       q    Type
REMARK                         _______ _______ _______ _____ _____    ______ ____
ROOT
ATOM      1  C   UNL     1      10.268  13.241  19.199  0.00  0.00    +0.000 A 
ATOM      2  C   UNL     1       9.650  12.621  20.276  0.00  0.00    +0.000 A 
ATOM      3 CL   UNL     1       9.298  13.317  21.819  0.00  0.00    +0.000 Cl
ATOM      4  C   UNL     1       9.257  11.283  20.165  0.00  0.00    +0.000 A 
ATOM      5  C   UNL     1       9.326  10.549  18.983  0.00  0.00    +0.000 A 
ATOM      6  C   UNL     1       9.958  11.178  17.908  0.00  0.00    +0.000 A 
ATOM      7  C   UNL     1      10.440  12.502  18.014  0.00  0.00    +0.000 A 
ATOM      8 CL   UNL     1      11.285  13.086  16.621  0.00  0.00    +0.000 Cl
ENDROOT
BRANCH   1   9
ATOM      9  S   UNL     1      10.869  14.894  19.320  0.00  0.00    +0.000 S 
ATOM     10  O   UNL     1      12.275  14.986  18.991  0.00  0.00    +0.000 OA
ATOM     11  O   UNL     1      10.409  15.444  20.576  0.00  0.00    +0.000 OA
BRANCH   9  12
ATOM     12  N   UNL     1       9.979  15.684  18.100  0.00  0.00    +0.000 N 
ATOM     13  H   UNL     1      10.042  15.081  17.277  0.00  0.00    +0.000 HD
BRANCH  12  21
ATOM     14  C   UNL     1       9.348  18.631  19.078  0.00  0.00    +0.000 C 
ATOM     15  C   UNL     1       8.411  17.513  18.816  0.00  0.00    +0.000 A 
ATOM     16  N   UNL     1       7.094  17.702  18.941  0.00  0.00    +0.000 NA
ATOM     17  N   UNL     1       6.555  16.521  18.586  0.00  0.00    +0.000 N 
ATOM     18  C   UNL     1       5.117  16.379  18.610  0.00  0.00    +0.000 C 
ATOM     19  C   UNL     1       7.482  15.585  18.206  0.00  0.00    +0.000 A 
ATOM     20  C   UNL     1       7.135  14.212  17.758  0.00  0.00    +0.000 C 
ATOM     21  C   UNL     1       8.710  16.193  18.380  0.00  0.00    +0.000 A 
ENDBRANCH  12  21
ENDBRANCH   9  12
ENDBRANCH   1   9
BRANCH   5  22
ATOM     22  C   UNL     1       8.839   9.117  18.868  0.00  0.00    +0.000 C 
BRANCH  22  23
ATOM     23  C   UNL     1       7.792   8.787  17.776  0.00  0.00    +0.000 C 
BRANCH  23  24
ATOM     24  C   UNL     1       7.828   7.340  17.276  0.00  0.00    +0.000 C 
BRANCH  24  25
ATOM     25  C   UNL     1       6.792   6.384  17.882  0.00  0.00    +0.000 C 
ATOM     26  C   UNL     1       7.201   4.927  17.568  0.00  0.00    +0.000 C 
ATOM     27  C   UNL     1       6.994   4.583  16.093  0.00  0.00    +0.000 C 
ATOM     28  N   UNL     1       5.615   4.845  15.671  0.00  0.00    +0.000 NA
ATOM     29  C   UNL     1       5.238   6.242  15.898  0.00  0.00    +0.000 C 
ATOM     30  C   UNL     1       5.377   6.637  17.367  0.00  0.00    +0.000 C 
ATOM     31  H   UNL     1       4.994   4.248  16.218  0.00  0.00    +0.000 HD
ENDBRANCH  24  25
ENDBRANCH  23  24
ENDBRANCH  22  23
ENDBRANCH   5  22
TORSDOF 7
ENDMDL
MODEL 2
REMARK VINA RESULT:      -7.7      8.015      9.686
REMARK  Name = 
REMARK  10 active torsions:
REMARK  status: ('A' for Active; 'I' for Inactive)
REMARK    1  A    between atoms: C_1  and  C_2
REMARK    2  A    between atoms: N_4  and  C_5
REMARK    3  A    between atoms: C_6  and  C_7
REMARK    4  A    between atoms: C_8  and  N_9
REMARK    5  A    between atoms: N_9  and  S_10
REMARK    6  A    between atoms: S_10  and  C_13
REMARK    7  A    between atoms: C_17  and  C_18
REMARK    8  A    between atoms: C_18  and  C_19
REMARK    9  A    between atoms: C_19  and  C_20
REMARK   10  A    between atoms: C_20  and  C_21
REMARK                            x       y       z     vdW  Elec       q    Type
REMARK                         _______ _______ _______ _____ _____    ______ ____
ROOT
ATOM      1  C   UNL     1       0.740  10.683  20.218  0.00  0.00    +0.000 A 
ATOM      2  C   UNL     1       1.327  10.889  18.977  0.00  0.00    +0.000 A 
ATOM      3 CL   UNL     1       1.539  12.398  18.161  0.00  0.00    +0.000 Cl
ATOM      4  C   UNL     1       1.806   9.790  18.254  0.00  0.00    +0.000 A 
ATOM      5  C   UNL     1       1.855   8.492  18.756  0.00  0.00    +0.000 A 
ATOM      6  C   UNL     1       1.254   8.294  20.001  0.00  0.00    +0.000 A 
ATOM      7  C   UNL     1       0.687   9.370  20.721  0.00  0.00    +0.000 A 
ATOM      8 CL   UNL     1      -0.103   8.927  22.196  0.00  0.00    +0.000 Cl
ENDROOT
BRANCH   1   9
ATOM      9  S   UNL     1       0.035  12.020  21.126  0.00  0.00    +0.000 S 
ATOM     10  O   UNL     1       1.045  12.923  21.634  0.00  0.00    +0.000 OA
ATOM     11  O   UNL     1      -0.934  11.470  22.046  0.00  0.00    +0.000 OA
BRANCH   9  12
ATOM     12  N   UNL     1      -0.857  12.833  19.923  0.00  0.00    +0.000 N 
ATOM     13  H   UNL     1      -0.246  12.874  19.105  0.00  0.00    +0.000 HD
BRANCH  12  21
ATOM     14  C   UNL     1      -3.400  13.949  21.449  0.00  0.00    +0.000 C 
ATOM     15  C   UNL     1      -3.331  12.964  20.344  0.00  0.00    +0.000 A 
ATOM     16  N   UNL     1      -4.457  12.460  19.828  0.00  0.00    +0.000 NA
ATOM     17  N   UNL     1      -4.034  11.657  18.834  0.00  0.00    +0.000 N 
ATOM     18  C   UNL     1      -5.018  10.943  18.053  0.00  0.00    +0.000 C 
ATOM     19  C   UNL     1      -2.672  11.651  18.673  0.00  0.00    +0.000 A 
ATOM     20  C   UNL     1      -1.966  10.856  17.635  0.00  0.00    +0.000 C 
ATOM     21  C   UNL     1      -2.181  12.470  19.671  0.00  0.00    +0.000 A 
ENDBRANCH  12  21
ENDBRANCH   9  12
ENDBRANCH   1   9
BRANCH   5  22
ATOM     22  C   UNL     1       2.433   7.325  17.978  0.00  0.00    +0.000 C 
BRANCH  22  23
ATOM     23  C   UNL     1       3.575   6.507  18.629  0.00  0.00    +0.000 C 
BRANCH  23  24
ATOM     24  C   UNL     1       3.160   5.122  19.130  0.00  0.00    +0.000 C 
BRANCH  24  25
ATOM     25  C   UNL     1       1.791   4.610  18.661  0.00  0.00    +0.000 C 
ATOM     26  C   UNL     1       1.075   3.919  19.843  0.00  0.00    +0.000 C 
ATOM     27  C   UNL     1       1.716   2.574  20.189  0.00  0.00    +0.000 C 
ATOM     28  N   UNL     1       1.772   1.692  19.020  0.00  0.00    +0.000 NA
ATOM     29  C   UNL     1       2.511   2.308  17.915  0.00  0.00    +0.000 C 
ATOM     30  C   UNL     1       1.890   3.637  17.488  0.00  0.00    +0.000 C 
ATOM     31  H   UNL     1       0.817   1.510  18.711  0.00  0.00    +0.000 HD
ENDBRANCH  24  25
ENDBRANCH  23  24
ENDBRANCH  22  23
ENDBRANCH   5  22
TORSDOF 7
ENDMDL
MODEL 3
REMARK VINA RESULT:      -7.5      5.506     10.245
REMARK  Name = 
REMARK  10 active torsions:
REMARK  status: ('A' for Active; 'I' for Inactive)
REMARK    1  A    between atoms: C_1  and  C_2
REMARK    2  A    between atoms: N_4  and  C_5
REMARK    3  A    between atoms: C_6  and  C_7
REMARK    4  A    between atoms: C_8  and  N_9
REMARK    5  A    between atoms: N_9  and  S_10
REMARK    6  A    between atoms: S_10  and  C_13
REMARK    7  A    between atoms: C_17  and  C_18
REMARK    8  A    between atoms: C_18  and  C_19
REMARK    9  A    between atoms: C_19  and  C_20
REMARK   10  A    between atoms: C_20  and  C_21
REMARK                            x       y       z     vdW  Elec       q    Type
REMARK                         _______ _______ _______ _____ _____    ______ ____
ROOT
ATOM      1  C   UNL     1       6.486   5.938  17.788  0.00  0.00    +0.000 A 
ATOM      2  C   UNL     1       7.596   6.127  18.599  0.00  0.00    +0.000 A 
ATOM      3 CL   UNL     1       8.359   4.952  19.612  0.00  0.00    +0.000 Cl
ATOM      4  C   UNL     1       8.201   7.388  18.653  0.00  0.00    +0.000 A 
ATOM      5  C   UNL     1       7.840   8.458  17.837  0.00  0.00    +0.000 A 
ATOM      6  C   UNL     1       6.717   8.261  17.032  0.00  0.00    +0.000 A 
ATOM      7  C   UNL     1       6.033   7.024  17.016  0.00  0.00    +0.000 A 
ATOM      8 CL   UNL     1       4.605   6.990  16.039  0.00  0.00    +0.000 Cl
ENDROOT
BRANCH   1   9
ATOM      9  S   UNL     1       5.630   4.397  17.757  0.00  0.00    +0.000 S 
ATOM     10  O   UNL     1       5.831   3.641  18.974  0.00  0.00    +0.000 OA
ATOM     11  O   UNL     1       5.905   3.762  16.488  0.00  0.00    +0.000 OA
BRANCH   9  12
ATOM     12  N   UNL     1       4.003   4.898  17.698  0.00  0.00    +0.000 N 
ATOM     13  H   UNL     1       3.654   4.601  16.784  0.00  0.00    +0.000 HD
BRANCH  12  21
ATOM     14  C   UNL     1       2.595   7.101  19.489  0.00  0.00    +0.000 C 
ATOM     15  C   UNL     1       2.515   5.625  19.589  0.00  0.00    +0.000 A 
ATOM     16  N   UNL     1       1.724   5.060  20.506  0.00  0.00    +0.000 NA
ATOM     17  N   UNL     1       1.852   3.739  20.285  0.00  0.00    +0.000 N 
ATOM     18  C   UNL     1       1.114   2.820  21.121  0.00  0.00    +0.000 C 
ATOM     19  C   UNL     1       2.678   3.435  19.233  0.00  0.00    +0.000 A 
ATOM     20  C   UNL     1       2.967   2.049  18.783  0.00  0.00    +0.000 C 
ATOM     21  C   UNL     1       3.155   4.648  18.779  0.00  0.00    +0.000 A 
ENDBRANCH  12  21
ENDBRANCH   9  12
ENDBRANCH   1   9
BRANCH   5  22
ATOM     22  C   UNL     1       8.548   9.799  17.870  0.00  0.00    +0.000 C 
BRANCH  22  23
ATOM     23  C   UNL     1       9.162  10.267  19.213  0.00  0.00    +0.000 C 
BRANCH  23  24
ATOM     24  C   UNL     1       9.864  11.626  19.152  0.00  0.00    +0.000 C 
BRANCH  24  25
ATOM     25  C   UNL     1      11.110  11.709  18.259  0.00  0.00    +0.000 C 
ATOM     26  C   UNL     1      12.333  12.079  19.127  0.00  0.00    +0.000 C 
ATOM     27  C   UNL     1      12.285  13.537  19.588  0.00  0.00    +0.000 C 
ATOM     28  N   UNL     1      12.150  14.452  18.452  0.00  0.00    +0.000 NA
ATOM     29  C   UNL     1      10.953  14.157  17.660  0.00  0.00    +0.000 C 
ATOM     30  C   UNL     1      10.965  12.725  17.128  0.00  0.00    +0.000 C 
ATOM     31  H   UNL     1      12.970  14.344  17.855  0.00  0.00    +0.000 HD
ENDBRANCH  24  25
ENDBRANCH  23  24
ENDBRANCH  22  23
ENDBRANCH   5  22
TORSDOF 7
ENDMDL
MODEL 4
REMARK VINA RESULT:      -7.5      7.933      9.638
REMARK  Name = 
REMARK  10 active torsions:
REMARK  status: ('A' for Active; 'I' for Inactive)
REMARK    1  A    between atoms: C_1  and  C_2
REMARK    2  A    between atoms: N_4  and  C_5
REMARK    3  A    between atoms: C_6  and  C_7
REMARK    4  A    between atoms: C_8  and  N_9
REMARK    5  A    between atoms: N_9  and  S_10
REMARK    6  A    between atoms: S_10  and  C_13
REMARK    7  A    between atoms: C_17  and  C_18
REMARK    8  A    between atoms: C_18  and  C_19
REMARK    9  A    between atoms: C_19  and  C_20
REMARK   10  A    between atoms: C_20  and  C_21
REMARK                            x       y       z     vdW  Elec       q    Type
REMARK                         _______ _______ _______ _____ _____    ______ ____
ROOT
ATOM      1  C   UNL     1       0.696  10.618  20.025  0.00  0.00    +0.000 A 
ATOM      2  C   UNL     1       0.660   9.290  20.426  0.00  0.00    +0.000 A 
ATOM      3 CL   UNL     1      -0.188   8.633  21.782  0.00  0.00    +0.000 Cl
ATOM      4  C   UNL     1       1.379   8.333  19.701  0.00  0.00    +0.000 A 
ATOM      5  C   UNL     1       2.038   8.602  18.503  0.00  0.00    +0.000 A 
ATOM      6  C   UNL     1       2.077   9.941  18.113  0.00  0.00    +0.000 A 
ATOM      7  C   UNL     1       1.430  10.945  18.870  0.00  0.00    +0.000 A 
ATOM      8 CL   UNL     1       1.667  12.560  18.296  0.00  0.00    +0.000 Cl
ENDROOT
BRANCH   1   9
ATOM      9  S   UNL     1      -0.112  11.876  20.959  0.00  0.00    +0.000 S 
ATOM     10  O   UNL     1       0.831  12.779  21.582  0.00  0.00    +0.000 OA
ATOM     11  O   UNL     1      -1.118  11.242  21.782  0.00  0.00    +0.000 OA
BRANCH   9  12
ATOM     12  N   UNL     1      -0.954  12.729  19.748  0.00  0.00    +0.000 N 
ATOM     13  H   UNL     1      -0.330  12.752  18.940  0.00  0.00    +0.000 HD
BRANCH  12  21
ATOM     14  C   UNL     1      -1.954  10.673  17.554  0.00  0.00    +0.000 C 
ATOM     15  C   UNL     1      -2.750  11.495  18.494  0.00  0.00    +0.000 A 
ATOM     16  N   UNL     1      -4.082  11.381  18.520  0.00  0.00    +0.000 NA
ATOM     17  N   UNL     1      -4.467  12.215  19.503  0.00  0.00    +0.000 N 
ATOM     18  C   UNL     1      -5.876  12.334  19.800  0.00  0.00    +0.000 C 
ATOM     19  C   UNL     1      -3.423  12.841  20.135  0.00  0.00    +0.000 A 
ATOM     20  C   UNL     1      -3.590  13.795  21.261  0.00  0.00    +0.000 C 
ATOM     21  C   UNL     1      -2.287  12.417  19.473  0.00  0.00    +0.000 A 
ENDBRANCH  12  21
ENDBRANCH   9  12
ENDBRANCH   1   9
BRANCH   5  22
ATOM     22  C   UNL     1       2.762   7.537  17.701  0.00  0.00    +0.000 C 
BRANCH  22  23
ATOM     23  C   UNL     1       3.683   6.551  18.460  0.00  0.00    +0.000 C 
BRANCH  23  24
ATOM     24  C   UNL     1       3.025   5.218  18.827  0.00  0.00    +0.000 C 
BRANCH  24  25
ATOM     25  C   UNL     1       2.446   4.401  17.663  0.00  0.00    +0.000 C 
ATOM     26  C   UNL     1       1.125   3.740  18.115  0.00  0.00    +0.000 C 
ATOM     27  C   UNL     1       1.369   2.595  19.099  0.00  0.00    +0.000 C 
ATOM     28  N   UNL     1       2.292   1.601  18.545  0.00  0.00    +0.000 NA
ATOM     29  C   UNL     1       3.577   2.203  18.178  0.00  0.00    +0.000 C 
ATOM     30  C   UNL     1       3.405   3.327  17.157  0.00  0.00    +0.000 C 
ATOM     31  H   UNL     1       1.869   1.204  17.706  0.00  0.00    +0.000 HD
ENDBRANCH  24  25
ENDBRANCH  23  24
ENDBRANCH  22  23
ENDBRANCH   5  22
TORSDOF 7
ENDMDL
MODEL 5
REMARK VINA RESULT:      -7.5      5.405     10.185
REMARK  Name = 
REMARK  10 active torsions:
REMARK  status: ('A' for Active; 'I' for Inactive)
REMARK    1  A    between atoms: C_1  and  C_2
REMARK    2  A    between atoms: N_4  and  C_5
REMARK    3  A    between atoms: C_6  and  C_7
REMARK    4  A    between atoms: C_8  and  N_9
REMARK    5  A    between atoms: N_9  and  S_10
REMARK    6  A    between atoms: S_10  and  C_13
REMARK    7  A    between atoms: C_17  and  C_18
REMARK    8  A    between atoms: C_18  and  C_19
REMARK    9  A    between atoms: C_19  and  C_20
REMARK   10  A    between atoms: C_20  and  C_21
REMARK                            x       y       z     vdW  Elec       q    Type
REMARK                         _______ _______ _______ _____ _____    ______ ____
ROOT
ATOM      1  C   UNL     1       6.571   6.040  17.877  0.00  0.00    +0.000 A 
ATOM      2  C   UNL     1       6.166   7.073  17.043  0.00  0.00    +0.000 A 
ATOM      3 CL   UNL     1       4.831   7.065  15.944  0.00  0.00    +0.000 Cl
ATOM      4  C   UNL     1       6.887   8.273  17.037  0.00  0.00    +0.000 A 
ATOM      5  C   UNL     1       7.925   8.559  17.920  0.00  0.00    +0.000 A 
ATOM      6  C   UNL     1       8.330   7.511  18.748  0.00  0.00    +0.000 A 
ATOM      7  C   UNL     1       7.676   6.259  18.720  0.00  0.00    +0.000 A 
ATOM      8 CL   UNL     1       8.374   5.046  19.739  0.00  0.00    +0.000 Cl
ENDROOT
BRANCH   1   9
ATOM      9  S   UNL     1       5.757   4.476  17.853  0.00  0.00    +0.000 S 
ATOM     10  O   UNL     1       5.932   3.755  19.095  0.00  0.00    +0.000 OA
ATOM     11  O   UNL     1       6.095   3.819  16.611  0.00  0.00    +0.000 OA
BRANCH   9  12
ATOM     12  N   UNL     1       4.120   4.932  17.722  0.00  0.00    +0.000 N 
ATOM     13  H   UNL     1       3.816   4.613  16.800  0.00  0.00    +0.000 HD
BRANCH  12  21
ATOM     14  C   UNL     1       2.636   7.121  19.467  0.00  0.00    +0.000 C 
ATOM     15  C   UNL     1       2.562   5.645  19.561  0.00  0.00    +0.000 A 
ATOM     16  N   UNL     1       1.743   5.072  20.449  0.00  0.00    +0.000 NA
ATOM     17  N   UNL     1       1.888   3.752  20.229  0.00  0.00    +0.000 N 
ATOM     18  C   UNL     1       1.126   2.826  21.036  0.00  0.00    +0.000 C 
ATOM     19  C   UNL     1       2.752   3.456  19.206  0.00  0.00    +0.000 A 
ATOM     20  C   UNL     1       3.066   2.073  18.764  0.00  0.00    +0.000 C 
ATOM     21  C   UNL     1       3.237   4.673  18.772  0.00  0.00    +0.000 A 
ENDBRANCH  12  21
ENDBRANCH   9  12
ENDBRANCH   1   9
BRANCH   5  22
ATOM     22  C   UNL     1       8.654   9.890  17.936  0.00  0.00    +0.000 C 
BRANCH  22  23
ATOM     23  C   UNL     1       9.286  10.360  19.269  0.00  0.00    +0.000 C 
BRANCH  23  24
ATOM     24  C   UNL     1      10.507  11.270  19.109  0.00  0.00    +0.000 C 
BRANCH  24  25
ATOM     25  C   UNL     1      10.396  12.672  19.724  0.00  0.00    +0.000 C 
ATOM     26  C   UNL     1       8.985  13.237  19.447  0.00  0.00    +0.000 C 
ATOM     27  C   UNL     1       8.801  13.617  17.977  0.00  0.00    +0.000 C 
ATOM     28  N   UNL     1       9.839  14.551  17.533  0.00  0.00    +0.000 NA
ATOM     29  C   UNL     1      11.182  13.997  17.724  0.00  0.00    +0.000 C 
ATOM     30  C   UNL     1      11.446  13.641  19.186  0.00  0.00    +0.000 C 
ATOM     31  H   UNL     1       9.758  15.405  18.085  0.00  0.00    +0.000 HD
ENDBRANCH  24  25
ENDBRANCH  23  24
ENDBRANCH  22  23
ENDBRANCH   5  22
TORSDOF 7
ENDMDL
MODEL 6
REMARK VINA RESULT:      -7.5      5.343     10.297
REMARK  Name = 
REMARK  10 active torsions:
REMARK  status: ('A' for Active; 'I' for Inactive)
REMARK    1  A    between atoms: C_1  and  C_2
REMARK    2  A    between atoms: N_4  and  C_5
REMARK    3  A    between atoms: C_6  and  C_7
REMARK    4  A    between atoms: C_8  and  N_9
REMARK    5  A    between atoms: N_9  and  S_10
REMARK    6  A    between atoms: S_10  and  C_13
REMARK    7  A    between atoms: C_17  and  C_18
REMARK    8  A    between atoms: C_18  and  C_19
REMARK    9  A    between atoms: C_19  and  C_20
REMARK   10  A    between atoms: C_20  and  C_21
REMARK                            x       y       z     vdW  Elec       q    Type
REMARK                         _______ _______ _______ _____ _____    ______ ____
ROOT
ATOM      1  C   UNL     1       6.658   6.093  17.882  0.00  0.00    +0.000 A 
ATOM      2  C   UNL     1       6.253   7.134  17.059  0.00  0.00    +0.000 A 
ATOM      3 CL   UNL     1       4.926   7.133  15.951  0.00  0.00    +0.000 Cl
ATOM      4  C   UNL     1       6.966   8.338  17.074  0.00  0.00    +0.000 A 
ATOM      5  C   UNL     1       7.996   8.619  17.969  0.00  0.00    +0.000 A 
ATOM      6  C   UNL     1       8.402   7.562  18.786  0.00  0.00    +0.000 A 
ATOM      7  C   UNL     1       7.755   6.307  18.736  0.00  0.00    +0.000 A 
ATOM      8 CL   UNL     1       8.453   5.084  19.743  0.00  0.00    +0.000 Cl
ENDROOT
BRANCH   1   9
ATOM      9  S   UNL     1       5.854   4.524  17.831  0.00  0.00    +0.000 S 
ATOM     10  O   UNL     1       5.876   3.861  19.117  0.00  0.00    +0.000 OA
ATOM     11  O   UNL     1       6.340   3.813  16.671  0.00  0.00    +0.000 OA
BRANCH   9  12
ATOM     12  N   UNL     1       4.245   4.964  17.481  0.00  0.00    +0.000 N 
ATOM     13  H   UNL     1       4.104   4.741  16.494  0.00  0.00    +0.000 HD
BRANCH  12  21
ATOM     14  C   UNL     1       2.662   6.883  19.443  0.00  0.00    +0.000 C 
ATOM     15  C   UNL     1       2.492   5.428  19.222  0.00  0.00    +0.000 A 
ATOM     16  N   UNL     1       1.529   4.762  19.866  0.00  0.00    +0.000 NA
ATOM     17  N   UNL     1       1.628   3.503  19.400  0.00  0.00    +0.000 N 
ATOM     18  C   UNL     1       0.712   2.504  19.900  0.00  0.00    +0.000 C 
ATOM     19  C   UNL     1       2.605   3.343  18.451  0.00  0.00    +0.000 A 
ATOM     20  C   UNL     1       2.899   2.053  17.776  0.00  0.00    +0.000 C 
ATOM     21  C   UNL     1       3.213   4.578  18.339  0.00  0.00    +0.000 A 
ENDBRANCH  12  21
ENDBRANCH   9  12
ENDBRANCH   1   9
BRANCH   5  22
ATOM     22  C   UNL     1       8.717   9.953  18.008  0.00  0.00    +0.000 C 
BRANCH  22  23
ATOM     23  C   UNL     1       9.353  10.401  19.348  0.00  0.00    +0.000 C 
BRANCH  23  24
ATOM     24  C   UNL     1      10.154  11.703  19.269  0.00  0.00    +0.000 C 
BRANCH  24  25
ATOM     25  C   UNL     1       9.953  12.550  18.004  0.00  0.00    +0.000 C 
ATOM     26  C   UNL     1      11.294  12.652  17.244  0.00  0.00    +0.000 C 
ATOM     27  C   UNL     1      12.293  13.556  17.968  0.00  0.00    +0.000 C 
ATOM     28  N   UNL     1      11.728  14.884  18.219  0.00  0.00    +0.000 NA
ATOM     29  C   UNL     1      10.492  14.806  19.002  0.00  0.00    +0.000 C 
ATOM     30  C   UNL     1       9.432  13.953  18.306  0.00  0.00    +0.000 C 
ATOM     31  H   UNL     1      11.515  15.316  17.320  0.00  0.00    +0.000 HD
ENDBRANCH  24  25
ENDBRANCH  23  24
ENDBRANCH  22  23
ENDBRANCH   5  22
TORSDOF 7
ENDMDL
MODEL 7
REMARK VINA RESULT:      -7.4      8.376      9.849
REMARK  Name = 
REMARK  10 active torsions:
REMARK  status: ('A' for Active; 'I' for Inactive)
REMARK    1  A    between atoms: C_1  and  C_2
REMARK    2  A    between atoms: N_4  and  C_5
REMARK    3  A    between atoms: C_6  and  C_7
REMARK    4  A    between atoms: C_8  and  N_9
REMARK    5  A    between atoms: N_9  and  S_10
REMARK    6  A    between atoms: S_10  and  C_13
REMARK    7  A    between atoms: C_17  and  C_18
REMARK    8  A    between atoms: C_18  and  C_19
REMARK    9  A    between atoms: C_19  and  C_20
REMARK   10  A    between atoms: C_20  and  C_21
REMARK                            x       y       z     vdW  Elec       q    Type
REMARK                         _______ _______ _______ _____ _____    ______ ____
ROOT
ATOM      1  C   UNL     1       0.236  10.893  20.706  0.00  0.00    +0.000 A 
ATOM      2  C   UNL     1       0.355   9.670  21.350  0.00  0.00    +0.000 A 
ATOM      3 CL   UNL     1      -0.312   9.229  22.883  0.00  0.00    +0.000 Cl
ATOM      4  C   UNL     1       1.095   8.646  20.748  0.00  0.00    +0.000 A 
ATOM      5  C   UNL     1       1.625   8.724  19.462  0.00  0.00    +0.000 A 
ATOM      6  C   UNL     1       1.508   9.961  18.826  0.00  0.00    +0.000 A 
ATOM      7  C   UNL     1       0.838  11.042  19.442  0.00  0.00    +0.000 A 
ATOM      8 CL   UNL     1       0.877  12.528  18.556  0.00  0.00    +0.000 Cl
ENDROOT
BRANCH   1   9
ATOM      9  S   UNL     1      -0.603  12.246  21.464  0.00  0.00    +0.000 S 
ATOM     10  O   UNL     1       0.319  13.207  22.031  0.00  0.00    +0.000 OA
ATOM     11  O   UNL     1      -1.650  11.706  22.302  0.00  0.00    +0.000 OA
BRANCH   9  12
ATOM     12  N   UNL     1      -1.382  12.969  20.133  0.00  0.00    +0.000 N 
ATOM     13  H   UNL     1      -0.705  12.945  19.368  0.00  0.00    +0.000 HD
BRANCH  12  21
ATOM     14  C   UNL     1      -4.028  14.157  21.409  0.00  0.00    +0.000 C 
ATOM     15  C   UNL     1      -3.881  13.121  20.360  0.00  0.00    +0.000 A 
ATOM     16  N   UNL     1      -4.966  12.594  19.784  0.00  0.00    +0.000 NA
ATOM     17  N   UNL     1      -4.473  11.746  18.863  0.00  0.00    +0.000 N 
ATOM     18  C   UNL     1      -5.398  10.996  18.044  0.00  0.00    +0.000 C 
ATOM     19  C   UNL     1      -3.102  11.732  18.806  0.00  0.00    +0.000 A 
ATOM     20  C   UNL     1      -2.323  10.889  17.862  0.00  0.00    +0.000 C 
ATOM     21  C   UNL     1      -2.685  12.596  19.798  0.00  0.00    +0.000 A 
ENDBRANCH  12  21
ENDBRANCH   9  12
ENDBRANCH   1   9
BRANCH   5  22
ATOM     22  C   UNL     1       2.374   7.579  18.805  0.00  0.00    +0.000 C 
BRANCH  22  23
ATOM     23  C   UNL     1       2.360   6.199  19.507  0.00  0.00    +0.000 C 
BRANCH  23  24
ATOM     24  C   UNL     1       3.369   5.192  18.951  0.00  0.00    +0.000 C 
BRANCH  24  25
ATOM     25  C   UNL     1       2.991   4.508  17.630  0.00  0.00    +0.000 C 
ATOM     26  C   UNL     1       1.502   4.098  17.678  0.00  0.00    +0.000 C 
ATOM     27  C   UNL     1       1.266   2.918  18.622  0.00  0.00    +0.000 C 
ATOM     28  N   UNL     1       2.115   1.776  18.272  0.00  0.00    +0.000 NA
ATOM     29  C   UNL     1       3.536   2.134  18.292  0.00  0.00    +0.000 C 
ATOM     30  C   UNL     1       3.847   3.279  17.330  0.00  0.00    +0.000 C 
ATOM     31  H   UNL     1       1.871   1.472  17.330  0.00  0.00    +0.000 HD
ENDBRANCH  24  25
ENDBRANCH  23  24
ENDBRANCH  22  23
ENDBRANCH   5  22
TORSDOF 7
ENDMDL
MODEL 8
REMARK VINA RESULT:      -7.4      7.563      9.238
REMARK  Name = 
REMARK  10 active torsions:
REMARK  status: ('A' for Active; 'I' for Inactive)
REMARK    1  A    between atoms: C_1  and  C_2
REMARK    2  A    between atoms: N_4  and  C_5
REMARK    3  A    between atoms: C_6  and  C_7
REMARK    4  A    between atoms: C_8  and  N_9
REMARK    5  A    between atoms: N_9  and  S_10
REMARK    6  A    between atoms: S_10  and  C_13
REMARK    7  A    between atoms: C_17  and  C_18
REMARK    8  A    between atoms: C_18  and  C_19
REMARK    9  A    between atoms: C_19  and  C_20
REMARK   10  A    between atoms: C_20  and  C_21
REMARK                            x       y       z     vdW  Elec       q    Type
REMARK                         _______ _______ _______ _____ _____    ______ ____
ROOT
ATOM      1  C   UNL     1       0.745  10.637  20.010  0.00  0.00    +0.000 A 
ATOM      2  C   UNL     1       0.749   9.297  20.370  0.00  0.00    +0.000 A 
ATOM      3 CL   UNL     1      -0.044   8.579  21.727  0.00  0.00    +0.000 Cl
ATOM      4  C   UNL     1       1.467   8.380  19.594  0.00  0.00    +0.000 A 
ATOM      5  C   UNL     1       2.086   8.700  18.388  0.00  0.00    +0.000 A 
ATOM      6  C   UNL     1       2.084  10.052  18.039  0.00  0.00    +0.000 A 
ATOM      7  C   UNL     1       1.438  11.016  18.845  0.00  0.00    +0.000 A 
ATOM      8 CL   UNL     1       1.622  12.654  18.316  0.00  0.00    +0.000 Cl
ENDROOT
BRANCH   1   9
ATOM      9  S   UNL     1      -0.064  11.846  21.006  0.00  0.00    +0.000 S 
ATOM     10  O   UNL     1       0.878  12.744  21.640  0.00  0.00    +0.000 OA
ATOM     11  O   UNL     1      -1.040  11.166  21.826  0.00  0.00    +0.000 OA
BRANCH   9  12
ATOM     12  N   UNL     1      -0.947  12.727  19.845  0.00  0.00    +0.000 N 
ATOM     13  H   UNL     1      -0.336  12.802  19.029  0.00  0.00    +0.000 HD
BRANCH  12  21
ATOM     14  C   UNL     1      -3.486  13.898  21.336  0.00  0.00    +0.000 C 
ATOM     15  C   UNL     1      -3.424  12.910  20.233  0.00  0.00    +0.000 A 
ATOM     16  N   UNL     1      -4.552  12.429  19.702  0.00  0.00    +0.000 NA
ATOM     17  N   UNL     1      -4.133  11.616  18.715  0.00  0.00    +0.000 N 
ATOM     18  C   UNL     1      -5.121  10.920  17.922  0.00  0.00    +0.000 C 
ATOM     19  C   UNL     1      -2.769  11.581  18.572  0.00  0.00    +0.000 A 
ATOM     20  C   UNL     1      -2.066  10.771  17.544  0.00  0.00    +0.000 C 
ATOM     21  C   UNL     1      -2.275  12.391  19.575  0.00  0.00    +0.000 A 
ENDBRANCH  12  21
ENDBRANCH   9  12
ENDBRANCH   1   9
BRANCH   5  22
ATOM     22  C   UNL     1       2.809   7.677  17.532  0.00  0.00    +0.000 C 
BRANCH  22  23
ATOM     23  C   UNL     1       2.962   6.239  18.085  0.00  0.00    +0.000 C 
BRANCH  23  24
ATOM     24  C   UNL     1       4.376   5.882  18.551  0.00  0.00    +0.000 C 
BRANCH  24  25
ATOM     25  C   UNL     1       5.051   4.704  17.835  0.00  0.00    +0.000 C 
ATOM     26  C   UNL     1       6.559   4.702  18.174  0.00  0.00    +0.000 C 
ATOM     27  C   UNL     1       7.300   5.846  17.481  0.00  0.00    +0.000 C 
ATOM     28  N   UNL     1       7.086   5.821  16.032  0.00  0.00    +0.000 NA
ATOM     29  C   UNL     1       5.662   5.895  15.695  0.00  0.00    +0.000 C 
ATOM     30  C   UNL     1       4.871   4.747  16.320  0.00  0.00    +0.000 C 
ATOM     31  H   UNL     1       7.461   4.945  15.668  0.00  0.00    +0.000 HD
ENDBRANCH  24  25
ENDBRANCH  23  24
ENDBRANCH  22  23
ENDBRANCH   5  22
TORSDOF 7
ENDMDL
MODEL 9
REMARK VINA RESULT:      -7.3      8.162     11.193
REMARK  Name = 
REMARK  10 active torsions:
REMARK  status: ('A' for Active; 'I' for Inactive)
REMARK    1  A    between atoms: C_1  and  C_2
REMARK    2  A    between atoms: N_4  and  C_5
REMARK    3  A    between atoms: C_6  and  C_7
REMARK    4  A    between atoms: C_8  and  N_9
REMARK    5  A    between atoms: N_9  and  S_10
REMARK    6  A    between atoms: S_10  and  C_13
REMARK    7  A    between atoms: C_17  and  C_18
REMARK    8  A    between atoms: C_18  and  C_19
REMARK    9  A    between atoms: C_19  and  C_20
REMARK   10  A    between atoms: C_20  and  C_21
REMARK                            x       y       z     vdW  Elec       q    Type
REMARK                         _______ _______ _______ _____ _____    ______ ____
ROOT
ATOM      1  C   UNL     1       2.442   5.331  18.859  0.00  0.00    +0.000 A 
ATOM      2  C   UNL     1       1.792   5.032  20.048  0.00  0.00    +0.000 A 
ATOM      3 CL   UNL     1       1.443   3.460  20.679  0.00  0.00    +0.000 Cl
ATOM      4  C   UNL     1       1.333   6.074  20.861  0.00  0.00    +0.000 A 
ATOM      5  C   UNL     1       1.601   7.420  20.623  0.00  0.00    +0.000 A 
ATOM      6  C   UNL     1       2.247   7.712  19.420  0.00  0.00    +0.000 A 
ATOM      7  C   UNL     1       2.651   6.685  18.537  0.00  0.00    +0.000 A 
ATOM      8 CL   UNL     1       3.345   7.231  17.048  0.00  0.00    +0.000 Cl
ENDROOT
BRANCH   1   9
ATOM      9  S   UNL     1       2.953   4.057  17.753  0.00  0.00    +0.000 S 
ATOM     10  O   UNL     1       1.869   3.605  16.908  0.00  0.00    +0.000 OA
ATOM     11  O   UNL     1       3.698   3.080  18.514  0.00  0.00    +0.000 OA
BRANCH   9  12
ATOM     12  N   UNL     1       4.090   4.870  16.779  0.00  0.00    +0.000 N 
ATOM     13  H   UNL     1       3.790   5.847  16.757  0.00  0.00    +0.000 HD
BRANCH  12  21
ATOM     14  C   UNL     1       6.151   3.889  14.581  0.00  0.00    +0.000 C 
ATOM     15  C   UNL     1       6.393   4.227  16.003  0.00  0.00    +0.000 A 
ATOM     16  N   UNL     1       7.634   4.183  16.499  0.00  0.00    +0.000 NA
ATOM     17  N   UNL     1       7.495   4.590  17.774  0.00  0.00    +0.000 N 
ATOM     18  C   UNL     1       8.671   4.660  18.611  0.00  0.00    +0.000 C 
ATOM     19  C   UNL     1       6.208   4.925  18.108  0.00  0.00    +0.000 A 
ATOM     20  C   UNL     1       5.803   5.415  19.450  0.00  0.00    +0.000 C 
ATOM     21  C   UNL     1       5.457   4.664  16.979  0.00  0.00    +0.000 A 
ENDBRANCH  12  21
ENDBRANCH   9  12
ENDBRANCH   1   9
BRANCH   5  22
ATOM     22  C   UNL     1       1.145   8.531  21.549  0.00  0.00    +0.000 C 
BRANCH  22  23
ATOM     23  C   UNL     1      -0.305   9.055  21.403  0.00  0.00    +0.000 C 
BRANCH  23  24
ATOM     24  C   UNL     1      -0.439  10.338  20.580  0.00  0.00    +0.000 C 
BRANCH  24  25
ATOM     25  C   UNL     1      -0.148  10.216  19.077  0.00  0.00    +0.000 C 
ATOM     26  C   UNL     1       0.825  11.340  18.656  0.00  0.00    +0.000 C 
ATOM     27  C   UNL     1       0.145  12.709  18.647  0.00  0.00    +0.000 C 
ATOM     28  N   UNL     1      -1.052  12.705  17.801  0.00  0.00    +0.000 NA
ATOM     29  C   UNL     1      -2.016  11.690  18.234  0.00  0.00    +0.000 C 
ATOM     30  C   UNL     1      -1.409  10.288  18.220  0.00  0.00    +0.000 C 
ATOM     31  H   UNL     1      -0.767  12.495  16.844  0.00  0.00    +0.000 HD
ENDBRANCH  24  25
ENDBRANCH  23  24
ENDBRANCH  22  23
ENDBRANCH   5  22
TORSDOF 7
ENDMDL
