MODEL 1
REMARK VINA RESULT:      -8.5      0.000      0.000
REMARK  Name = 
REMARK  7 active torsions:
REMARK  status: ('A' for Active; 'I' for Inactive)
REMARK    1  A    between atoms: C_1  and  N_2
REMARK    2  A    between atoms: C_3  and  C_4
REMARK    3  A    between atoms: C_4  and  N_5
REMARK    4  A    between atoms: C_8  and  C_9
REMARK    5  A    between atoms: C_19  and  S_20
REMARK    6  A    between atoms: S_20  and  C_21
REMARK    7  A    between atoms: C_21  and  C_22
REMARK                            x       y       z     vdW  Elec       q    Type
REMARK                         _______ _______ _______ _____ _____    ______ ____
ROOT
ATOM      1  C   UNL     1       8.198   5.875  19.608  0.00  0.00    +0.000 C 
ATOM      2  N   UNL     1       7.651   6.532  18.449  0.00  0.00    +0.000 N 
ATOM      3  C   UNL     1       7.847   7.835  18.054  0.00  0.00    +0.000 A 
ATOM      4  N   UNL     1       7.201   8.030  16.915  0.00  0.00    +0.000 NA
ATOM      5  N   UNL     1       6.554   6.864  16.574  0.00  0.00    +0.000 NA
ATOM      6  C   UNL     1       6.819   5.976  17.505  0.00  0.00    +0.000 A 
ENDROOT
BRANCH   3   7
ATOM      7  C   UNL     1       8.670   8.861  18.777  0.00  0.00    +0.000 C 
BRANCH   7   8
ATOM      8  N   UNL     1       9.062   9.996  17.954  0.00  0.00    +0.000 N 
ATOM      9  C   UNL     1       9.514  11.120  18.553  0.00  0.00    +0.000 A 
ATOM     10  N   UNL     1       9.111  11.584  19.715  0.00  0.00    +0.000 NA
ATOM     11  C   UNL     1       9.817  12.731  20.053  0.00  0.00    +0.000 A 
ATOM     12  C   UNL     1      10.790  13.095  19.141  0.00  0.00    +0.000 A 
ATOM     13  S   UNL     1      10.753  12.043  17.792  0.00  0.00    +0.000 S 
ATOM     14  H   UNL     1       9.574   9.705  17.126  0.00  0.00    +0.000 HD
BRANCH  11  15
ATOM     15  C   UNL     1       9.586  13.440  21.311  0.00  0.00    +0.000 A 
ATOM     16  C   UNL     1      10.143  14.714  21.507  0.00  0.00    +0.000 A 
ATOM     17  C   UNL     1       9.890  15.432  22.678  0.00  0.00    +0.000 A 
ATOM     18  C   UNL     1       9.089  14.878  23.676  0.00  0.00    +0.000 A 
ATOM     19  C   UNL     1       8.552  13.603  23.509  0.00  0.00    +0.000 A 
ATOM     20  C   UNL     1       8.801  12.886  22.335  0.00  0.00    +0.000 A 
ENDBRANCH  11  15
ENDBRANCH   7   8
ENDBRANCH   3   7
BRANCH   6  21
ATOM     21  S   UNL     1       6.147   4.386  17.614  0.00  0.00    +0.000 S 
BRANCH  21  22
ATOM     22  C   UNL     1       4.560   4.548  16.696  0.00  0.00    +0.000 C 
BRANCH  22  23
ATOM     23  C   UNL     1       3.370   4.029  17.502  0.00  0.00    +0.000 C 
ATOM     24  O   UNL     1       3.058   2.832  17.430  0.00  0.00    +0.000 OA
ATOM     25  N   UNL     1       2.781   4.819  18.462  0.00  0.00    +0.000 N 
ATOM     26  C   UNL     1       1.908   4.191  19.471  0.00  0.00    +0.000 C 
ATOM     27  C   UNL     1       1.943   5.122  20.677  0.00  0.00    +0.000 C 
ATOM     28  C   UNL     1       2.094   6.422  19.949  0.00  0.00    +0.000 A 
ATOM     29  C   UNL     1       1.686   7.663  20.401  0.00  0.00    +0.000 A 
ATOM     30  C   UNL     1       1.738   8.719  19.498  0.00  0.00    +0.000 A 
ATOM     31  C   UNL     1       2.241   8.516  18.200  0.00  0.00    +0.000 A 
ATOM     32  C   UNL     1       2.724   7.258  17.784  0.00  0.00    +0.000 A 
ATOM     33  C   UNL     1       2.630   6.208  18.664  0.00  0.00    +0.000 A 
ENDBRANCH  22  23
ENDBRANCH  21  22
ENDBRANCH   6  21
TORSDOF 6
ENDMDL
MODEL 2
REMARK VINA RESULT:      -8.5      6.207      9.784
REMARK  Name = 
REMARK  7 active torsions:
REMARK  status: ('A' for Active; 'I' for Inactive)
REMARK    1  A    between atoms: C_1  and  N_2
REMARK    2  A    between atoms: C_3  and  C_4
REMARK    3  A    between atoms: C_4  and  N_5
REMARK    4  A    between atoms: C_8  and  C_9
REMARK    5  A    between atoms: C_19  and  S_20
REMARK    6  A    between atoms: S_20  and  C_21
REMARK    7  A    between atoms: C_21  and  C_22
REMARK                            x       y       z     vdW  Elec       q    Type
REMARK                         _______ _______ _______ _____ _____    ______ ____
ROOT
ATOM      1  C   UNL     1       1.231  11.514  20.570  0.00  0.00    +0.000 C 
ATOM      2  N   UNL     1       0.524  10.846  21.632  0.00  0.00    +0.000 N 
ATOM      3  C   UNL     1       0.718   9.565  22.091  0.00  0.00    +0.000 A 
ATOM      4  N   UNL     1      -0.109   9.351  23.102  0.00  0.00    +0.000 NA
ATOM      5  N   UNL     1      -0.870  10.483  23.291  0.00  0.00    +0.000 NA
ATOM      6  C   UNL     1      -0.492  11.368  22.398  0.00  0.00    +0.000 A 
ENDROOT
BRANCH   3   7
ATOM      7  C   UNL     1       1.712   8.576  21.553  0.00  0.00    +0.000 C 
BRANCH   7   8
ATOM      8  N   UNL     1       1.116   7.344  21.058  0.00  0.00    +0.000 N 
ATOM      9  C   UNL     1       1.891   6.458  20.394  0.00  0.00    +0.000 A 
ATOM     10  N   UNL     1       2.903   6.760  19.612  0.00  0.00    +0.000 NA
ATOM     11  C   UNL     1       3.508   5.607  19.129  0.00  0.00    +0.000 A 
ATOM     12  C   UNL     1       2.957   4.430  19.601  0.00  0.00    +0.000 A 
ATOM     13  S   UNL     1       1.598   4.771  20.583  0.00  0.00    +0.000 S 
ATOM     14  H   UNL     1       0.465   6.942  21.726  0.00  0.00    +0.000 HD
BRANCH  11  15
ATOM     15  C   UNL     1       4.678   5.654  18.253  0.00  0.00    +0.000 A 
ATOM     16  C   UNL     1       5.960   5.456  18.790  0.00  0.00    +0.000 A 
ATOM     17  C   UNL     1       7.086   5.443  17.963  0.00  0.00    +0.000 A 
ATOM     18  C   UNL     1       6.945   5.643  16.590  0.00  0.00    +0.000 A 
ATOM     19  C   UNL     1       5.683   5.869  16.046  0.00  0.00    +0.000 A 
ATOM     20  C   UNL     1       4.555   5.878  16.872  0.00  0.00    +0.000 A 
ENDBRANCH  11  15
ENDBRANCH   7   8
ENDBRANCH   3   7
BRANCH   6  21
ATOM     21  S   UNL     1      -1.221  12.913  22.129  0.00  0.00    +0.000 S 
BRANCH  21  22
ATOM     22  C   UNL     1      -1.758  12.812  20.371  0.00  0.00    +0.000 C 
BRANCH  22  23
ATOM     23  C   UNL     1      -3.235  12.446  20.237  0.00  0.00    +0.000 C 
ATOM     24  O   UNL     1      -4.017  12.706  21.163  0.00  0.00    +0.000 OA
ATOM     25  N   UNL     1      -3.743  12.033  19.026  0.00  0.00    +0.000 N 
ATOM     26  C   UNL     1      -5.202  12.051  18.817  0.00  0.00    +0.000 C 
ATOM     27  C   UNL     1      -5.396  12.170  17.310  0.00  0.00    +0.000 C 
ATOM     28  C   UNL     1      -4.190  11.401  16.870  0.00  0.00    +0.000 A 
ATOM     29  C   UNL     1      -4.050  10.713  15.678  0.00  0.00    +0.000 A 
ATOM     30  C   UNL     1      -2.931   9.900  15.539  0.00  0.00    +0.000 A 
ATOM     31  C   UNL     1      -1.968   9.840  16.563  0.00  0.00    +0.000 A 
ATOM     32  C   UNL     1      -2.091  10.610  17.738  0.00  0.00    +0.000 A 
ATOM     33  C   UNL     1      -3.220  11.376  17.891  0.00  0.00    +0.000 A 
ENDBRANCH  22  23
ENDBRANCH  21  22
ENDBRANCH   6  21
TORSDOF 6
ENDMDL
MODEL 3
REMARK VINA RESULT:      -8.3      6.790     10.722
REMARK  Name = 
REMARK  7 active torsions:
REMARK  status: ('A' for Active; 'I' for Inactive)
REMARK    1  A    between atoms: C_1  and  N_2
REMARK    2  A    between atoms: C_3  and  C_4
REMARK    3  A    between atoms: C_4  and  N_5
REMARK    4  A    between atoms: C_8  and  C_9
REMARK    5  A    between atoms: C_19  and  S_20
REMARK    6  A    between atoms: S_20  and  C_21
REMARK    7  A    between atoms: C_21  and  C_22
REMARK                            x       y       z     vdW  Elec       q    Type
REMARK                         _______ _______ _______ _____ _____    ______ ____
ROOT
ATOM      1  C   UNL     1       0.993  11.668  20.266  0.00  0.00    +0.000 C 
ATOM      2  N   UNL     1       0.489  10.902  21.376  0.00  0.00    +0.000 N 
ATOM      3  C   UNL     1       0.758   9.587  21.677  0.00  0.00    +0.000 A 
ATOM      4  N   UNL     1       0.130   9.278  22.801  0.00  0.00    +0.000 NA
ATOM      5  N   UNL     1      -0.577  10.379  23.225  0.00  0.00    +0.000 NA
ATOM      6  C   UNL     1      -0.366  11.344  22.360  0.00  0.00    +0.000 A 
ENDROOT
BRANCH   3   7
ATOM      7  C   UNL     1       1.630   8.661  20.881  0.00  0.00    +0.000 C 
BRANCH   7   8
ATOM      8  N   UNL     1       1.231   7.263  20.951  0.00  0.00    +0.000 N 
ATOM      9  C   UNL     1       1.965   6.335  20.298  0.00  0.00    +0.000 A 
ATOM     10  N   UNL     1       2.597   6.518  19.160  0.00  0.00    +0.000 NA
ATOM     11  C   UNL     1       3.292   5.372  18.798  0.00  0.00    +0.000 A 
ATOM     12  C   UNL     1       3.206   4.337  19.710  0.00  0.00    +0.000 A 
ATOM     13  S   UNL     1       2.158   4.770  20.991  0.00  0.00    +0.000 S 
ATOM     14  H   UNL     1       0.924   7.001  21.883  0.00  0.00    +0.000 HD
BRANCH  11  15
ATOM     15  C   UNL     1       4.103   5.310  17.582  0.00  0.00    +0.000 A 
ATOM     16  C   UNL     1       4.483   4.064  17.059  0.00  0.00    +0.000 A 
ATOM     17  C   UNL     1       5.211   3.980  15.870  0.00  0.00    +0.000 A 
ATOM     18  C   UNL     1       5.582   5.143  15.196  0.00  0.00    +0.000 A 
ATOM     19  C   UNL     1       5.238   6.389  15.717  0.00  0.00    +0.000 A 
ATOM     20  C   UNL     1       4.506   6.473  16.905  0.00  0.00    +0.000 A 
ENDBRANCH  11  15
ENDBRANCH   7   8
ENDBRANCH   3   7
BRANCH   6  21
ATOM     21  S   UNL     1      -1.123  12.899  22.366  0.00  0.00    +0.000 S 
BRANCH  21  22
ATOM     22  C   UNL     1      -2.523  12.678  21.191  0.00  0.00    +0.000 C 
BRANCH  22  23
ATOM     23  C   UNL     1      -3.849  12.432  21.909  0.00  0.00    +0.000 C 
ATOM     24  O   UNL     1      -3.854  12.227  23.130  0.00  0.00    +0.000 OA
ATOM     25  N   UNL     1      -5.043  12.650  21.259  0.00  0.00    +0.000 N 
ATOM     26  C   UNL     1      -6.278  12.777  22.053  0.00  0.00    +0.000 C 
ATOM     27  C   UNL     1      -7.231  13.601  21.196  0.00  0.00    +0.000 C 
ATOM     28  C   UNL     1      -6.785  13.124  19.849  0.00  0.00    +0.000 A 
ATOM     29  C   UNL     1      -7.554  13.086  18.700  0.00  0.00    +0.000 A 
ATOM     30  C   UNL     1      -7.021  12.428  17.598  0.00  0.00    +0.000 A 
ATOM     31  C   UNL     1      -5.726  11.880  17.658  0.00  0.00    +0.000 A 
ATOM     32  C   UNL     1      -4.929  11.998  18.815  0.00  0.00    +0.000 A 
ATOM     33  C   UNL     1      -5.476  12.608  19.916  0.00  0.00    +0.000 A 
ENDBRANCH  22  23
ENDBRANCH  21  22
ENDBRANCH   6  21
TORSDOF 6
ENDMDL
MODEL 4
REMARK VINA RESULT:      -8.3      0.570      1.056
REMARK  Name = 
REMARK  7 active torsions:
REMARK  status: ('A' for Active; 'I' for Inactive)
REMARK    1  A    between atoms: C_1  and  N_2
REMARK    2  A    between atoms: C_3  and  C_4
REMARK    3  A    between atoms: C_4  and  N_5
REMARK    4  A    between atoms: C_8  and  C_9
REMARK    5  A    between atoms: C_19  and  S_20
REMARK    6  A    between atoms: S_20  and  C_21
REMARK    7  A    between atoms: C_21  and  C_22
REMARK                            x       y       z     vdW  Elec       q    Type
REMARK                         _______ _______ _______ _____ _____    ______ ____
ROOT
ATOM      1  C   UNL     1       7.493   5.704  19.749  0.00  0.00    +0.000 C 
ATOM      2  N   UNL     1       7.493   6.258  18.420  0.00  0.00    +0.000 N 
ATOM      3  C   UNL     1       7.983   7.480  18.022  0.00  0.00    +0.000 A 
ATOM      4  N   UNL     1       7.825   7.589  16.712  0.00  0.00    +0.000 NA
ATOM      5  N   UNL     1       7.204   6.451  16.250  0.00  0.00    +0.000 NA
ATOM      6  C   UNL     1       6.998   5.665  17.281  0.00  0.00    +0.000 A 
ENDROOT
BRANCH   3   7
ATOM      7  C   UNL     1       8.611   8.512  18.914  0.00  0.00    +0.000 C 
BRANCH   7   8
ATOM      8  N   UNL     1       9.025   9.723  18.221  0.00  0.00    +0.000 N 
ATOM      9  C   UNL     1       9.382  10.807  18.946  0.00  0.00    +0.000 A 
ATOM     10  N   UNL     1       8.866  11.159  20.103  0.00  0.00    +0.000 NA
ATOM     11  C   UNL     1       9.496  12.296  20.591  0.00  0.00    +0.000 A 
ATOM     12  C   UNL     1      10.527  12.765  19.799  0.00  0.00    +0.000 A 
ATOM     13  S   UNL     1      10.643  11.829  18.371  0.00  0.00    +0.000 S 
ATOM     14  H   UNL     1       9.615   9.519  17.420  0.00  0.00    +0.000 HD
BRANCH  11  15
ATOM     15  C   UNL     1       9.134  12.890  21.878  0.00  0.00    +0.000 A 
ATOM     16  C   UNL     1       8.560  12.090  22.879  0.00  0.00    +0.000 A 
ATOM     17  C   UNL     1       8.257  12.624  24.134  0.00  0.00    +0.000 A 
ATOM     18  C   UNL     1       8.509  13.970  24.398  0.00  0.00    +0.000 A 
ATOM     19  C   UNL     1       9.052  14.784  23.406  0.00  0.00    +0.000 A 
ATOM     20  C   UNL     1       9.360  14.249  22.151  0.00  0.00    +0.000 A 
ENDBRANCH  11  15
ENDBRANCH   7   8
ENDBRANCH   3   7
BRANCH   6  21
ATOM     21  S   UNL     1       6.136   4.166  17.260  0.00  0.00    +0.000 S 
BRANCH  21  22
ATOM     22  C   UNL     1       4.473   4.658  16.644  0.00  0.00    +0.000 C 
BRANCH  22  23
ATOM     23  C   UNL     1       3.344   4.063  17.485  0.00  0.00    +0.000 C 
ATOM     24  O   UNL     1       3.077   2.858  17.385  0.00  0.00    +0.000 OA
ATOM     25  N   UNL     1       2.772   4.796  18.500  0.00  0.00    +0.000 N 
ATOM     26  C   UNL     1       1.974   4.099  19.525  0.00  0.00    +0.000 C 
ATOM     27  C   UNL     1       2.030   4.989  20.761  0.00  0.00    +0.000 C 
ATOM     28  C   UNL     1       2.096   6.317  20.074  0.00  0.00    +0.000 A 
ATOM     29  C   UNL     1       1.662   7.525  20.589  0.00  0.00    +0.000 A 
ATOM     30  C   UNL     1       1.628   8.612  19.723  0.00  0.00    +0.000 A 
ATOM     31  C   UNL     1       2.075   8.474  18.396  0.00  0.00    +0.000 A 
ATOM     32  C   UNL     1       2.587   7.252  17.914  0.00  0.00    +0.000 A 
ATOM     33  C   UNL     1       2.576   6.170  18.758  0.00  0.00    +0.000 A 
ENDBRANCH  22  23
ENDBRANCH  21  22
ENDBRANCH   6  21
TORSDOF 6
ENDMDL
MODEL 5
REMARK VINA RESULT:      -8.1      5.887      9.371
REMARK  Name = 
REMARK  7 active torsions:
REMARK  status: ('A' for Active; 'I' for Inactive)
REMARK    1  A    between atoms: C_1  and  N_2
REMARK    2  A    between atoms: C_3  and  C_4
REMARK    3  A    between atoms: C_4  and  N_5
REMARK    4  A    between atoms: C_8  and  C_9
REMARK    5  A    between atoms: C_19  and  S_20
REMARK    6  A    between atoms: S_20  and  C_21
REMARK    7  A    between atoms: C_21  and  C_22
REMARK                            x       y       z     vdW  Elec       q    Type
REMARK                         _______ _______ _______ _____ _____    ______ ____
ROOT
ATOM      1  C   UNL     1       2.446   8.632  17.794  0.00  0.00    +0.000 C 
ATOM      2  N   UNL     1       2.050   8.028  19.040  0.00  0.00    +0.000 N 
ATOM      3  C   UNL     1       2.208   6.717  19.423  0.00  0.00    +0.000 A 
ATOM      4  N   UNL     1       1.747   6.582  20.656  0.00  0.00    +0.000 NA
ATOM      5  N   UNL     1       1.258   7.798  21.077  0.00  0.00    +0.000 NA
ATOM      6  C   UNL     1       1.433   8.655  20.098  0.00  0.00    +0.000 A 
ENDROOT
BRANCH   3   7
ATOM      7  C   UNL     1       2.816   5.623  18.594  0.00  0.00    +0.000 C 
BRANCH   7   8
ATOM      8  N   UNL     1       4.104   5.153  19.084  0.00  0.00    +0.000 N 
ATOM      9  C   UNL     1       5.149   5.085  18.230  0.00  0.00    +0.000 A 
ATOM     10  N   UNL     1       5.075   4.799  16.948  0.00  0.00    +0.000 NA
ATOM     11  C   UNL     1       6.332   4.864  16.362  0.00  0.00    +0.000 A 
ATOM     12  C   UNL     1       7.346   5.248  17.218  0.00  0.00    +0.000 A 
ATOM     13  S   UNL     1       6.734   5.434  18.806  0.00  0.00    +0.000 S 
ATOM     14  H   UNL     1       4.316   5.520  20.007  0.00  0.00    +0.000 HD
BRANCH  11  15
ATOM     15  C   UNL     1       6.533   4.614  14.934  0.00  0.00    +0.000 A 
ATOM     16  C   UNL     1       5.683   3.729  14.254  0.00  0.00    +0.000 A 
ATOM     17  C   UNL     1       5.823   3.518  12.880  0.00  0.00    +0.000 A 
ATOM     18  C   UNL     1       6.827   4.179  12.172  0.00  0.00    +0.000 A 
ATOM     19  C   UNL     1       7.697   5.039  12.838  0.00  0.00    +0.000 A 
ATOM     20  C   UNL     1       7.555   5.254  14.212  0.00  0.00    +0.000 A 
ENDBRANCH  11  15
ENDBRANCH   7   8
ENDBRANCH   3   7
BRANCH   6  21
ATOM     21  S   UNL     1       0.878  10.293  20.070  0.00  0.00    +0.000 S 
BRANCH  21  22
ATOM     22  C   UNL     1      -0.946  10.106  19.911  0.00  0.00    +0.000 C 
BRANCH  22  23
ATOM     23  C   UNL     1      -1.447  10.481  18.518  0.00  0.00    +0.000 C 
ATOM     24  O   UNL     1      -0.830  10.087  17.519  0.00  0.00    +0.000 OA
ATOM     25  N   UNL     1      -2.685  11.061  18.356  0.00  0.00    +0.000 N 
ATOM     26  C   UNL     1      -3.305  11.067  17.019  0.00  0.00    +0.000 C 
ATOM     27  C   UNL     1      -4.806  11.165  17.266  0.00  0.00    +0.000 C 
ATOM     28  C   UNL     1      -4.772  11.995  18.511  0.00  0.00    +0.000 A 
ATOM     29  C   UNL     1      -5.768  12.847  18.953  0.00  0.00    +0.000 A 
ATOM     30  C   UNL     1      -5.467  13.676  20.027  0.00  0.00    +0.000 A 
ATOM     31  C   UNL     1      -4.212  13.592  20.656  0.00  0.00    +0.000 A 
ATOM     32  C   UNL     1      -3.238  12.662  20.239  0.00  0.00    +0.000 A 
ATOM     33  C   UNL     1      -3.522  11.876  19.149  0.00  0.00    +0.000 A 
ENDBRANCH  22  23
ENDBRANCH  21  22
ENDBRANCH   6  21
TORSDOF 6
ENDMDL
MODEL 6
REMARK VINA RESULT:      -8.0      6.314     10.199
REMARK  Name = 
REMARK  7 active torsions:
REMARK  status: ('A' for Active; 'I' for Inactive)
REMARK    1  A    between atoms: C_1  and  N_2
REMARK    2  A    between atoms: C_3  and  C_4
REMARK    3  A    between atoms: C_4  and  N_5
REMARK    4  A    between atoms: C_8  and  C_9
REMARK    5  A    between atoms: C_19  and  S_20
REMARK    6  A    between atoms: S_20  and  C_21
REMARK    7  A    between atoms: C_21  and  C_22
REMARK                            x       y       z     vdW  Elec       q    Type
REMARK                         _______ _______ _______ _____ _____    ______ ____
ROOT
ATOM      1  C   UNL     1      -0.356   9.731  20.951  0.00  0.00    +0.000 C 
ATOM      2  N   UNL     1       0.491   9.481  19.814  0.00  0.00    +0.000 N 
ATOM      3  C   UNL     1       0.441  10.090  18.582  0.00  0.00    +0.000 A 
ATOM      4  N   UNL     1       1.418   9.602  17.833  0.00  0.00    +0.000 NA
ATOM      5  N   UNL     1       2.094   8.650  18.561  0.00  0.00    +0.000 NA
ATOM      6  C   UNL     1       1.525   8.575  19.742  0.00  0.00    +0.000 A 
ENDROOT
BRANCH   3   7
ATOM      7  C   UNL     1      -0.540  11.144  18.158  0.00  0.00    +0.000 C 
BRANCH   7   8
ATOM      8  N   UNL     1      -1.541  10.677  17.210  0.00  0.00    +0.000 N 
ATOM      9  C   UNL     1      -2.838  11.002  17.408  0.00  0.00    +0.000 A 
ATOM     10  N   UNL     1      -3.423  11.144  18.577  0.00  0.00    +0.000 NA
ATOM     11  C   UNL     1      -4.748  11.528  18.415  0.00  0.00    +0.000 A 
ATOM     12  C   UNL     1      -5.134  11.716  17.102  0.00  0.00    +0.000 A 
ATOM     13  S   UNL     1      -3.849  11.308  16.048  0.00  0.00    +0.000 S 
ATOM     14  H   UNL     1      -1.215  10.743  16.251  0.00  0.00    +0.000 HD
BRANCH  11  15
ATOM     15  C   UNL     1      -5.626  11.780  19.558  0.00  0.00    +0.000 A 
ATOM     16  C   UNL     1      -6.895  11.183  19.608  0.00  0.00    +0.000 A 
ATOM     17  C   UNL     1      -7.728  11.366  20.715  0.00  0.00    +0.000 A 
ATOM     18  C   UNL     1      -7.307  12.163  21.779  0.00  0.00    +0.000 A 
ATOM     19  C   UNL     1      -6.062  12.786  21.732  0.00  0.00    +0.000 A 
ATOM     20  C   UNL     1      -5.226  12.599  20.626  0.00  0.00    +0.000 A 
ENDBRANCH  11  15
ENDBRANCH   7   8
ENDBRANCH   3   7
BRANCH   6  21
ATOM     21  S   UNL     1       1.916   7.443  20.989  0.00  0.00    +0.000 S 
BRANCH  21  22
ATOM     22  C   UNL     1       1.314   5.847  20.298  0.00  0.00    +0.000 C 
BRANCH  22  23
ATOM     23  C   UNL     1       2.282   4.696  20.567  0.00  0.00    +0.000 C 
ATOM     24  O   UNL     1       2.229   4.092  21.648  0.00  0.00    +0.000 OA
ATOM     25  N   UNL     1       3.059   4.187  19.551  0.00  0.00    +0.000 N 
ATOM     26  C   UNL     1       3.689   2.866  19.724  0.00  0.00    +0.000 C 
ATOM     27  C   UNL     1       3.907   2.331  18.313  0.00  0.00    +0.000 C 
ATOM     28  C   UNL     1       4.158   3.633  17.619  0.00  0.00    +0.000 A 
ATOM     29  C   UNL     1       4.905   3.814  16.470  0.00  0.00    +0.000 A 
ATOM     30  C   UNL     1       5.185   5.122  16.091  0.00  0.00    +0.000 A 
ATOM     31  C   UNL     1       4.669   6.200  16.834  0.00  0.00    +0.000 A 
ATOM     32  C   UNL     1       3.845   5.993  17.959  0.00  0.00    +0.000 A 
ATOM     33  C   UNL     1       3.609   4.700  18.356  0.00  0.00    +0.000 A 
ENDBRANCH  22  23
ENDBRANCH  21  22
ENDBRANCH   6  21
TORSDOF 6
ENDMDL
MODEL 7
REMARK VINA RESULT:      -8.0      6.245     10.079
REMARK  Name = 
REMARK  7 active torsions:
REMARK  status: ('A' for Active; 'I' for Inactive)
REMARK    1  A    between atoms: C_1  and  N_2
REMARK    2  A    between atoms: C_3  and  C_4
REMARK    3  A    between atoms: C_4  and  N_5
REMARK    4  A    between atoms: C_8  and  C_9
REMARK    5  A    between atoms: C_19  and  S_20
REMARK    6  A    between atoms: S_20  and  C_21
REMARK    7  A    between atoms: C_21  and  C_22
REMARK                            x       y       z     vdW  Elec       q    Type
REMARK                         _______ _______ _______ _____ _____    ______ ____
ROOT
ATOM      1  C   UNL     1       0.920  12.173  18.722  0.00  0.00    +0.000 C 
ATOM      2  N   UNL     1       0.754  10.999  19.539  0.00  0.00    +0.000 N 
ATOM      3  C   UNL     1       1.045   9.698  19.203  0.00  0.00    +0.000 A 
ATOM      4  N   UNL     1       0.785   8.927  20.247  0.00  0.00    +0.000 NA
ATOM      5  N   UNL     1       0.294   9.716  21.262  0.00  0.00    +0.000 NA
ATOM      6  C   UNL     1       0.267  10.954  20.825  0.00  0.00    +0.000 A 
ENDROOT
BRANCH   3   7
ATOM      7  C   UNL     1       1.586   9.227  17.884  0.00  0.00    +0.000 C 
BRANCH   7   8
ATOM      8  N   UNL     1       2.993   8.853  17.918  0.00  0.00    +0.000 N 
ATOM      9  C   UNL     1       3.332   7.553  17.781  0.00  0.00    +0.000 A 
ATOM     10  N   UNL     1       2.631   6.527  18.212  0.00  0.00    +0.000 NA
ATOM     11  C   UNL     1       3.247   5.333  17.861  0.00  0.00    +0.000 A 
ATOM     12  C   UNL     1       4.402   5.481  17.117  0.00  0.00    +0.000 A 
ATOM     13  S   UNL     1       4.779   7.141  16.941  0.00  0.00    +0.000 S 
ATOM     14  H   UNL     1       3.574   9.513  17.409  0.00  0.00    +0.000 HD
BRANCH  11  15
ATOM     15  C   UNL     1       2.665   4.034  18.196  0.00  0.00    +0.000 A 
ATOM     16  C   UNL     1       3.449   2.873  18.105  0.00  0.00    +0.000 A 
ATOM     17  C   UNL     1       2.930   1.629  18.472  0.00  0.00    +0.000 A 
ATOM     18  C   UNL     1       1.614   1.529  18.920  0.00  0.00    +0.000 A 
ATOM     19  C   UNL     1       0.813   2.667  18.989  0.00  0.00    +0.000 A 
ATOM     20  C   UNL     1       1.333   3.912  18.626  0.00  0.00    +0.000 A 
ENDBRANCH  11  15
ENDBRANCH   7   8
ENDBRANCH   3   7
BRANCH   6  21
ATOM     21  S   UNL     1      -0.383  12.317  21.669  0.00  0.00    +0.000 S 
BRANCH  21  22
ATOM     22  C   UNL     1      -1.458  13.109  20.402  0.00  0.00    +0.000 C 
BRANCH  22  23
ATOM     23  C   UNL     1      -2.915  12.663  20.519  0.00  0.00    +0.000 C 
ATOM     24  O   UNL     1      -3.545  12.896  21.560  0.00  0.00    +0.000 OA
ATOM     25  N   UNL     1      -3.593  12.204  19.412  0.00  0.00    +0.000 N 
ATOM     26  C   UNL     1      -5.065  12.142  19.449  0.00  0.00    +0.000 C 
ATOM     27  C   UNL     1      -5.513  12.227  17.994  0.00  0.00    +0.000 C 
ATOM     28  C   UNL     1      -4.357  11.516  17.364  0.00  0.00    +0.000 A 
ATOM     29  C   UNL     1      -4.379  10.818  16.170  0.00  0.00    +0.000 A 
ATOM     30  C   UNL     1      -3.256  10.064  15.852  0.00  0.00    +0.000 A 
ATOM     31  C   UNL     1      -2.134  10.071  16.701  0.00  0.00    +0.000 A 
ATOM     32  C   UNL     1      -2.103  10.851  17.876  0.00  0.00    +0.000 A 
ATOM     33  C   UNL     1      -3.231  11.559  18.210  0.00  0.00    +0.000 A 
ENDBRANCH  22  23
ENDBRANCH  21  22
ENDBRANCH   6  21
TORSDOF 6
ENDMDL
MODEL 8
REMARK VINA RESULT:      -8.0      6.136      9.388
REMARK  Name = 
REMARK  7 active torsions:
REMARK  status: ('A' for Active; 'I' for Inactive)
REMARK    1  A    between atoms: C_1  and  N_2
REMARK    2  A    between atoms: C_3  and  C_4
REMARK    3  A    between atoms: C_4  and  N_5
REMARK    4  A    between atoms: C_8  and  C_9
REMARK    5  A    between atoms: C_19  and  S_20
REMARK    6  A    between atoms: S_20  and  C_21
REMARK    7  A    between atoms: C_21  and  C_22
REMARK                            x       y       z     vdW  Elec       q    Type
REMARK                         _______ _______ _______ _____ _____    ______ ____
ROOT
ATOM      1  C   UNL     1      -0.211   9.732  23.304  0.00  0.00    +0.000 C 
ATOM      2  N   UNL     1       0.219   9.875  21.937  0.00  0.00    +0.000 N 
ATOM      3  C   UNL     1       0.849   8.937  21.155  0.00  0.00    +0.000 A 
ATOM      4  N   UNL     1       1.036   9.453  19.950  0.00  0.00    +0.000 NA
ATOM      5  N   UNL     1       0.555  10.743  19.946  0.00  0.00    +0.000 NA
ATOM      6  C   UNL     1       0.079  10.991  21.144  0.00  0.00    +0.000 A 
ENDROOT
BRANCH   3   7
ATOM      7  C   UNL     1       1.244   7.553  21.582  0.00  0.00    +0.000 C 
BRANCH   7   8
ATOM      8  N   UNL     1       0.919   6.517  20.613  0.00  0.00    +0.000 N 
ATOM      9  C   UNL     1       1.922   5.875  19.973  0.00  0.00    +0.000 A 
ATOM     10  N   UNL     1       3.074   6.406  19.627  0.00  0.00    +0.000 NA
ATOM     11  C   UNL     1       3.890   5.453  19.031  0.00  0.00    +0.000 A 
ATOM     12  C   UNL     1       3.345   4.185  18.977  0.00  0.00    +0.000 A 
ATOM     13  S   UNL     1       1.747   4.205  19.590  0.00  0.00    +0.000 S 
ATOM     14  H   UNL     1       0.154   5.928  20.928  0.00  0.00    +0.000 HD
BRANCH  11  15
ATOM     15  C   UNL     1       5.242   5.770  18.571  0.00  0.00    +0.000 A 
ATOM     16  C   UNL     1       5.422   6.568  17.431  0.00  0.00    +0.000 A 
ATOM     17  C   UNL     1       6.704   6.929  17.006  0.00  0.00    +0.000 A 
ATOM     18  C   UNL     1       7.822   6.482  17.709  0.00  0.00    +0.000 A 
ATOM     19  C   UNL     1       7.661   5.665  18.826  0.00  0.00    +0.000 A 
ATOM     20  C   UNL     1       6.379   5.308  19.254  0.00  0.00    +0.000 A 
ENDBRANCH  11  15
ENDBRANCH   7   8
ENDBRANCH   3   7
BRANCH   6  21
ATOM     21  S   UNL     1      -0.529  12.512  21.701  0.00  0.00    +0.000 S 
BRANCH  21  22
ATOM     22  C   UNL     1      -1.491  13.123  20.256  0.00  0.00    +0.000 C 
BRANCH  22  23
ATOM     23  C   UNL     1      -2.954  12.686  20.307  0.00  0.00    +0.000 C 
ATOM     24  O   UNL     1      -3.642  12.967  21.297  0.00  0.00    +0.000 OA
ATOM     25  N   UNL     1      -3.568  12.178  19.184  0.00  0.00    +0.000 N 
ATOM     26  C   UNL     1      -5.040  12.119  19.137  0.00  0.00    +0.000 C 
ATOM     27  C   UNL     1      -5.402  12.138  17.657  0.00  0.00    +0.000 C 
ATOM     28  C   UNL     1      -4.213  11.397  17.129  0.00  0.00    +0.000 A 
ATOM     29  C   UNL     1      -4.168  10.645  15.969  0.00  0.00    +0.000 A 
ATOM     30  C   UNL     1      -3.032   9.875  15.753  0.00  0.00    +0.000 A 
ATOM     31  C   UNL     1      -1.962   9.919  16.665  0.00  0.00    +0.000 A 
ATOM     32  C   UNL     1      -1.996  10.752  17.802  0.00  0.00    +0.000 A 
ATOM     33  C   UNL     1      -3.138  11.477  18.037  0.00  0.00    +0.000 A 
ENDBRANCH  22  23
ENDBRANCH  21  22
ENDBRANCH   6  21
TORSDOF 6
ENDMDL
MODEL 9
REMARK VINA RESULT:      -8.0      5.989      9.160
REMARK  Name = 
REMARK  7 active torsions:
REMARK  status: ('A' for Active; 'I' for Inactive)
REMARK    1  A    between atoms: C_1  and  N_2
REMARK    2  A    between atoms: C_3  and  C_4
REMARK    3  A    between atoms: C_4  and  N_5
REMARK    4  A    between atoms: C_8  and  C_9
REMARK    5  A    between atoms: C_19  and  S_20
REMARK    6  A    between atoms: S_20  and  C_21
REMARK    7  A    between atoms: C_21  and  C_22
REMARK                            x       y       z     vdW  Elec       q    Type
REMARK                         _______ _______ _______ _____ _____    ______ ____
ROOT
ATOM      1  C   UNL     1       1.557   5.637  20.815  0.00  0.00    +0.000 C 
ATOM      2  N   UNL     1       1.962   6.560  19.787  0.00  0.00    +0.000 N 
ATOM      3  C   UNL     1       2.509   6.262  18.561  0.00  0.00    +0.000 A 
ATOM      4  N   UNL     1       2.701   7.393  17.901  0.00  0.00    +0.000 NA
ATOM      5  N   UNL     1       2.307   8.440  18.702  0.00  0.00    +0.000 NA
ATOM      6  C   UNL     1       1.878   7.933  19.835  0.00  0.00    +0.000 A 
ENDROOT
BRANCH   3   7
ATOM      7  C   UNL     1       2.821   4.887  18.046  0.00  0.00    +0.000 C 
BRANCH   7   8
ATOM      8  N   UNL     1       4.089   4.349  18.516  0.00  0.00    +0.000 N 
ATOM      9  C   UNL     1       5.171   4.410  17.709  0.00  0.00    +0.000 A 
ATOM     10  N   UNL     1       5.155   4.319  16.397  0.00  0.00    +0.000 NA
ATOM     11  C   UNL     1       6.436   4.471  15.883  0.00  0.00    +0.000 A 
ATOM     12  C   UNL     1       7.409   4.724  16.831  0.00  0.00    +0.000 A 
ATOM     13  S   UNL     1       6.727   4.669  18.400  0.00  0.00    +0.000 S 
ATOM     14  H   UNL     1       4.258   4.574  19.492  0.00  0.00    +0.000 HD
BRANCH  11  15
ATOM     15  C   UNL     1       6.701   4.438  14.445  0.00  0.00    +0.000 A 
ATOM     16  C   UNL     1       5.995   3.544  13.625  0.00  0.00    +0.000 A 
ATOM     17  C   UNL     1       6.193   3.534  12.242  0.00  0.00    +0.000 A 
ATOM     18  C   UNL     1       7.113   4.407  11.663  0.00  0.00    +0.000 A 
ATOM     19  C   UNL     1       7.843   5.281  12.466  0.00  0.00    +0.000 A 
ATOM     20  C   UNL     1       7.642   5.295  13.850  0.00  0.00    +0.000 A 
ENDBRANCH  11  15
ENDBRANCH   7   8
ENDBRANCH   3   7
BRANCH   6  21
ATOM     21  S   UNL     1       1.387   8.831  21.229  0.00  0.00    +0.000 S 
BRANCH  21  22
ATOM     22  C   UNL     1       0.920  10.464  20.522  0.00  0.00    +0.000 C 
BRANCH  22  23
ATOM     23  C   UNL     1      -0.287  11.078  21.229  0.00  0.00    +0.000 C 
ATOM     24  O   UNL     1      -0.204  11.388  22.425  0.00  0.00    +0.000 OA
ATOM     25  N   UNL     1      -1.384  11.487  20.505  0.00  0.00    +0.000 N 
ATOM     26  C   UNL     1      -2.356  12.402  21.130  0.00  0.00    +0.000 C 
ATOM     27  C   UNL     1      -3.029  13.133  19.975  0.00  0.00    +0.000 C 
ATOM     28  C   UNL     1      -2.988  12.033  18.962  0.00  0.00    +0.000 A 
ATOM     29  C   UNL     1      -3.863  11.863  17.904  0.00  0.00    +0.000 A 
ATOM     30  C   UNL     1      -3.778  10.673  17.192  0.00  0.00    +0.000 A 
ATOM     31  C   UNL     1      -2.796   9.720  17.519  0.00  0.00    +0.000 A 
ATOM     32  C   UNL     1      -1.864   9.947  18.552  0.00  0.00    +0.000 A 
ATOM     33  C   UNL     1      -1.980  11.103  19.283  0.00  0.00    +0.000 A 
ENDBRANCH  22  23
ENDBRANCH  21  22
ENDBRANCH   6  21
TORSDOF 6
ENDMDL
