MODEL 1
REMARK VINA RESULT:      -7.0      0.000      0.000
REMARK  Name = 
REMARK  7 active torsions:
REMARK  status: ('A' for Active; 'I' for Inactive)
REMARK    1  A    between atoms: C_1  and  C_2
REMARK    2  A    between atoms: C_2  and  C_3
REMARK    3  A    between atoms: C_3  and  C_4
REMARK    4  A    between atoms: C_7  and  C_8
REMARK    5  A    between atoms: C_16  and  C_17
REMARK    6  A    between atoms: C_24  and  C_25
REMARK    7  A    between atoms: C_24  and  C_26
REMARK                            x       y       z     vdW  Elec       q    Type
REMARK                         _______ _______ _______ _____ _____    ______ ____
ROOT
ATOM      1  C   UNL     1      -5.677  11.315  18.833  0.00  0.00    +0.000 C 
ATOM      2  C   UNL     1      -4.604  11.864  17.892  0.00  0.00    +0.000 C 
ATOM      3  C   UNL     1      -3.259  11.542  18.395  0.00  0.00    +0.000 A 
ATOM      4  C   UNL     1      -2.254  10.769  17.834  0.00  0.00    +0.000 A 
ATOM      5  C   UNL     1      -2.237  10.001  16.562  0.00  0.00    +0.000 C 
ATOM      6  C   UNL     1      -1.188  10.807  18.731  0.00  0.00    +0.000 A 
ATOM      7  C   UNL     1      -1.556  11.576  19.809  0.00  0.00    +0.000 A 
ATOM      8  N   UNL     1      -2.827  12.096  19.574  0.00  0.00    +0.000 N 
ATOM      9  C   UNL     1      -3.559  13.012  20.378  0.00  0.00    +0.000 A 
ATOM     10  C   UNL     1      -2.881  14.082  20.997  0.00  0.00    +0.000 A 
ATOM     11  C   UNL     1      -3.528  14.958  21.885  0.00  0.00    +0.000 A 
ATOM     12 CL   UNL     1      -2.552  16.208  22.574  0.00  0.00    +0.000 Cl
ATOM     13  C   UNL     1      -4.890  14.798  22.137  0.00  0.00    +0.000 A 
ATOM     14  C   UNL     1      -5.574  13.762  21.472  0.00  0.00    +0.000 A 
ATOM     15  C   UNL     1      -4.934  12.880  20.584  0.00  0.00    +0.000 A 
ATOM     16  O   UNL     1      -5.748  11.879  20.154  0.00  0.00    +0.000 OA
ATOM     17  C   UNL     1      -0.834  11.719  21.047  0.00  0.00    +0.000 C 
ATOM     18  C   UNL     1       0.543  10.982  20.936  0.00  0.00    +0.000 C 
ATOM     19  C   UNL     1       0.261   9.832  21.940  0.00  0.00    +0.000 C 
ATOM     20  C   UNL     1       1.451  12.232  20.723  0.00  0.00    +0.000 C 
ATOM     21  C   UNL     1       1.033  10.137  19.736  0.00  0.00    +0.000 C 
ATOM     22  C   UNL     1       0.066  10.084  18.623  0.00  0.00    +0.000 C 
ATOM     23  O   UNL     1       0.325   9.404  17.652  0.00  0.00    +0.000 OA
ENDROOT
BRANCH  13  24
ATOM     24  C   UNL     1      -5.701  15.660  23.034  0.00  0.00    +0.000 C 
ATOM     25  N   UNL     1      -5.553  15.570  24.380  0.00  0.00    +0.000 N 
ATOM     26  O   UNL     1      -6.566  16.424  22.566  0.00  0.00    +0.000 OA
ATOM     27  H   UNL     1      -4.800  15.057  24.819  0.00  0.00    +0.000 HD
ATOM     28  H   UNL     1      -6.074  16.225  24.951  0.00  0.00    +0.000 HD
ENDBRANCH  13  24
BRANCH   1  29
ATOM     29  C   UNL     1      -7.070  11.535  18.223  0.00  0.00    +0.000 C 
BRANCH  29  31
ATOM     30  C   UNL     1      -7.916  13.900  18.175  0.00  0.00    +0.000 C 
ATOM     31  C   UNL     1      -7.188  12.818  17.401  0.00  0.00    +0.000 C 
ENDBRANCH  29  31
ENDBRANCH   1  29
TORSDOF 3
ENDMDL
MODEL 2
REMARK VINA RESULT:      -6.9      6.564     10.960
REMARK  Name = 
REMARK  7 active torsions:
REMARK  status: ('A' for Active; 'I' for Inactive)
REMARK    1  A    between atoms: C_1  and  C_2
REMARK    2  A    between atoms: C_2  and  C_3
REMARK    3  A    between atoms: C_3  and  C_4
REMARK    4  A    between atoms: C_7  and  C_8
REMARK    5  A    between atoms: C_16  and  C_17
REMARK    6  A    between atoms: C_24  and  C_25
REMARK    7  A    between atoms: C_24  and  C_26
REMARK                            x       y       z     vdW  Elec       q    Type
REMARK                         _______ _______ _______ _____ _____    ______ ____
ROOT
ATOM      1  C   UNL     1       5.121   7.176  17.388  0.00  0.00    +0.000 C 
ATOM      2  C   UNL     1       3.687   7.416  16.916  0.00  0.00    +0.000 C 
ATOM      3  C   UNL     1       2.865   7.959  18.009  0.00  0.00    +0.000 A 
ATOM      4  C   UNL     1       2.209   9.176  18.117  0.00  0.00    +0.000 A 
ATOM      5  C   UNL     1       2.159  10.322  17.171  0.00  0.00    +0.000 C 
ATOM      6  C   UNL     1       1.575   9.167  19.359  0.00  0.00    +0.000 A 
ATOM      7  C   UNL     1       1.859   7.975  19.981  0.00  0.00    +0.000 A 
ATOM      8  N   UNL     1       2.611   7.185  19.114  0.00  0.00    +0.000 N 
ATOM      9  C   UNL     1       3.047   5.846  19.308  0.00  0.00    +0.000 A 
ATOM     10  C   UNL     1       2.180   4.919  19.920  0.00  0.00    +0.000 A 
ATOM     11  C   UNL     1       2.589   3.612  20.233  0.00  0.00    +0.000 A 
ATOM     12 CL   UNL     1       1.413   2.604  20.999  0.00  0.00    +0.000 Cl
ATOM     13  C   UNL     1       3.876   3.196  19.894  0.00  0.00    +0.000 A 
ATOM     14  C   UNL     1       4.720   4.109  19.231  0.00  0.00    +0.000 A 
ATOM     15  C   UNL     1       4.319   5.420  18.917  0.00  0.00    +0.000 A 
ATOM     16  O   UNL     1       5.325   6.170  18.396  0.00  0.00    +0.000 OA
ATOM     17  C   UNL     1       1.569   7.632  21.350  0.00  0.00    +0.000 C 
ATOM     18  C   UNL     1       0.724   8.774  22.006  0.00  0.00    +0.000 C 
ATOM     19  C   UNL     1       1.793   9.297  23.004  0.00  0.00    +0.000 C 
ATOM     20  C   UNL     1      -0.672   8.081  21.953  0.00  0.00    +0.000 C 
ATOM     21  C   UNL     1       0.336  10.120  21.346  0.00  0.00    +0.000 C 
ATOM     22  C   UNL     1       0.827  10.255  19.962  0.00  0.00    +0.000 C 
ATOM     23  O   UNL     1       0.627  11.293  19.366  0.00  0.00    +0.000 OA
ENDROOT
BRANCH  13  24
ATOM     24  C   UNL     1       4.433   1.843  20.146  0.00  0.00    +0.000 C 
ATOM     25  N   UNL     1       4.340   0.881  19.193  0.00  0.00    +0.000 N 
ATOM     26  O   UNL     1       4.932   1.559  21.251  0.00  0.00    +0.000 OA
ATOM     27  H   UNL     1       4.050   1.072  18.243  0.00  0.00    +0.000 HD
ATOM     28  H   UNL     1       4.794  -0.005  19.379  0.00  0.00    +0.000 HD
ENDBRANCH  13  24
BRANCH   1  29
ATOM     29  C   UNL     1       5.997   6.744  16.201  0.00  0.00    +0.000 C 
BRANCH  29  31
ATOM     30  C   UNL     1       6.199   4.363  15.425  0.00  0.00    +0.000 C 
ATOM     31  C   UNL     1       5.379   5.636  15.349  0.00  0.00    +0.000 C 
ENDBRANCH  29  31
ENDBRANCH   1  29
TORSDOF 3
ENDMDL
MODEL 3
REMARK VINA RESULT:      -6.8      1.937      2.407
REMARK  Name = 
REMARK  7 active torsions:
REMARK  status: ('A' for Active; 'I' for Inactive)
REMARK    1  A    between atoms: C_1  and  C_2
REMARK    2  A    between atoms: C_2  and  C_3
REMARK    3  A    between atoms: C_3  and  C_4
REMARK    4  A    between atoms: C_7  and  C_8
REMARK    5  A    between atoms: C_16  and  C_17
REMARK    6  A    between atoms: C_24  and  C_25
REMARK    7  A    between atoms: C_24  and  C_26
REMARK                            x       y       z     vdW  Elec       q    Type
REMARK                         _______ _______ _______ _____ _____    ______ ____
ROOT
ATOM      1  C   UNL     1      -5.945  12.197  21.013  0.00  0.00    +0.000 C 
ATOM      2  C   UNL     1      -5.388  12.800  19.722  0.00  0.00    +0.000 C 
ATOM      3  C   UNL     1      -4.071  12.223  19.407  0.00  0.00    +0.000 A 
ATOM      4  C   UNL     1      -3.661  11.471  18.317  0.00  0.00    +0.000 A 
ATOM      5  C   UNL     1      -4.434  10.989  17.143  0.00  0.00    +0.000 C 
ATOM      6  C   UNL     1      -2.310  11.195  18.523  0.00  0.00    +0.000 A 
ATOM      7  C   UNL     1      -1.928  11.760  19.716  0.00  0.00    +0.000 A 
ATOM      8  N   UNL     1      -3.009  12.463  20.243  0.00  0.00    +0.000 N 
ATOM      9  C   UNL     1      -3.040  13.271  21.412  0.00  0.00    +0.000 A 
ATOM     10  C   UNL     1      -1.939  14.100  21.708  0.00  0.00    +0.000 A 
ATOM     11  C   UNL     1      -1.864  14.842  22.899  0.00  0.00    +0.000 A 
ATOM     12 CL   UNL     1      -0.439  15.795  23.119  0.00  0.00    +0.000 Cl
ATOM     13  C   UNL     1      -2.923  14.794  23.804  0.00  0.00    +0.000 A 
ATOM     14  C   UNL     1      -4.046  14.008  23.478  0.00  0.00    +0.000 A 
ATOM     15  C   UNL     1      -4.128  13.262  22.289  0.00  0.00    +0.000 A 
ATOM     16  O   UNL     1      -5.236  12.477  22.232  0.00  0.00    +0.000 OA
ATOM     17  C   UNL     1      -0.679  11.554  20.401  0.00  0.00    +0.000 C 
ATOM     18  C   UNL     1       0.275  10.699  19.502  0.00  0.00    +0.000 C 
ATOM     19  C   UNL     1       0.292   9.406  20.361  0.00  0.00    +0.000 C 
ATOM     20  C   UNL     1       1.199  11.850  18.996  0.00  0.00    +0.000 C 
ATOM     21  C   UNL     1      -0.078  10.071  18.132  0.00  0.00    +0.000 C 
ATOM     22  C   UNL     1      -1.455  10.367  17.691  0.00  0.00    +0.000 C 
ATOM     23  O   UNL     1      -1.857   9.880  16.656  0.00  0.00    +0.000 OA
ENDROOT
BRANCH  13  24
ATOM     24  C   UNL     1      -2.987  15.539  25.087  0.00  0.00    +0.000 C 
ATOM     25  N   UNL     1      -3.737  16.666  25.184  0.00  0.00    +0.000 N 
ATOM     26  O   UNL     1      -2.307  15.174  26.065  0.00  0.00    +0.000 OA
ATOM     27  H   UNL     1      -4.394  16.954  24.470  0.00  0.00    +0.000 HD
ATOM     28  H   UNL     1      -3.808  17.102  26.095  0.00  0.00    +0.000 HD
ENDBRANCH  13  24
BRANCH   1  29
ATOM     29  C   UNL     1      -7.377  12.703  21.251  0.00  0.00    +0.000 C 
BRANCH  29  31
ATOM     30  C   UNL     1      -7.643  15.073  22.042  0.00  0.00    +0.000 C 
ATOM     31  C   UNL     1      -7.594  14.157  20.834  0.00  0.00    +0.000 C 
ENDBRANCH  29  31
ENDBRANCH   1  29
TORSDOF 3
ENDMDL
MODEL 4
REMARK VINA RESULT:      -6.7      2.153      2.772
REMARK  Name = 
REMARK  7 active torsions:
REMARK  status: ('A' for Active; 'I' for Inactive)
REMARK    1  A    between atoms: C_1  and  C_2
REMARK    2  A    between atoms: C_2  and  C_3
REMARK    3  A    between atoms: C_3  and  C_4
REMARK    4  A    between atoms: C_7  and  C_8
REMARK    5  A    between atoms: C_16  and  C_17
REMARK    6  A    between atoms: C_24  and  C_25
REMARK    7  A    between atoms: C_24  and  C_26
REMARK                            x       y       z     vdW  Elec       q    Type
REMARK                         _______ _______ _______ _____ _____    ______ ____
ROOT
ATOM      1  C   UNL     1      -5.469  12.574  21.517  0.00  0.00    +0.000 C 
ATOM      2  C   UNL     1      -4.975  13.110  20.172  0.00  0.00    +0.000 C 
ATOM      3  C   UNL     1      -3.701  12.475  19.798  0.00  0.00    +0.000 A 
ATOM      4  C   UNL     1      -3.387  11.670  18.713  0.00  0.00    +0.000 A 
ATOM      5  C   UNL     1      -4.249  11.175  17.609  0.00  0.00    +0.000 C 
ATOM      6  C   UNL     1      -2.035  11.352  18.845  0.00  0.00    +0.000 A 
ATOM      7  C   UNL     1      -1.560  11.945  19.989  0.00  0.00    +0.000 A 
ATOM      8  N   UNL     1      -2.581  12.706  20.556  0.00  0.00    +0.000 N 
ATOM      9  C   UNL     1      -2.509  13.556  21.693  0.00  0.00    +0.000 A 
ATOM     10  C   UNL     1      -1.364  14.355  21.888  0.00  0.00    +0.000 A 
ATOM     11  C   UNL     1      -1.189  15.135  23.043  0.00  0.00    +0.000 A 
ATOM     12 CL   UNL     1       0.279  16.043  23.138  0.00  0.00    +0.000 Cl
ATOM     13  C   UNL     1      -2.190  15.159  24.014  0.00  0.00    +0.000 A 
ATOM     14  C   UNL     1      -3.357  14.403  23.788  0.00  0.00    +0.000 A 
ATOM     15  C   UNL     1      -3.539  13.617  22.636  0.00  0.00    +0.000 A 
ATOM     16  O   UNL     1      -4.675  12.872  22.678  0.00  0.00    +0.000 OA
ATOM     17  C   UNL     1      -0.277  11.719  20.603  0.00  0.00    +0.000 C 
ATOM     18  C   UNL     1       0.588  10.799  19.679  0.00  0.00    +0.000 C 
ATOM     19  C   UNL     1       0.616   9.537  20.584  0.00  0.00    +0.000 C 
ATOM     20  C   UNL     1       1.516  11.896  19.073  0.00  0.00    +0.000 C 
ATOM     21  C   UNL     1       0.127  10.135  18.359  0.00  0.00    +0.000 C 
ATOM     22  C   UNL     1      -1.264  10.465  17.994  0.00  0.00    +0.000 C 
ATOM     23  O   UNL     1      -1.748   9.956  17.005  0.00  0.00    +0.000 OA
ENDROOT
BRANCH  13  24
ATOM     24  C   UNL     1      -2.146  15.950  25.269  0.00  0.00    +0.000 C 
ATOM     25  N   UNL     1      -1.529  15.448  26.369  0.00  0.00    +0.000 N 
ATOM     26  O   UNL     1      -2.725  17.050  25.344  0.00  0.00    +0.000 OA
ATOM     27  H   UNL     1      -0.949  14.620  26.346  0.00  0.00    +0.000 HD
ATOM     28  H   UNL     1      -1.462  16.050  27.181  0.00  0.00    +0.000 HD
ENDBRANCH  13  24
BRANCH   1  29
ATOM     29  C   UNL     1      -6.865  13.140  21.824  0.00  0.00    +0.000 C 
BRANCH  29  31
ATOM     30  C   UNL     1      -7.853  10.953  21.079  0.00  0.00    +0.000 C 
ATOM     31  C   UNL     1      -7.916  12.068  22.106  0.00  0.00    +0.000 C 
ENDBRANCH  29  31
ENDBRANCH   1  29
TORSDOF 3
ENDMDL
MODEL 5
REMARK VINA RESULT:      -6.7      2.491      6.443
REMARK  Name = 
REMARK  7 active torsions:
REMARK  status: ('A' for Active; 'I' for Inactive)
REMARK    1  A    between atoms: C_1  and  C_2
REMARK    2  A    between atoms: C_2  and  C_3
REMARK    3  A    between atoms: C_3  and  C_4
REMARK    4  A    between atoms: C_7  and  C_8
REMARK    5  A    between atoms: C_16  and  C_17
REMARK    6  A    between atoms: C_24  and  C_25
REMARK    7  A    between atoms: C_24  and  C_26
REMARK                            x       y       z     vdW  Elec       q    Type
REMARK                         _______ _______ _______ _____ _____    ______ ____
ROOT
ATOM      1  C   UNL     1      -3.434  11.506  17.133  0.00  0.00    +0.000 C 
ATOM      2  C   UNL     1      -4.217  11.226  18.417  0.00  0.00    +0.000 C 
ATOM      3  C   UNL     1      -3.853  12.191  19.466  0.00  0.00    +0.000 A 
ATOM      4  C   UNL     1      -4.628  13.137  20.121  0.00  0.00    +0.000 A 
ATOM      5  C   UNL     1      -6.061  13.487  19.942  0.00  0.00    +0.000 C 
ATOM      6  C   UNL     1      -3.781  13.774  21.026  0.00  0.00    +0.000 A 
ATOM      7  C   UNL     1      -2.526  13.228  20.903  0.00  0.00    +0.000 A 
ATOM      8  N   UNL     1      -2.578  12.189  19.976  0.00  0.00    +0.000 N 
ATOM      9  C   UNL     1      -1.538  11.295  19.606  0.00  0.00    +0.000 A 
ATOM     10  C   UNL     1      -0.668  10.799  20.597  0.00  0.00    +0.000 A 
ATOM     11  C   UNL     1       0.441   9.995  20.281  0.00  0.00    +0.000 A 
ATOM     12 CL   UNL     1       1.419   9.484  21.611  0.00  0.00    +0.000 Cl
ATOM     13  C   UNL     1       0.673   9.638  18.954  0.00  0.00    +0.000 A 
ATOM     14  C   UNL     1      -0.232  10.090  17.973  0.00  0.00    +0.000 A 
ATOM     15  C   UNL     1      -1.343  10.896  18.281  0.00  0.00    +0.000 A 
ATOM     16  O   UNL     1      -2.008  11.323  17.176  0.00  0.00    +0.000 OA
ATOM     17  C   UNL     1      -1.314  13.721  21.505  0.00  0.00    +0.000 C 
ATOM     18  C   UNL     1      -1.654  14.903  22.471  0.00  0.00    +0.000 C 
ATOM     19  C   UNL     1      -0.995  16.051  21.660  0.00  0.00    +0.000 C 
ATOM     20  C   UNL     1      -1.541  14.131  23.822  0.00  0.00    +0.000 C 
ATOM     21  C   UNL     1      -3.051  15.536  22.687  0.00  0.00    +0.000 C 
ATOM     22  C   UNL     1      -4.112  14.895  21.886  0.00  0.00    +0.000 C 
ATOM     23  O   UNL     1      -5.237  15.346  21.935  0.00  0.00    +0.000 OA
ENDROOT
BRANCH  13  24
ATOM     24  C   UNL     1       1.790   8.782  18.480  0.00  0.00    +0.000 C 
ATOM     25  N   UNL     1       2.171   7.699  19.205  0.00  0.00    +0.000 N 
ATOM     26  O   UNL     1       2.425   9.082  17.452  0.00  0.00    +0.000 OA
ATOM     27  H   UNL     1       1.633   7.338  19.981  0.00  0.00    +0.000 HD
ATOM     28  H   UNL     1       2.889   7.104  18.810  0.00  0.00    +0.000 HD
ENDBRANCH  13  24
BRANCH   1  29
ATOM     29  C   UNL     1      -3.928  10.581  16.008  0.00  0.00    +0.000 C 
BRANCH  29  31
ATOM     30  C   UNL     1      -3.396  10.006  13.621  0.00  0.00    +0.000 C 
ATOM     31  C   UNL     1      -2.835  10.175  15.020  0.00  0.00    +0.000 C 
ENDBRANCH  29  31
ENDBRANCH   1  29
TORSDOF 3
ENDMDL
MODEL 6
REMARK VINA RESULT:      -6.5      3.288      5.523
REMARK  Name = 
REMARK  7 active torsions:
REMARK  status: ('A' for Active; 'I' for Inactive)
REMARK    1  A    between atoms: C_1  and  C_2
REMARK    2  A    between atoms: C_2  and  C_3
REMARK    3  A    between atoms: C_3  and  C_4
REMARK    4  A    between atoms: C_7  and  C_8
REMARK    5  A    between atoms: C_16  and  C_17
REMARK    6  A    between atoms: C_24  and  C_25
REMARK    7  A    between atoms: C_24  and  C_26
REMARK                            x       y       z     vdW  Elec       q    Type
REMARK                         _______ _______ _______ _____ _____    ______ ____
ROOT
ATOM      1  C   UNL     1       0.491  10.819  21.930  0.00  0.00    +0.000 C 
ATOM      2  C   UNL     1       0.252  11.004  20.431  0.00  0.00    +0.000 C 
ATOM      3  C   UNL     1       0.437  12.413  20.048  0.00  0.00    +0.000 A 
ATOM      4  C   UNL     1       1.354  12.993  19.185  0.00  0.00    +0.000 A 
ATOM      5  C   UNL     1       2.455  12.373  18.402  0.00  0.00    +0.000 C 
ATOM      6  C   UNL     1       1.077  14.360  19.185  0.00  0.00    +0.000 A 
ATOM      7  C   UNL     1       0.026  14.589  20.040  0.00  0.00    +0.000 A 
ATOM      8  N   UNL     1      -0.425  13.365  20.533  0.00  0.00    +0.000 N 
ATOM      9  C   UNL     1      -1.544  13.121  21.374  0.00  0.00    +0.000 A 
ATOM     10  C   UNL     1      -2.736  13.845  21.167  0.00  0.00    +0.000 A 
ATOM     11  C   UNL     1      -3.839  13.724  22.027  0.00  0.00    +0.000 A 
ATOM     12 CL   UNL     1      -5.218  14.693  21.645  0.00  0.00    +0.000 Cl
ATOM     13  C   UNL     1      -3.779  12.834  23.099  0.00  0.00    +0.000 A 
ATOM     14  C   UNL     1      -2.607  12.071  23.269  0.00  0.00    +0.000 A 
ATOM     15  C   UNL     1      -1.497  12.188  22.413  0.00  0.00    +0.000 A 
ATOM     16  O   UNL     1      -0.429  11.460  22.831  0.00  0.00    +0.000 OA
ATOM     17  C   UNL     1      -0.454  15.871  20.485  0.00  0.00    +0.000 C 
ATOM     18  C   UNL     1       0.305  17.006  19.719  0.00  0.00    +0.000 C 
ATOM     19  C   UNL     1       1.115  17.578  20.914  0.00  0.00    +0.000 C 
ATOM     20  C   UNL     1      -0.817  17.383  18.704  0.00  0.00    +0.000 C 
ATOM     21  C   UNL     1       1.466  16.814  18.715  0.00  0.00    +0.000 C 
ATOM     22  C   UNL     1       1.820  15.398  18.495  0.00  0.00    +0.000 C 
ATOM     23  O   UNL     1       2.754  15.132  17.767  0.00  0.00    +0.000 OA
ENDROOT
BRANCH  13  24
ATOM     24  C   UNL     1      -4.874  12.591  24.072  0.00  0.00    +0.000 C 
ATOM     25  N   UNL     1      -4.616  12.611  25.405  0.00  0.00    +0.000 N 
ATOM     26  O   UNL     1      -6.021  12.308  23.678  0.00  0.00    +0.000 OA
ATOM     27  H   UNL     1      -3.742  12.940  25.792  0.00  0.00    +0.000 HD
ATOM     28  H   UNL     1      -5.404  12.511  26.033  0.00  0.00    +0.000 HD
ENDBRANCH  13  24
BRANCH   1  29
ATOM     29  C   UNL     1       0.434   9.324  22.287  0.00  0.00    +0.000 C 
BRANCH  29  31
ATOM     30  C   UNL     1       1.476   7.555  20.840  0.00  0.00    +0.000 C 
ATOM     31  C   UNL     1       0.245   8.408  21.079  0.00  0.00    +0.000 C 
ENDBRANCH  29  31
ENDBRANCH   1  29
TORSDOF 3
ENDMDL
MODEL 7
REMARK VINA RESULT:      -6.5      3.174      5.317
REMARK  Name = 
REMARK  7 active torsions:
REMARK  status: ('A' for Active; 'I' for Inactive)
REMARK    1  A    between atoms: C_1  and  C_2
REMARK    2  A    between atoms: C_2  and  C_3
REMARK    3  A    between atoms: C_3  and  C_4
REMARK    4  A    between atoms: C_7  and  C_8
REMARK    5  A    between atoms: C_16  and  C_17
REMARK    6  A    between atoms: C_24  and  C_25
REMARK    7  A    between atoms: C_24  and  C_26
REMARK                            x       y       z     vdW  Elec       q    Type
REMARK                         _______ _______ _______ _____ _____    ______ ____
ROOT
ATOM      1  C   UNL     1      -0.469  11.177  22.337  0.00  0.00    +0.000 C 
ATOM      2  C   UNL     1      -0.533  11.274  20.812  0.00  0.00    +0.000 C 
ATOM      3  C   UNL     1      -0.297  12.658  20.370  0.00  0.00    +0.000 A 
ATOM      4  C   UNL     1       0.717  13.187  19.586  0.00  0.00    +0.000 A 
ATOM      5  C   UNL     1       1.896  12.522  18.973  0.00  0.00    +0.000 C 
ATOM      6  C   UNL     1       0.450  14.551  19.474  0.00  0.00    +0.000 A 
ATOM      7  C   UNL     1      -0.691  14.829  20.187  0.00  0.00    +0.000 A 
ATOM      8  N   UNL     1      -1.203  13.636  20.696  0.00  0.00    +0.000 N 
ATOM      9  C   UNL     1      -2.413  13.441  21.416  0.00  0.00    +0.000 A 
ATOM     10  C   UNL     1      -3.569  14.150  21.030  0.00  0.00    +0.000 A 
ATOM     11  C   UNL     1      -4.765  14.079  21.764  0.00  0.00    +0.000 A 
ATOM     12 CL   UNL     1      -6.085  15.023  21.169  0.00  0.00    +0.000 Cl
ATOM     13  C   UNL     1      -4.833  13.254  22.886  0.00  0.00    +0.000 A 
ATOM     14  C   UNL     1      -3.693  12.504  23.234  0.00  0.00    +0.000 A 
ATOM     15  C   UNL     1      -2.492  12.571  22.506  0.00  0.00    +0.000 A 
ATOM     16  O   UNL     1      -1.483  11.869  23.086  0.00  0.00    +0.000 OA
ATOM     17  C   UNL     1      -1.212  16.135  20.498  0.00  0.00    +0.000 C 
ATOM     18  C   UNL     1      -0.363  17.223  19.760  0.00  0.00    +0.000 C 
ATOM     19  C   UNL     1       0.308  17.865  21.004  0.00  0.00    +0.000 C 
ATOM     20  C   UNL     1      -1.359  17.539  18.602  0.00  0.00    +0.000 C 
ATOM     21  C   UNL     1       0.905  16.973  18.909  0.00  0.00    +0.000 C 
ATOM     22  C   UNL     1       1.273  15.547  18.814  0.00  0.00    +0.000 C 
ATOM     23  O   UNL     1       2.283  15.240  18.215  0.00  0.00    +0.000 OA
ENDROOT
BRANCH  13  24
ATOM     24  C   UNL     1      -6.034  13.069  23.739  0.00  0.00    +0.000 C 
ATOM     25  N   UNL     1      -6.567  14.126  24.403  0.00  0.00    +0.000 N 
ATOM     26  O   UNL     1      -6.525  11.936  23.904  0.00  0.00    +0.000 OA
ATOM     27  H   UNL     1      -6.289  15.083  24.229  0.00  0.00    +0.000 HD
ATOM     28  H   UNL     1      -7.425  13.969  24.917  0.00  0.00    +0.000 HD
ENDBRANCH  13  24
BRANCH   1  29
ATOM     29  C   UNL     1      -0.576   9.706  22.772  0.00  0.00    +0.000 C 
BRANCH  29  31
ATOM     30  C   UNL     1       1.201   8.399  21.569  0.00  0.00    +0.000 C 
ATOM     31  C   UNL     1      -0.282   8.709  21.652  0.00  0.00    +0.000 C 
ENDBRANCH  29  31
ENDBRANCH   1  29
TORSDOF 3
ENDMDL
MODEL 8
REMARK VINA RESULT:      -6.4      2.422      3.302
REMARK  Name = 
REMARK  7 active torsions:
REMARK  status: ('A' for Active; 'I' for Inactive)
REMARK    1  A    between atoms: C_1  and  C_2
REMARK    2  A    between atoms: C_2  and  C_3
REMARK    3  A    between atoms: C_3  and  C_4
REMARK    4  A    between atoms: C_7  and  C_8
REMARK    5  A    between atoms: C_16  and  C_17
REMARK    6  A    between atoms: C_24  and  C_25
REMARK    7  A    between atoms: C_24  and  C_26
REMARK                            x       y       z     vdW  Elec       q    Type
REMARK                         _______ _______ _______ _____ _____    ______ ____
ROOT
ATOM      1  C   UNL     1      -4.967  12.699  21.532  0.00  0.00    +0.000 C 
ATOM      2  C   UNL     1      -4.547  13.152  20.133  0.00  0.00    +0.000 C 
ATOM      3  C   UNL     1      -3.348  12.422  19.690  0.00  0.00    +0.000 A 
ATOM      4  C   UNL     1      -3.170  11.559  18.619  0.00  0.00    +0.000 A 
ATOM      5  C   UNL     1      -4.146  11.082  17.604  0.00  0.00    +0.000 C 
ATOM      6  C   UNL     1      -1.836  11.158  18.661  0.00  0.00    +0.000 A 
ATOM      7  C   UNL     1      -1.237  11.759  19.742  0.00  0.00    +0.000 A 
ATOM      8  N   UNL     1      -2.160  12.606  20.352  0.00  0.00    +0.000 N 
ATOM      9  C   UNL     1      -1.947  13.489  21.445  0.00  0.00    +0.000 A 
ATOM     10  C   UNL     1      -0.742  14.217  21.520  0.00  0.00    +0.000 A 
ATOM     11  C   UNL     1      -0.429  15.025  22.626  0.00  0.00    +0.000 A 
ATOM     12 CL   UNL     1       1.096  15.837  22.572  0.00  0.00    +0.000 Cl
ATOM     13  C   UNL     1      -1.347  15.150  23.667  0.00  0.00    +0.000 A 
ATOM     14  C   UNL     1      -2.574  14.465  23.561  0.00  0.00    +0.000 A 
ATOM     15  C   UNL     1      -2.894  13.653  22.459  0.00  0.00    +0.000 A 
ATOM     16  O   UNL     1      -4.068  12.986  22.617  0.00  0.00    +0.000 OA
ATOM     17  C   UNL     1       0.073  11.471  20.266  0.00  0.00    +0.000 C 
ATOM     18  C   UNL     1       0.804  10.463  19.318  0.00  0.00    +0.000 C 
ATOM     19  C   UNL     1       0.823   9.236  20.270  0.00  0.00    +0.000 C 
ATOM     20  C   UNL     1       1.750  11.474  18.600  0.00  0.00    +0.000 C 
ATOM     21  C   UNL     1       0.201   9.784  18.065  0.00  0.00    +0.000 C 
ATOM     22  C   UNL     1      -1.190  10.191  17.792  0.00  0.00    +0.000 C 
ATOM     23  O   UNL     1      -1.780   9.680  16.864  0.00  0.00    +0.000 OA
ENDROOT
BRANCH  13  24
ATOM     24  C   UNL     1      -1.156  15.982  24.882  0.00  0.00    +0.000 C 
ATOM     25  N   UNL     1      -1.733  17.208  24.964  0.00  0.00    +0.000 N 
ATOM     26  O   UNL     1      -0.419  15.592  25.807  0.00  0.00    +0.000 OA
ATOM     27  H   UNL     1      -2.427  17.536  24.305  0.00  0.00    +0.000 HD
ATOM     28  H   UNL     1      -1.635  17.711  25.838  0.00  0.00    +0.000 HD
ENDBRANCH  13  24
BRANCH   1  29
ATOM     29  C   UNL     1      -6.296  13.366  21.920  0.00  0.00    +0.000 C 
BRANCH  29  31
ATOM     30  C   UNL     1      -7.223  12.712  24.162  0.00  0.00    +0.000 C 
ATOM     31  C   UNL     1      -6.395  13.729  23.401  0.00  0.00    +0.000 C 
ENDBRANCH  29  31
ENDBRANCH   1  29
TORSDOF 3
ENDMDL
MODEL 9
REMARK VINA RESULT:      -6.3      9.233     11.644
REMARK  Name = 
REMARK  7 active torsions:
REMARK  status: ('A' for Active; 'I' for Inactive)
REMARK    1  A    between atoms: C_1  and  C_2
REMARK    2  A    between atoms: C_2  and  C_3
REMARK    3  A    between atoms: C_3  and  C_4
REMARK    4  A    between atoms: C_7  and  C_8
REMARK    5  A    between atoms: C_16  and  C_17
REMARK    6  A    between atoms: C_24  and  C_25
REMARK    7  A    between atoms: C_24  and  C_26
REMARK                            x       y       z     vdW  Elec       q    Type
REMARK                         _______ _______ _______ _____ _____    ______ ____
ROOT
ATOM      1  C   UNL     1       5.553  15.851  20.274  0.00  0.00    +0.000 C 
ATOM      2  C   UNL     1       6.939  16.493  20.356  0.00  0.00    +0.000 C 
ATOM      3  C   UNL     1       7.968  15.568  19.855  0.00  0.00    +0.000 A 
ATOM      4  C   UNL     1       8.829  15.688  18.774  0.00  0.00    +0.000 A 
ATOM      5  C   UNL     1       8.958  16.777  17.771  0.00  0.00    +0.000 C 
ATOM      6  C   UNL     1       9.599  14.525  18.761  0.00  0.00    +0.000 A 
ATOM      7  C   UNL     1       9.195  13.726  19.803  0.00  0.00    +0.000 A 
ATOM      8  N   UNL     1       8.220  14.402  20.533  0.00  0.00    +0.000 N 
ATOM      9  C   UNL     1       7.589  13.990  21.739  0.00  0.00    +0.000 A 
ATOM     10  C   UNL     1       8.354  13.350  22.735  0.00  0.00    +0.000 A 
ATOM     11  C   UNL     1       7.769  12.828  23.901  0.00  0.00    +0.000 A 
ATOM     12 CL   UNL     1       8.842  12.057  25.016  0.00  0.00    +0.000 Cl
ATOM     13  C   UNL     1       6.399  12.979  24.108  0.00  0.00    +0.000 A 
ATOM     14  C   UNL     1       5.648  13.669  23.136  0.00  0.00    +0.000 A 
ATOM     15  C   UNL     1       6.225  14.192  21.965  0.00  0.00    +0.000 A 
ATOM     16  O   UNL     1       5.305  14.705  21.106  0.00  0.00    +0.000 OA
ATOM     17  C   UNL     1       9.587  12.360  20.037  0.00  0.00    +0.000 C 
ATOM     18  C   UNL     1      10.687  11.948  19.004  0.00  0.00    +0.000 C 
ATOM     19  C   UNL     1       9.853  10.926  18.185  0.00  0.00    +0.000 C 
ATOM     20  C   UNL     1      11.928  12.048  19.944  0.00  0.00    +0.000 C 
ATOM     21  C   UNL     1      11.216  12.815  17.836  0.00  0.00    +0.000 C 
ATOM     22  C   UNL     1      10.589  14.150  17.768  0.00  0.00    +0.000 C 
ATOM     23  O   UNL     1      10.889  14.894  16.858  0.00  0.00    +0.000 OA
ENDROOT
BRANCH  13  24
ATOM     24  C   UNL     1       5.655  12.496  25.300  0.00  0.00    +0.000 C 
ATOM     25  N   UNL     1       5.596  11.167  25.573  0.00  0.00    +0.000 N 
ATOM     26  O   UNL     1       5.030  13.295  26.022  0.00  0.00    +0.000 OA
ATOM     27  H   UNL     1       6.166  10.481  25.096  0.00  0.00    +0.000 HD
ATOM     28  H   UNL     1       5.139  10.889  26.432  0.00  0.00    +0.000 HD
ENDBRANCH  13  24
BRANCH   1  29
ATOM     29  C   UNL     1       4.478  16.877  20.668  0.00  0.00    +0.000 C 
BRANCH  29  31
ATOM     30  C   UNL     1       3.702  16.269  18.357  0.00  0.00    +0.000 C 
ATOM     31  C   UNL     1       3.426  17.114  19.586  0.00  0.00    +0.000 C 
ENDBRANCH  29  31
ENDBRANCH   1  29
TORSDOF 3
ENDMDL
