MODEL 1
REMARK VINA RESULT:      -7.5      0.000      0.000
REMARK  Name = 
REMARK  8 active torsions:
REMARK  status: ('A' for Active; 'I' for Inactive)
REMARK    1  A    between atoms: C_1  and  O_2
REMARK    2  A    between atoms: O_2  and  C_3
REMARK    3  A    between atoms: C_6  and  C_7
REMARK    4  A    between atoms: C_7  and  N_8
REMARK    5  A    between atoms: N_8  and  C_9
REMARK    6  A    between atoms: N_8  and  C_21
REMARK    7  A    between atoms: C_9  and  C_10
REMARK    8  A    between atoms: C_24  and  C_25
REMARK                            x       y       z     vdW  Elec       q    Type
REMARK                         _______ _______ _______ _____ _____    ______ ____
ROOT
ATOM      1  N   UNL     1       0.824   9.931  19.554  0.00  0.00    +0.000 N 
ENDROOT
BRANCH   1   2
ATOM      2  C   UNL     1       1.341  11.214  19.498  0.00  0.00    +0.000 A 
ATOM      3  C   UNL     1       1.283  12.106  20.593  0.00  0.00    +0.000 A 
ATOM      4  C   UNL     1       1.851  13.382  20.507  0.00  0.00    +0.000 A 
ATOM      5  C   UNL     1       2.433  13.824  19.350  0.00  0.00    +0.000 A 
ATOM      6  C   UNL     1       2.501  12.987  18.243  0.00  0.00    +0.000 A 
ATOM      7  C   UNL     1       1.946  11.708  18.314  0.00  0.00    +0.000 A 
BRANCH   5   8
ATOM      8  C   UNL     1       3.001  15.147  19.280  0.00  0.00    +0.000 C 
ATOM      9  N   UNL     1       3.470  16.202  19.224  0.00  0.00    +0.000 NA
ENDBRANCH   5   8
ENDBRANCH   1   2
BRANCH   1  10
ATOM     10  C   UNL     1      -0.651   9.735  19.696  0.00  0.00    +0.000 C 
BRANCH  10  14
ATOM     11  C   UNL     1      -3.782  11.337  17.131  0.00  0.00    +0.000 A 
ATOM     12  C   UNL     1      -3.494  12.029  18.309  0.00  0.00    +0.000 A 
ATOM     13  C   UNL     1      -2.441  11.591  19.151  0.00  0.00    +0.000 A 
ATOM     14  C   UNL     1      -1.541  10.568  18.739  0.00  0.00    +0.000 A 
ATOM     15  C   UNL     1      -1.704  10.089  17.447  0.00  0.00    +0.000 A 
ATOM     16  C   UNL     1      -2.897  10.326  16.768  0.00  0.00    +0.000 A 
ATOM     17  F   UNL     1      -3.238   9.399  15.859  0.00  0.00    +0.000 F 
BRANCH  11  19
ATOM     18  C   UNL     1      -5.935  12.361  17.200  0.00  0.00    +0.000 C 
ATOM     19  O   UNL     1      -4.920  11.673  16.449  0.00  0.00    +0.000 OA
ENDBRANCH  11  19
ENDBRANCH  10  14
ENDBRANCH   1  10
BRANCH   1  20
ATOM     20  C   UNL     1       1.790   8.781  19.739  0.00  0.00    +0.000 C 
BRANCH  20  21
ATOM     21  C   UNL     1       2.327   8.033  18.491  0.00  0.00    +0.000 C 
ATOM     22  O   UNL     1       2.363   8.546  17.369  0.00  0.00    +0.000 OA
ATOM     23  N   UNL     1       2.720   6.680  18.689  0.00  0.00    +0.000 N 
ATOM     24  C   UNL     1       2.733   5.963  19.974  0.00  0.00    +0.000 C 
ATOM     25  C   UNL     1       2.522   4.445  19.859  0.00  0.00    +0.000 C 
ATOM     26  C   UNL     1       3.358   3.837  18.725  0.00  0.00    +0.000 C 
ATOM     27  C   UNL     1       3.220   4.631  17.426  0.00  0.00    +0.000 C 
ATOM     28  C   UNL     1       3.590   6.087  17.680  0.00  0.00    +0.000 C 
ATOM     29  C   UNL     1       3.114   2.311  18.567  0.00  0.00    +0.000 C 
ATOM     30  N   UNL     1       4.295   2.069  19.416  0.00  0.00    +0.000 NA
ATOM     31  C   UNL     1       4.813   3.408  19.077  0.00  0.00    +0.000 C 
ATOM     32  H   UNL     1       4.882   1.290  19.121  0.00  0.00    +0.000 HD
ENDBRANCH  20  21
ENDBRANCH   1  20
TORSDOF 7
ENDMDL
MODEL 2
REMARK VINA RESULT:      -7.5      2.783      5.251
REMARK  Name = 
REMARK  8 active torsions:
REMARK  status: ('A' for Active; 'I' for Inactive)
REMARK    1  A    between atoms: C_1  and  O_2
REMARK    2  A    between atoms: O_2  and  C_3
REMARK    3  A    between atoms: C_6  and  C_7
REMARK    4  A    between atoms: C_7  and  N_8
REMARK    5  A    between atoms: N_8  and  C_9
REMARK    6  A    between atoms: N_8  and  C_21
REMARK    7  A    between atoms: C_9  and  C_10
REMARK    8  A    between atoms: C_24  and  C_25
REMARK                            x       y       z     vdW  Elec       q    Type
REMARK                         _______ _______ _______ _____ _____    ______ ____
ROOT
ATOM      1  N   UNL     1       0.347  10.467  19.772  0.00  0.00    +0.000 N 
ENDROOT
BRANCH   1   2
ATOM      2  C   UNL     1      -0.861  10.797  19.181  0.00  0.00    +0.000 A 
ATOM      3  C   UNL     1      -1.265  10.271  17.932  0.00  0.00    +0.000 A 
ATOM      4  C   UNL     1      -2.510  10.601  17.386  0.00  0.00    +0.000 A 
ATOM      5  C   UNL     1      -3.353  11.477  18.017  0.00  0.00    +0.000 A 
ATOM      6  C   UNL     1      -2.992  12.029  19.240  0.00  0.00    +0.000 A 
ATOM      7  C   UNL     1      -1.755  11.705  19.802  0.00  0.00    +0.000 A 
BRANCH   5   8
ATOM      8  C   UNL     1      -4.626  11.812  17.431  0.00  0.00    +0.000 C 
ATOM      9  N   UNL     1      -5.649  12.066  16.957  0.00  0.00    +0.000 NA
ENDBRANCH   5   8
ENDBRANCH   1   2
BRANCH   1  10
ATOM     10  C   UNL     1       1.214  11.549  20.333  0.00  0.00    +0.000 C 
BRANCH  10  14
ATOM     11  C   UNL     1       2.713  15.130  18.365  0.00  0.00    +0.000 A 
ATOM     12  C   UNL     1       3.043  13.897  17.800  0.00  0.00    +0.000 A 
ATOM     13  C   UNL     1       2.530  12.700  18.360  0.00  0.00    +0.000 A 
ATOM     14  C   UNL     1       1.532  12.726  19.376  0.00  0.00    +0.000 A 
ATOM     15  C   UNL     1       1.040  13.976  19.722  0.00  0.00    +0.000 A 
ATOM     16  C   UNL     1       1.753  15.120  19.373  0.00  0.00    +0.000 A 
ATOM     17  F   UNL     1       1.598  16.171  20.193  0.00  0.00    +0.000 F 
BRANCH  11  19
ATOM     18  C   UNL     1       2.638  17.122  17.054  0.00  0.00    +0.000 C 
ATOM     19  O   UNL     1       3.377  16.241  17.918  0.00  0.00    +0.000 OA
ENDBRANCH  11  19
ENDBRANCH  10  14
ENDBRANCH   1  10
BRANCH   1  20
ATOM     20  C   UNL     1       0.869   9.058  19.590  0.00  0.00    +0.000 C 
BRANCH  20  21
ATOM     21  C   UNL     1       1.890   8.769  18.458  0.00  0.00    +0.000 C 
ATOM     22  O   UNL     1       2.033   9.510  17.482  0.00  0.00    +0.000 OA
ATOM     23  N   UNL     1       2.619   7.552  18.566  0.00  0.00    +0.000 N 
ATOM     24  C   UNL     1       2.545   6.595  19.681  0.00  0.00    +0.000 C 
ATOM     25  C   UNL     1       2.842   5.139  19.293  0.00  0.00    +0.000 C 
ATOM     26  C   UNL     1       4.070   5.031  18.376  0.00  0.00    +0.000 C 
ATOM     27  C   UNL     1       4.008   6.032  17.223  0.00  0.00    +0.000 C 
ATOM     28  C   UNL     1       3.843   7.440  17.781  0.00  0.00    +0.000 C 
ATOM     29  C   UNL     1       4.349   3.568  17.936  0.00  0.00    +0.000 C 
ATOM     30  N   UNL     1       5.310   3.453  19.050  0.00  0.00    +0.000 NA
ATOM     31  C   UNL     1       5.457   4.921  19.073  0.00  0.00    +0.000 C 
ATOM     32  H   UNL     1       6.159   2.935  18.829  0.00  0.00    +0.000 HD
ENDBRANCH  20  21
ENDBRANCH   1  20
TORSDOF 7
ENDMDL
MODEL 3
REMARK VINA RESULT:      -7.5      2.967      7.591
REMARK  Name = 
REMARK  8 active torsions:
REMARK  status: ('A' for Active; 'I' for Inactive)
REMARK    1  A    between atoms: C_1  and  O_2
REMARK    2  A    between atoms: O_2  and  C_3
REMARK    3  A    between atoms: C_6  and  C_7
REMARK    4  A    between atoms: C_7  and  N_8
REMARK    5  A    between atoms: N_8  and  C_9
REMARK    6  A    between atoms: N_8  and  C_21
REMARK    7  A    between atoms: C_9  and  C_10
REMARK    8  A    between atoms: C_24  and  C_25
REMARK                            x       y       z     vdW  Elec       q    Type
REMARK                         _______ _______ _______ _____ _____    ______ ____
ROOT
ATOM      1  N   UNL     1       1.027   9.746  19.555  0.00  0.00    +0.000 N 
ENDROOT
BRANCH   1   2
ATOM      2  C   UNL     1       1.754   8.639  19.151  0.00  0.00    +0.000 A 
ATOM      3  C   UNL     1       2.402   8.571  17.896  0.00  0.00    +0.000 A 
ATOM      4  C   UNL     1       3.158   7.449  17.541  0.00  0.00    +0.000 A 
ATOM      5  C   UNL     1       3.254   6.365  18.372  0.00  0.00    +0.000 A 
ATOM      6  C   UNL     1       2.623   6.382  19.610  0.00  0.00    +0.000 A 
ATOM      7  C   UNL     1       1.870   7.497  19.983  0.00  0.00    +0.000 A 
BRANCH   5   8
ATOM      8  C   UNL     1       4.029   5.214  17.981  0.00  0.00    +0.000 C 
ATOM      9  N   UNL     1       4.649   4.286  17.681  0.00  0.00    +0.000 NA
ENDBRANCH   5   8
ENDBRANCH   1   2
BRANCH   1  10
ATOM     10  C   UNL     1       0.406  10.637  18.527  0.00  0.00    +0.000 C 
BRANCH  10  14
ATOM     11  C   UNL     1      -3.812  11.020  17.525  0.00  0.00    +0.000 A 
ATOM     12  C   UNL     1      -3.061  10.087  16.809  0.00  0.00    +0.000 A 
ATOM     13  C   UNL     1      -1.697   9.873  17.135  0.00  0.00    +0.000 A 
ATOM     14  C   UNL     1      -1.116  10.450  18.299  0.00  0.00    +0.000 A 
ATOM     15  C   UNL     1      -1.973  11.159  19.129  0.00  0.00    +0.000 A 
ATOM     16  C   UNL     1      -3.207  11.586  18.643  0.00  0.00    +0.000 A 
ATOM     17  F   UNL     1      -3.692  12.704  19.204  0.00  0.00    +0.000 F 
BRANCH  11  19
ATOM     18  C   UNL     1      -6.151  11.148  17.977  0.00  0.00    +0.000 C 
ATOM     19  O   UNL     1      -5.060  11.336  17.059  0.00  0.00    +0.000 OA
ENDBRANCH  11  19
ENDBRANCH  10  14
ENDBRANCH   1  10
BRANCH   1  20
ATOM     20  C   UNL     1       1.112  10.164  21.007  0.00  0.00    +0.000 C 
BRANCH  20  21
ATOM     21  C   UNL     1      -0.159  10.090  21.893  0.00  0.00    +0.000 C 
ATOM     22  O   UNL     1      -0.656   9.022  22.261  0.00  0.00    +0.000 OA
ATOM     23  N   UNL     1      -0.777  11.332  22.209  0.00  0.00    +0.000 N 
ATOM     24  C   UNL     1      -0.277  12.665  21.839  0.00  0.00    +0.000 C 
ATOM     25  C   UNL     1      -1.371  13.732  21.673  0.00  0.00    +0.000 C 
ATOM     26  C   UNL     1      -2.401  13.676  22.810  0.00  0.00    +0.000 C 
ATOM     27  C   UNL     1      -2.891  12.251  23.065  0.00  0.00    +0.000 C 
ATOM     28  C   UNL     1      -1.696  11.346  23.342  0.00  0.00    +0.000 C 
ATOM     29  C   UNL     1      -3.539  14.717  22.625  0.00  0.00    +0.000 C 
ATOM     30  N   UNL     1      -2.790  15.639  23.500  0.00  0.00    +0.000 NA
ATOM     31  C   UNL     1      -2.074  14.494  24.093  0.00  0.00    +0.000 C 
ATOM     32  H   UNL     1      -3.366  16.175  24.148  0.00  0.00    +0.000 HD
ENDBRANCH  20  21
ENDBRANCH   1  20
TORSDOF 7
ENDMDL
MODEL 4
REMARK VINA RESULT:      -7.4      1.610      2.052
REMARK  Name = 
REMARK  8 active torsions:
REMARK  status: ('A' for Active; 'I' for Inactive)
REMARK    1  A    between atoms: C_1  and  O_2
REMARK    2  A    between atoms: O_2  and  C_3
REMARK    3  A    between atoms: C_6  and  C_7
REMARK    4  A    between atoms: C_7  and  N_8
REMARK    5  A    between atoms: N_8  and  C_9
REMARK    6  A    between atoms: N_8  and  C_21
REMARK    7  A    between atoms: C_9  and  C_10
REMARK    8  A    between atoms: C_24  and  C_25
REMARK                            x       y       z     vdW  Elec       q    Type
REMARK                         _______ _______ _______ _____ _____    ______ ____
ROOT
ATOM      1  N   UNL     1      -0.010  11.068  19.420  0.00  0.00    +0.000 N 
ENDROOT
BRANCH   1   2
ATOM      2  C   UNL     1       0.474  12.350  19.228  0.00  0.00    +0.000 A 
ATOM      3  C   UNL     1      -0.283  13.363  18.594  0.00  0.00    +0.000 A 
ATOM      4  C   UNL     1       0.230  14.657  18.452  0.00  0.00    +0.000 A 
ATOM      5  C   UNL     1       1.494  14.971  18.875  0.00  0.00    +0.000 A 
ATOM      6  C   UNL     1       2.280  14.004  19.491  0.00  0.00    +0.000 A 
ATOM      7  C   UNL     1       1.781  12.709  19.647  0.00  0.00    +0.000 A 
BRANCH   5   8
ATOM      8  C   UNL     1       2.006  16.307  18.707  0.00  0.00    +0.000 C 
ATOM      9  N   UNL     1       2.407  17.384  18.583  0.00  0.00    +0.000 NA
ENDBRANCH   5   8
ENDBRANCH   1   2
BRANCH   1  10
ATOM     10  C   UNL     1      -1.480  10.852  19.589  0.00  0.00    +0.000 C 
BRANCH  10  14
ATOM     11  C   UNL     1      -3.464  10.751  15.715  0.00  0.00    +0.000 A 
ATOM     12  C   UNL     1      -2.337   9.945  15.885  0.00  0.00    +0.000 A 
ATOM     13  C   UNL     1      -1.688   9.888  17.144  0.00  0.00    +0.000 A 
ATOM     14  C   UNL     1      -2.262  10.488  18.300  0.00  0.00    +0.000 A 
ATOM     15  C   UNL     1      -3.518  11.055  18.140  0.00  0.00    +0.000 A 
ATOM     16  C   UNL     1      -3.987  11.345  16.860  0.00  0.00    +0.000 A 
ATOM     17  F   UNL     1      -4.844  12.374  16.779  0.00  0.00    +0.000 F 
BRANCH  11  19
ATOM     18  C   UNL     1      -3.923   9.773  13.588  0.00  0.00    +0.000 C 
ATOM     19  O   UNL     1      -3.943  10.929  14.446  0.00  0.00    +0.000 OA
ENDBRANCH  11  19
ENDBRANCH  10  14
ENDBRANCH   1  10
BRANCH   1  20
ATOM     20  C   UNL     1       0.985   9.968  19.723  0.00  0.00    +0.000 C 
BRANCH  20  21
ATOM     21  C   UNL     1       1.721   9.269  18.550  0.00  0.00    +0.000 C 
ATOM     22  O   UNL     1       1.834   9.780  17.433  0.00  0.00    +0.000 OA
ATOM     23  N   UNL     1       2.210   7.959  18.808  0.00  0.00    +0.000 N 
ATOM     24  C   UNL     1       2.147   7.249  20.095  0.00  0.00    +0.000 C 
ATOM     25  C   UNL     1       2.089   5.718  19.978  0.00  0.00    +0.000 C 
ATOM     26  C   UNL     1       3.096   5.185  18.949  0.00  0.00    +0.000 C 
ATOM     27  C   UNL     1       3.031   5.960  17.633  0.00  0.00    +0.000 C 
ATOM     28  C   UNL     1       3.237   7.444  17.908  0.00  0.00    +0.000 C 
ATOM     29  C   UNL     1       3.010   3.643  18.785  0.00  0.00    +0.000 C 
ATOM     30  N   UNL     1       4.108   3.513  19.762  0.00  0.00    +0.000 NA
ATOM     31  C   UNL     1       4.536   4.893  19.464  0.00  0.00    +0.000 C 
ATOM     32  H   UNL     1       4.792   2.789  19.543  0.00  0.00    +0.000 HD
ENDBRANCH  20  21
ENDBRANCH   1  20
TORSDOF 7
ENDMDL
MODEL 5
REMARK VINA RESULT:      -7.3      1.373      1.827
REMARK  Name = 
REMARK  8 active torsions:
REMARK  status: ('A' for Active; 'I' for Inactive)
REMARK    1  A    between atoms: C_1  and  O_2
REMARK    2  A    between atoms: O_2  and  C_3
REMARK    3  A    between atoms: C_6  and  C_7
REMARK    4  A    between atoms: C_7  and  N_8
REMARK    5  A    between atoms: N_8  and  C_9
REMARK    6  A    between atoms: N_8  and  C_21
REMARK    7  A    between atoms: C_9  and  C_10
REMARK    8  A    between atoms: C_24  and  C_25
REMARK                            x       y       z     vdW  Elec       q    Type
REMARK                         _______ _______ _______ _____ _____    ______ ____
ROOT
ATOM      1  N   UNL     1       0.918  10.269  18.727  0.00  0.00    +0.000 N 
ENDROOT
BRANCH   1   2
ATOM      2  C   UNL     1       1.494  11.489  19.034  0.00  0.00    +0.000 A 
ATOM      3  C   UNL     1       1.309  12.125  20.284  0.00  0.00    +0.000 A 
ATOM      4  C   UNL     1       1.939  13.342  20.567  0.00  0.00    +0.000 A 
ATOM      5  C   UNL     1       2.712  13.977  19.633  0.00  0.00    +0.000 A 
ATOM      6  C   UNL     1       2.912  13.396  18.386  0.00  0.00    +0.000 A 
ATOM      7  C   UNL     1       2.295  12.178  18.089  0.00  0.00    +0.000 A 
BRANCH   5   8
ATOM      8  C   UNL     1       3.342  15.235  19.943  0.00  0.00    +0.000 C 
ATOM      9  N   UNL     1       3.835  16.252  20.186  0.00  0.00    +0.000 NA
ENDBRANCH   5   8
ENDBRANCH   1   2
BRANCH   1  10
ATOM     10  C   UNL     1      -0.471   9.969  19.193  0.00  0.00    +0.000 C 
BRANCH  10  14
ATOM     11  C   UNL     1      -4.162  11.402  17.384  0.00  0.00    +0.000 A 
ATOM     12  C   UNL     1      -3.759  11.992  18.583  0.00  0.00    +0.000 A 
ATOM     13  C   UNL     1      -2.532  11.611  19.185  0.00  0.00    +0.000 A 
ATOM     14  C   UNL     1      -1.603  10.774  18.505  0.00  0.00    +0.000 A 
ATOM     15  C   UNL     1      -1.929  10.424  17.203  0.00  0.00    +0.000 A 
ATOM     16  C   UNL     1      -3.241  10.568  16.756  0.00  0.00    +0.000 A 
ATOM     17  F   UNL     1      -3.623   9.710  15.798  0.00  0.00    +0.000 F 
BRANCH  11  19
ATOM     18  C   UNL     1      -6.481  11.562  17.918  0.00  0.00    +0.000 C 
ATOM     19  O   UNL     1      -5.432  11.652  16.939  0.00  0.00    +0.000 OA
ENDBRANCH  11  19
ENDBRANCH  10  14
ENDBRANCH   1  10
BRANCH   1  20
ATOM     20  C   UNL     1       1.809   9.181  18.165  0.00  0.00    +0.000 C 
BRANCH  20  21
ATOM     21  C   UNL     1       2.206   7.984  19.069  0.00  0.00    +0.000 C 
ATOM     22  O   UNL     1       1.761   7.832  20.210  0.00  0.00    +0.000 OA
ATOM     23  N   UNL     1       3.176   7.091  18.537  0.00  0.00    +0.000 N 
ATOM     24  C   UNL     1       3.771   7.159  17.193  0.00  0.00    +0.000 C 
ATOM     25  C   UNL     1       5.191   6.582  17.094  0.00  0.00    +0.000 C 
ATOM     26  C   UNL     1       5.316   5.241  17.832  0.00  0.00    +0.000 C 
ATOM     27  C   UNL     1       4.717   5.307  19.237  0.00  0.00    +0.000 C 
ATOM     28  C   UNL     1       3.268   5.770  19.150  0.00  0.00    +0.000 C 
ATOM     29  C   UNL     1       6.761   4.674  17.782  0.00  0.00    +0.000 C 
ATOM     30  N   UNL     1       6.365   3.866  16.613  0.00  0.00    +0.000 NA
ATOM     31  C   UNL     1       4.953   3.961  17.026  0.00  0.00    +0.000 C 
ATOM     32  H   UNL     1       6.750   2.922  16.595  0.00  0.00    +0.000 HD
ENDBRANCH  20  21
ENDBRANCH   1  20
TORSDOF 7
ENDMDL
MODEL 6
REMARK VINA RESULT:      -7.3      0.848      1.242
REMARK  Name = 
REMARK  8 active torsions:
REMARK  status: ('A' for Active; 'I' for Inactive)
REMARK    1  A    between atoms: C_1  and  O_2
REMARK    2  A    between atoms: O_2  and  C_3
REMARK    3  A    between atoms: C_6  and  C_7
REMARK    4  A    between atoms: C_7  and  N_8
REMARK    5  A    between atoms: N_8  and  C_9
REMARK    6  A    between atoms: N_8  and  C_21
REMARK    7  A    between atoms: C_9  and  C_10
REMARK    8  A    between atoms: C_24  and  C_25
REMARK                            x       y       z     vdW  Elec       q    Type
REMARK                         _______ _______ _______ _____ _____    ______ ____
ROOT
ATOM      1  N   UNL     1       0.893  10.439  19.525  0.00  0.00    +0.000 N 
ENDROOT
BRANCH   1   2
ATOM      2  C   UNL     1       1.335  11.738  19.345  0.00  0.00    +0.000 A 
ATOM      3  C   UNL     1       2.140  12.123  18.248  0.00  0.00    +0.000 A 
ATOM      4  C   UNL     1       2.535  13.455  18.083  0.00  0.00    +0.000 A 
ATOM      5  C   UNL     1       2.199  14.415  19.000  0.00  0.00    +0.000 A 
ATOM      6  C   UNL     1       1.420  14.080  20.101  0.00  0.00    +0.000 A 
ATOM      7  C   UNL     1       1.011  12.757  20.277  0.00  0.00    +0.000 A 
BRANCH   5   8
ATOM      8  C   UNL     1       2.627  15.779  18.816  0.00  0.00    +0.000 C 
ATOM      9  N   UNL     1       2.963  16.873  18.655  0.00  0.00    +0.000 NA
ENDBRANCH   5   8
ENDBRANCH   1   2
BRANCH   1  10
ATOM     10  C   UNL     1      -0.551  10.184  19.817  0.00  0.00    +0.000 C 
BRANCH  10  14
ATOM     11  C   UNL     1      -3.933  11.296  17.312  0.00  0.00    +0.000 A 
ATOM     12  C   UNL     1      -3.692  12.066  18.451  0.00  0.00    +0.000 A 
ATOM     13  C   UNL     1      -2.567  11.792  19.269  0.00  0.00    +0.000 A 
ATOM     14  C   UNL     1      -1.565  10.865  18.862  0.00  0.00    +0.000 A 
ATOM     15  C   UNL     1      -1.712  10.316  17.597  0.00  0.00    +0.000 A 
ATOM     16  C   UNL     1      -2.947  10.381  16.955  0.00  0.00    +0.000 A 
ATOM     17  F   UNL     1      -3.205   9.383  16.096  0.00  0.00    +0.000 F 
BRANCH  11  19
ATOM     18  C   UNL     1      -6.001  12.479  17.187  0.00  0.00    +0.000 C 
ATOM     19  O   UNL     1      -5.125  11.466  16.661  0.00  0.00    +0.000 OA
ENDBRANCH  11  19
ENDBRANCH  10  14
ENDBRANCH   1  10
BRANCH   1  20
ATOM     20  C   UNL     1       1.931   9.349  19.687  0.00  0.00    +0.000 C 
BRANCH  20  21
ATOM     21  C   UNL     1       2.146   8.331  18.537  0.00  0.00    +0.000 C 
ATOM     22  O   UNL     1       2.252   8.671  17.355  0.00  0.00    +0.000 OA
ATOM     23  N   UNL     1       2.149   6.957  18.905  0.00  0.00    +0.000 N 
ATOM     24  C   UNL     1       2.043   6.429  20.275  0.00  0.00    +0.000 C 
ATOM     25  C   UNL     1       1.401   5.036  20.373  0.00  0.00    +0.000 C 
ATOM     26  C   UNL     1       1.950   4.077  19.308  0.00  0.00    +0.000 C 
ATOM     27  C   UNL     1       1.958   4.713  17.918  0.00  0.00    +0.000 C 
ATOM     28  C   UNL     1       2.744   6.018  17.962  0.00  0.00    +0.000 C 
ATOM     29  C   UNL     1       1.270   2.681  19.365  0.00  0.00    +0.000 C 
ATOM     30  N   UNL     1       2.388   2.211  20.205  0.00  0.00    +0.000 NA
ATOM     31  C   UNL     1       3.242   3.289  19.673  0.00  0.00    +0.000 C 
ATOM     32  H   UNL     1       2.707   1.264  20.001  0.00  0.00    +0.000 HD
ENDBRANCH  20  21
ENDBRANCH   1  20
TORSDOF 7
ENDMDL
MODEL 7
REMARK VINA RESULT:      -7.2      4.191      9.139
REMARK  Name = 
REMARK  8 active torsions:
REMARK  status: ('A' for Active; 'I' for Inactive)
REMARK    1  A    between atoms: C_1  and  O_2
REMARK    2  A    between atoms: O_2  and  C_3
REMARK    3  A    between atoms: C_6  and  C_7
REMARK    4  A    between atoms: C_7  and  N_8
REMARK    5  A    between atoms: N_8  and  C_9
REMARK    6  A    between atoms: N_8  and  C_21
REMARK    7  A    between atoms: C_9  and  C_10
REMARK    8  A    between atoms: C_24  and  C_25
REMARK                            x       y       z     vdW  Elec       q    Type
REMARK                         _______ _______ _______ _____ _____    ______ ____
ROOT
ATOM      1  N   UNL     1      -0.910  11.030  19.970  0.00  0.00    +0.000 N 
ENDROOT
BRANCH   1   2
ATOM      2  C   UNL     1      -1.526  10.900  18.737  0.00  0.00    +0.000 A 
ATOM      3  C   UNL     1      -1.504  11.925  17.764  0.00  0.00    +0.000 A 
ATOM      4  C   UNL     1      -2.108  11.739  16.515  0.00  0.00    +0.000 A 
ATOM      5  C   UNL     1      -2.778  10.584  16.215  0.00  0.00    +0.000 A 
ATOM      6  C   UNL     1      -2.837   9.554  17.146  0.00  0.00    +0.000 A 
ATOM      7  C   UNL     1      -2.234   9.720  18.395  0.00  0.00    +0.000 A 
BRANCH   5   8
ATOM      8  C   UNL     1      -3.403  10.418  14.927  0.00  0.00    +0.000 C 
ATOM      9  N   UNL     1      -3.911  10.299  13.896  0.00  0.00    +0.000 NA
ENDBRANCH   5   8
ENDBRANCH   1   2
BRANCH   1  10
ATOM     10  C   UNL     1      -0.383   9.815  20.664  0.00  0.00    +0.000 C 
BRANCH  10  14
ATOM     11  C   UNL     1       2.579   7.296  18.708  0.00  0.00    +0.000 A 
ATOM     12  C   UNL     1       2.245   8.501  18.087  0.00  0.00    +0.000 A 
ATOM     13  C   UNL     1       1.335   9.392  18.710  0.00  0.00    +0.000 A 
ATOM     14  C   UNL     1       0.889   9.180  20.045  0.00  0.00    +0.000 A 
ATOM     15  C   UNL     1       1.454   8.108  20.720  0.00  0.00    +0.000 A 
ATOM     16  C   UNL     1       2.107   7.107  20.003  0.00  0.00    +0.000 A 
ATOM     17  F   UNL     1       2.086   5.888  20.563  0.00  0.00    +0.000 F 
BRANCH  11  19
ATOM     18  C   UNL     1       4.419   6.900  17.242  0.00  0.00    +0.000 C 
ATOM     19  O   UNL     1       3.305   6.383  17.991  0.00  0.00    +0.000 OA
ENDBRANCH  11  19
ENDBRANCH  10  14
ENDBRANCH   1  10
BRANCH   1  20
ATOM     20  C   UNL     1      -1.031  12.355  20.692  0.00  0.00    +0.000 C 
BRANCH  20  21
ATOM     21  C   UNL     1      -1.414  12.367  22.195  0.00  0.00    +0.000 C 
ATOM     22  O   UNL     1      -0.621  12.057  23.088  0.00  0.00    +0.000 OA
ATOM     23  N   UNL     1      -2.765  12.692  22.496  0.00  0.00    +0.000 N 
ATOM     24  C   UNL     1      -3.798  13.087  21.525  0.00  0.00    +0.000 C 
ATOM     25  C   UNL     1      -5.233  12.726  21.938  0.00  0.00    +0.000 C 
ATOM     26  C   UNL     1      -5.508  13.068  23.409  0.00  0.00    +0.000 C 
ATOM     27  C   UNL     1      -4.400  12.558  24.329  0.00  0.00    +0.000 C 
ATOM     28  C   UNL     1      -3.059  13.111  23.862  0.00  0.00    +0.000 C 
ATOM     29  C   UNL     1      -6.941  12.660  23.850  0.00  0.00    +0.000 C 
ATOM     30  N   UNL     1      -7.384  14.038  23.563  0.00  0.00    +0.000 NA
ATOM     31  C   UNL     1      -5.996  14.515  23.713  0.00  0.00    +0.000 C 
ATOM     32  H   UNL     1      -8.049  14.421  24.233  0.00  0.00    +0.000 HD
ENDBRANCH  20  21
ENDBRANCH   1  20
TORSDOF 7
ENDMDL
MODEL 8
REMARK VINA RESULT:      -7.2      3.048      7.612
REMARK  Name = 
REMARK  8 active torsions:
REMARK  status: ('A' for Active; 'I' for Inactive)
REMARK    1  A    between atoms: C_1  and  O_2
REMARK    2  A    between atoms: O_2  and  C_3
REMARK    3  A    between atoms: C_6  and  C_7
REMARK    4  A    between atoms: C_7  and  N_8
REMARK    5  A    between atoms: N_8  and  C_9
REMARK    6  A    between atoms: N_8  and  C_21
REMARK    7  A    between atoms: C_9  and  C_10
REMARK    8  A    between atoms: C_24  and  C_25
REMARK                            x       y       z     vdW  Elec       q    Type
REMARK                         _______ _______ _______ _____ _____    ______ ____
ROOT
ATOM      1  N   UNL     1       0.819   9.778  19.515  0.00  0.00    +0.000 N 
ENDROOT
BRANCH   1   2
ATOM      2  C   UNL     1       1.621   8.696  19.195  0.00  0.00    +0.000 A 
ATOM      3  C   UNL     1       2.299   8.591  17.959  0.00  0.00    +0.000 A 
ATOM      4  C   UNL     1       3.130   7.498  17.690  0.00  0.00    +0.000 A 
ATOM      5  C   UNL     1       3.273   6.476  18.589  0.00  0.00    +0.000 A 
ATOM      6  C   UNL     1       2.615   6.530  19.812  0.00  0.00    +0.000 A 
ATOM      7  C   UNL     1       1.788   7.617  20.100  0.00  0.00    +0.000 A 
BRANCH   5   8
ATOM      8  C   UNL     1       4.125   5.353  18.286  0.00  0.00    +0.000 C 
ATOM      9  N   UNL     1       4.800   4.445  18.052  0.00  0.00    +0.000 NA
ENDBRANCH   5   8
ENDBRANCH   1   2
BRANCH   1  10
ATOM     10  C   UNL     1       0.233  10.613  18.421  0.00  0.00    +0.000 C 
BRANCH  10  14
ATOM     11  C   UNL     1      -3.989  11.135  17.498  0.00  0.00    +0.000 A 
ATOM     12  C   UNL     1      -3.267  10.222  16.727  0.00  0.00    +0.000 A 
ATOM     13  C   UNL     1      -1.905   9.963  17.023  0.00  0.00    +0.000 A 
ATOM     14  C   UNL     1      -1.296  10.470  18.206  0.00  0.00    +0.000 A 
ATOM     15  C   UNL     1      -2.126  11.156  19.080  0.00  0.00    +0.000 A 
ATOM     16  C   UNL     1      -3.356  11.633  18.634  0.00  0.00    +0.000 A 
ATOM     17  F   UNL     1      -3.809  12.733  19.254  0.00  0.00    +0.000 F 
BRANCH  11  19
ATOM     18  C   UNL     1      -6.326  11.237  17.965  0.00  0.00    +0.000 C 
ATOM     19  O   UNL     1      -5.235  11.500  17.065  0.00  0.00    +0.000 OA
ENDBRANCH  11  19
ENDBRANCH  10  14
ENDBRANCH   1  10
BRANCH   1  20
ATOM     20  C   UNL     1       0.784  10.238  20.957  0.00  0.00    +0.000 C 
BRANCH  20  21
ATOM     21  C   UNL     1       0.859  11.755  21.271  0.00  0.00    +0.000 C 
ATOM     22  O   UNL     1       1.865  12.435  21.046  0.00  0.00    +0.000 OA
ATOM     23  N   UNL     1      -0.281  12.323  21.904  0.00  0.00    +0.000 N 
ATOM     24  C   UNL     1      -1.537  11.623  22.213  0.00  0.00    +0.000 C 
ATOM     25  C   UNL     1      -2.293  12.177  23.431  0.00  0.00    +0.000 C 
ATOM     26  C   UNL     1      -2.347  13.711  23.421  0.00  0.00    +0.000 C 
ATOM     27  C   UNL     1      -0.975  14.327  23.148  0.00  0.00    +0.000 C 
ATOM     28  C   UNL     1      -0.421  13.774  21.841  0.00  0.00    +0.000 C 
ATOM     29  C   UNL     1      -3.065  14.283  24.674  0.00  0.00    +0.000 C 
ATOM     30  N   UNL     1      -4.311  14.346  23.888  0.00  0.00    +0.000 NA
ATOM     31  C   UNL     1      -3.524  14.366  22.641  0.00  0.00    +0.000 C 
ATOM     32  H   UNL     1      -4.881  15.174  24.056  0.00  0.00    +0.000 HD
ENDBRANCH  20  21
ENDBRANCH   1  20
TORSDOF 7
ENDMDL
MODEL 9
REMARK VINA RESULT:      -7.1      2.972      5.528
REMARK  Name = 
REMARK  8 active torsions:
REMARK  status: ('A' for Active; 'I' for Inactive)
REMARK    1  A    between atoms: C_1  and  O_2
REMARK    2  A    between atoms: O_2  and  C_3
REMARK    3  A    between atoms: C_6  and  C_7
REMARK    4  A    between atoms: C_7  and  N_8
REMARK    5  A    between atoms: N_8  and  C_9
REMARK    6  A    between atoms: N_8  and  C_21
REMARK    7  A    between atoms: C_9  and  C_10
REMARK    8  A    between atoms: C_24  and  C_25
REMARK                            x       y       z     vdW  Elec       q    Type
REMARK                         _______ _______ _______ _____ _____    ______ ____
ROOT
ATOM      1  N   UNL     1       0.599  10.719  19.180  0.00  0.00    +0.000 N 
ENDROOT
BRANCH   1   2
ATOM      2  C   UNL     1      -0.731  10.846  18.819  0.00  0.00    +0.000 A 
ATOM      3  C   UNL     1      -1.297  10.135  17.736  0.00  0.00    +0.000 A 
ATOM      4  C   UNL     1      -2.656  10.264  17.428  0.00  0.00    +0.000 A 
ATOM      5  C   UNL     1      -3.466  11.116  18.129  0.00  0.00    +0.000 A 
ATOM      6  C   UNL     1      -2.950  11.845  19.194  0.00  0.00    +0.000 A 
ATOM      7  C   UNL     1      -1.597  11.723  19.519  0.00  0.00    +0.000 A 
BRANCH   5   8
ATOM      8  C   UNL     1      -4.860  11.242  17.786  0.00  0.00    +0.000 C 
ATOM      9  N   UNL     1      -5.977  11.359  17.512  0.00  0.00    +0.000 NA
ENDBRANCH   5   8
ENDBRANCH   1   2
BRANCH   1  10
ATOM     10  C   UNL     1       1.283  11.843  19.889  0.00  0.00    +0.000 C 
BRANCH  10  14
ATOM     11  C   UNL     1       2.467  15.732  18.332  0.00  0.00    +0.000 A 
ATOM     12  C   UNL     1       3.102  14.605  17.807  0.00  0.00    +0.000 A 
ATOM     13  C   UNL     1       2.712  13.309  18.229  0.00  0.00    +0.000 A 
ATOM     14  C   UNL     1       1.559  13.111  19.040  0.00  0.00    +0.000 A 
ATOM     15  C   UNL     1       0.803  14.239  19.322  0.00  0.00    +0.000 A 
ATOM     16  C   UNL     1       1.359  15.505  19.142  0.00  0.00    +0.000 A 
ATOM     17  F   UNL     1       0.879  16.465  19.947  0.00  0.00    +0.000 F 
BRANCH  11  19
ATOM     18  C   UNL     1       2.576  17.569  16.813  0.00  0.00    +0.000 C 
ATOM     19  O   UNL     1       2.998  16.961  18.047  0.00  0.00    +0.000 OA
ENDBRANCH  11  19
ENDBRANCH  10  14
ENDBRANCH   1  10
BRANCH   1  20
ATOM     20  C   UNL     1       1.386   9.559  18.607  0.00  0.00    +0.000 C 
BRANCH  20  21
ATOM     21  C   UNL     1       1.689   8.331  19.506  0.00  0.00    +0.000 C 
ATOM     22  O   UNL     1       1.263   8.226  20.660  0.00  0.00    +0.000 OA
ATOM     23  N   UNL     1       2.553   7.346  18.954  0.00  0.00    +0.000 N 
ATOM     24  C   UNL     1       3.114   7.353  17.593  0.00  0.00    +0.000 C 
ATOM     25  C   UNL     1       4.469   6.639  17.459  0.00  0.00    +0.000 C 
ATOM     26  C   UNL     1       4.483   5.295  18.201  0.00  0.00    +0.000 C 
ATOM     27  C   UNL     1       3.932   5.423  19.621  0.00  0.00    +0.000 C 
ATOM     28  C   UNL     1       2.533   6.024  19.570  0.00  0.00    +0.000 C 
ATOM     29  C   UNL     1       5.864   4.589  18.114  0.00  0.00    +0.000 C 
ATOM     30  N   UNL     1       5.360   3.821  16.961  0.00  0.00    +0.000 NA
ATOM     31  C   UNL     1       3.974   4.054  17.412  0.00  0.00    +0.000 C 
ATOM     32  H   UNL     1       5.650   2.844  16.939  0.00  0.00    +0.000 HD
ENDBRANCH  20  21
ENDBRANCH   1  20
TORSDOF 7
ENDMDL
