MODEL 1
REMARK VINA RESULT:      -7.8      0.000      0.000
REMARK  Name = 
REMARK  5 active torsions:
REMARK  status: ('A' for Active; 'I' for Inactive)
REMARK    1  A    between atoms: C_1  and  N_2
REMARK    2  A    between atoms: C_8  and  C_9
REMARK    3  A    between atoms: C_10  and  C_11
REMARK    4  A    between atoms: N_18  and  C_19
REMARK    5  A    between atoms: N_20  and  C_21
REMARK                            x       y       z     vdW  Elec       q    Type
REMARK                         _______ _______ _______ _____ _____    ______ ____
ROOT
ATOM      1  C   UNL     1      10.978  16.383  20.592  0.00  0.00    +0.000 C 
ATOM      2  N   UNL     1      10.776  15.141  19.869  0.00  0.00    +0.000 N 
ATOM      3  C   UNL     1      10.176  14.075  20.540  0.00  0.00    +0.000 A 
ATOM      4  O   UNL     1       9.807  14.132  21.710  0.00  0.00    +0.000 OA
ATOM      5  C   UNL     1      10.031  12.896  19.729  0.00  0.00    +0.000 A 
ATOM      6  C   UNL     1      10.441  12.841  18.426  0.00  0.00    +0.000 A 
ATOM      7  C   UNL     1      10.147  11.552  17.944  0.00  0.00    +0.000 A 
ATOM      8  C   UNL     1       9.554  10.818  18.965  0.00  0.00    +0.000 A 
ATOM      9  N   UNL     1       9.488  11.668  20.066  0.00  0.00    +0.000 N 
ATOM     10  C   UNL     1       8.952  11.402  21.388  0.00  0.00    +0.000 C 
ATOM     11  N   UNL     1      11.027  13.937  17.817  0.00  0.00    +0.000 N 
ATOM     12  C   UNL     1      11.476  13.926  16.436  0.00  0.00    +0.000 C 
ATOM     13  C   UNL     1      11.208  15.124  18.536  0.00  0.00    +0.000 A 
ATOM     14  O   UNL     1      11.730  16.116  18.016  0.00  0.00    +0.000 OA
ENDROOT
BRANCH   8  15
ATOM     15  C   UNL     1       9.071   9.474  19.001  0.00  0.00    +0.000 C 
ATOM     16  C   UNL     1       8.323   8.980  17.997  0.00  0.00    +0.000 C 
BRANCH  16  17
ATOM     17  C   UNL     1       7.764   7.618  17.926  0.00  0.00    +0.000 A 
ATOM     18  C   UNL     1       8.157   6.678  18.895  0.00  0.00    +0.000 A 
ATOM     19  C   UNL     1       7.704   5.357  18.840  0.00  0.00    +0.000 A 
ATOM     20  C   UNL     1       6.860   4.953  17.808  0.00  0.00    +0.000 A 
ATOM     21  C   UNL     1       6.477   5.874  16.835  0.00  0.00    +0.000 A 
ATOM     22 CL   UNL     1       5.451   5.372  15.548  0.00  0.00    +0.000 Cl
ATOM     23  C   UNL     1       6.927   7.196  16.886  0.00  0.00    +0.000 A 
ENDBRANCH  16  17
ENDBRANCH   8  15
TORSDOF 2
ENDMDL
MODEL 2
REMARK VINA RESULT:      -7.5      8.210      9.612
REMARK  Name = 
REMARK  5 active torsions:
REMARK  status: ('A' for Active; 'I' for Inactive)
REMARK    1  A    between atoms: C_1  and  N_2
REMARK    2  A    between atoms: C_8  and  C_9
REMARK    3  A    between atoms: C_10  and  C_11
REMARK    4  A    between atoms: N_18  and  C_19
REMARK    5  A    between atoms: N_20  and  C_21
REMARK                            x       y       z     vdW  Elec       q    Type
REMARK                         _______ _______ _______ _____ _____    ______ ____
ROOT
ATOM      1  C   UNL     1      -2.401  12.849  22.815  0.00  0.00    +0.000 C 
ATOM      2  N   UNL     1      -1.713  12.095  21.784  0.00  0.00    +0.000 N 
ATOM      3  C   UNL     1      -0.775  11.139  22.177  0.00  0.00    +0.000 A 
ATOM      4  O   UNL     1      -0.504  10.899  23.350  0.00  0.00    +0.000 OA
ATOM      5  C   UNL     1      -0.154  10.459  21.073  0.00  0.00    +0.000 A 
ATOM      6  C   UNL     1      -0.464  10.729  19.770  0.00  0.00    +0.000 A 
ATOM      7  C   UNL     1       0.324   9.887  18.963  0.00  0.00    +0.000 A 
ATOM      8  C   UNL     1       1.121   9.099  19.787  0.00  0.00    +0.000 A 
ATOM      9  N   UNL     1       0.811   9.466  21.094  0.00  0.00    +0.000 N 
ATOM     10  C   UNL     1       1.352   8.946  22.335  0.00  0.00    +0.000 C 
ATOM     11  N   UNL     1      -1.408  11.689  19.446  0.00  0.00    +0.000 N 
ATOM     12  C   UNL     1      -1.771  12.008  18.077  0.00  0.00    +0.000 C 
ATOM     13  C   UNL     1      -2.059  12.400  20.461  0.00  0.00    +0.000 A 
ATOM     14  O   UNL     1      -2.905  13.262  20.199  0.00  0.00    +0.000 OA
ENDROOT
BRANCH   8  15
ATOM     15  C   UNL     1       2.087   8.093  19.479  0.00  0.00    +0.000 C 
ATOM     16  C   UNL     1       2.225   7.625  18.224  0.00  0.00    +0.000 C 
BRANCH  16  17
ATOM     17  C   UNL     1       3.177   6.588  17.789  0.00  0.00    +0.000 A 
ATOM     18  C   UNL     1       4.343   6.986  17.112  0.00  0.00    +0.000 A 
ATOM     19  C   UNL     1       5.250   6.040  16.625  0.00  0.00    +0.000 A 
ATOM     20  C   UNL     1       4.998   4.681  16.798  0.00  0.00    +0.000 A 
ATOM     21  C   UNL     1       3.837   4.277  17.455  0.00  0.00    +0.000 A 
ATOM     22 CL   UNL     1       3.514   2.598  17.651  0.00  0.00    +0.000 Cl
ATOM     23  C   UNL     1       2.928   5.219  17.943  0.00  0.00    +0.000 A 
ENDBRANCH  16  17
ENDBRANCH   8  15
TORSDOF 2
ENDMDL
MODEL 3
REMARK VINA RESULT:      -7.2      8.384      9.531
REMARK  Name = 
REMARK  5 active torsions:
REMARK  status: ('A' for Active; 'I' for Inactive)
REMARK    1  A    between atoms: C_1  and  N_2
REMARK    2  A    between atoms: C_8  and  C_9
REMARK    3  A    between atoms: C_10  and  C_11
REMARK    4  A    between atoms: N_18  and  C_19
REMARK    5  A    between atoms: N_20  and  C_21
REMARK                            x       y       z     vdW  Elec       q    Type
REMARK                         _______ _______ _______ _____ _____    ______ ____
ROOT
ATOM      1  C   UNL     1      -2.154  12.382  22.774  0.00  0.00    +0.000 C 
ATOM      2  N   UNL     1      -1.492  11.765  21.641  0.00  0.00    +0.000 N 
ATOM      3  C   UNL     1      -0.526  10.789  21.889  0.00  0.00    +0.000 A 
ATOM      4  O   UNL     1      -0.210  10.421  23.017  0.00  0.00    +0.000 OA
ATOM      5  C   UNL     1       0.066  10.252  20.694  0.00  0.00    +0.000 A 
ATOM      6  C   UNL     1      -0.294  10.664  19.441  0.00  0.00    +0.000 A 
ATOM      7  C   UNL     1       0.478   9.936  18.517  0.00  0.00    +0.000 A 
ATOM      8  C   UNL     1       1.315   9.074  19.217  0.00  0.00    +0.000 A 
ATOM      9  N   UNL     1       1.046   9.282  20.567  0.00  0.00    +0.000 N 
ATOM     10  C   UNL     1       1.639   8.634  21.721  0.00  0.00    +0.000 C 
ATOM     11  N   UNL     1      -1.263  11.636  19.263  0.00  0.00    +0.000 N 
ATOM     12  C   UNL     1      -1.679  12.104  17.953  0.00  0.00    +0.000 C 
ATOM     13  C   UNL     1      -1.888  12.213  20.374  0.00  0.00    +0.000 A 
ATOM     14  O   UNL     1      -2.756  13.084  20.241  0.00  0.00    +0.000 OA
ENDROOT
BRANCH   8  15
ATOM     15  C   UNL     1       2.286   8.129  18.763  0.00  0.00    +0.000 C 
ATOM     16  C   UNL     1       1.914   6.911  18.325  0.00  0.00    +0.000 C 
BRANCH  16  17
ATOM     17  C   UNL     1       2.821   5.853  17.842  0.00  0.00    +0.000 A 
ATOM     18  C   UNL     1       2.343   4.533  17.783  0.00  0.00    +0.000 A 
ATOM     19  C   UNL     1       3.178   3.483  17.389  0.00  0.00    +0.000 A 
ATOM     20  C   UNL     1       4.508   3.738  17.061  0.00  0.00    +0.000 A 
ATOM     21  C   UNL     1       4.994   5.042  17.131  0.00  0.00    +0.000 A 
ATOM     22 CL   UNL     1       6.642   5.356  16.745  0.00  0.00    +0.000 Cl
ATOM     23  C   UNL     1       4.162   6.094  17.524  0.00  0.00    +0.000 A 
ENDBRANCH  16  17
ENDBRANCH   8  15
TORSDOF 2
ENDMDL
MODEL 4
REMARK VINA RESULT:      -7.1      7.517      8.953
REMARK  Name = 
REMARK  5 active torsions:
REMARK  status: ('A' for Active; 'I' for Inactive)
REMARK    1  A    between atoms: C_1  and  N_2
REMARK    2  A    between atoms: C_8  and  C_9
REMARK    3  A    between atoms: C_10  and  C_11
REMARK    4  A    between atoms: N_18  and  C_19
REMARK    5  A    between atoms: N_20  and  C_21
REMARK                            x       y       z     vdW  Elec       q    Type
REMARK                         _______ _______ _______ _____ _____    ______ ____
ROOT
ATOM      1  C   UNL     1      -0.382  14.465  21.577  0.00  0.00    +0.000 C 
ATOM      2  N   UNL     1      -0.073  13.071  21.321  0.00  0.00    +0.000 N 
ATOM      3  C   UNL     1       0.621  12.750  20.153  0.00  0.00    +0.000 A 
ATOM      4  O   UNL     1       0.988  13.585  19.332  0.00  0.00    +0.000 OA
ATOM      5  C   UNL     1       0.866  11.341  20.002  0.00  0.00    +0.000 A 
ATOM      6  C   UNL     1       0.458  10.416  20.922  0.00  0.00    +0.000 A 
ATOM      7  C   UNL     1       0.862   9.150  20.459  0.00  0.00    +0.000 A 
ATOM      8  C   UNL     1       1.521   9.309  19.245  0.00  0.00    +0.000 A 
ATOM      9  N   UNL     1       1.517  10.675  18.977  0.00  0.00    +0.000 N 
ATOM     10  C   UNL     1       2.079  11.379  17.839  0.00  0.00    +0.000 C 
ATOM     11  N   UNL     1      -0.225  10.801  22.063  0.00  0.00    +0.000 N 
ATOM     12  C   UNL     1      -0.677   9.856  23.068  0.00  0.00    +0.000 C 
ATOM     13  C   UNL     1      -0.508  12.153  22.287  0.00  0.00    +0.000 A 
ATOM     14  O   UNL     1      -1.117  12.523  23.297  0.00  0.00    +0.000 OA
ENDROOT
BRANCH   8  15
ATOM     15  C   UNL     1       2.121   8.355  18.368  0.00  0.00    +0.000 C 
ATOM     16  C   UNL     1       2.529   7.155  18.824  0.00  0.00    +0.000 C 
BRANCH  16  17
ATOM     17  C   UNL     1       3.165   6.097  18.019  0.00  0.00    +0.000 A 
ATOM     18  C   UNL     1       2.598   4.811  18.029  0.00  0.00    +0.000 A 
ATOM     19  C   UNL     1       3.194   3.756  17.331  0.00  0.00    +0.000 A 
ATOM     20  C   UNL     1       4.375   3.970  16.624  0.00  0.00    +0.000 A 
ATOM     21  C   UNL     1       4.952   5.238  16.621  0.00  0.00    +0.000 A 
ATOM     22 CL   UNL     1       6.422   5.500  15.763  0.00  0.00    +0.000 Cl
ATOM     23  C   UNL     1       4.359   6.295  17.316  0.00  0.00    +0.000 A 
ENDBRANCH  16  17
ENDBRANCH   8  15
TORSDOF 2
ENDMDL
MODEL 5
REMARK VINA RESULT:      -7.1      8.434     11.276
REMARK  Name = 
REMARK  5 active torsions:
REMARK  status: ('A' for Active; 'I' for Inactive)
REMARK    1  A    between atoms: C_1  and  N_2
REMARK    2  A    between atoms: C_8  and  C_9
REMARK    3  A    between atoms: C_10  and  C_11
REMARK    4  A    between atoms: N_18  and  C_19
REMARK    5  A    between atoms: N_20  and  C_21
REMARK                            x       y       z     vdW  Elec       q    Type
REMARK                         _______ _______ _______ _____ _____    ______ ____
ROOT
ATOM      1  C   UNL     1       5.060   3.512  16.916  0.00  0.00    +0.000 C 
ATOM      2  N   UNL     1       4.231   4.229  17.866  0.00  0.00    +0.000 N 
ATOM      3  C   UNL     1       3.940   5.570  17.611  0.00  0.00    +0.000 A 
ATOM      4  O   UNL     1       4.346   6.175  16.623  0.00  0.00    +0.000 OA
ATOM      5  C   UNL     1       3.118   6.180  18.621  0.00  0.00    +0.000 A 
ATOM      6  C   UNL     1       2.667   5.499  19.717  0.00  0.00    +0.000 A 
ATOM      7  C   UNL     1       1.898   6.393  20.485  0.00  0.00    +0.000 A 
ATOM      8  C   UNL     1       1.884   7.629  19.848  0.00  0.00    +0.000 A 
ATOM      9  N   UNL     1       2.644   7.479  18.691  0.00  0.00    +0.000 N 
ATOM     10  C   UNL     1       2.943   8.462  17.667  0.00  0.00    +0.000 C 
ATOM     11  N   UNL     1       2.989   4.167  19.910  0.00  0.00    +0.000 N 
ATOM     12  C   UNL     1       2.533   3.403  21.058  0.00  0.00    +0.000 C 
ATOM     13  C   UNL     1       3.788   3.498  18.976  0.00  0.00    +0.000 A 
ATOM     14  O   UNL     1       4.091   2.308  19.126  0.00  0.00    +0.000 OA
ENDROOT
BRANCH   8  15
ATOM     15  C   UNL     1       1.258   8.863  20.202  0.00  0.00    +0.000 C 
ATOM     16  C   UNL     1       0.311   8.911  21.158  0.00  0.00    +0.000 C 
BRANCH  16  17
ATOM     17  C   UNL     1      -0.408  10.119  21.602  0.00  0.00    +0.000 A 
ATOM     18  C   UNL     1      -0.856  10.185  22.932  0.00  0.00    +0.000 A 
ATOM     19  C   UNL     1      -1.594  11.281  23.389  0.00  0.00    +0.000 A 
ATOM     20  C   UNL     1      -1.906  12.321  22.518  0.00  0.00    +0.000 A 
ATOM     21  C   UNL     1      -1.478  12.258  21.193  0.00  0.00    +0.000 A 
ATOM     22 CL   UNL     1      -1.880  13.533  20.109  0.00  0.00    +0.000 Cl
ATOM     23  C   UNL     1      -0.740  11.165  20.732  0.00  0.00    +0.000 A 
ENDBRANCH  16  17
ENDBRANCH   8  15
TORSDOF 2
ENDMDL
MODEL 6
REMARK VINA RESULT:      -7.1      8.692     11.655
REMARK  Name = 
REMARK  5 active torsions:
REMARK  status: ('A' for Active; 'I' for Inactive)
REMARK    1  A    between atoms: C_1  and  N_2
REMARK    2  A    between atoms: C_8  and  C_9
REMARK    3  A    between atoms: C_10  and  C_11
REMARK    4  A    between atoms: N_18  and  C_19
REMARK    5  A    between atoms: N_20  and  C_21
REMARK                            x       y       z     vdW  Elec       q    Type
REMARK                         _______ _______ _______ _____ _____    ______ ____
ROOT
ATOM      1  C   UNL     1       4.220   2.508  17.429  0.00  0.00    +0.000 C 
ATOM      2  N   UNL     1       3.531   3.407  18.335  0.00  0.00    +0.000 N 
ATOM      3  C   UNL     1       3.505   4.767  18.025  0.00  0.00    +0.000 A 
ATOM      4  O   UNL     1       4.031   5.244  17.024  0.00  0.00    +0.000 OA
ATOM      5  C   UNL     1       2.800   5.562  18.995  0.00  0.00    +0.000 A 
ATOM      6  C   UNL     1       2.213   5.024  20.106  0.00  0.00    +0.000 A 
ATOM      7  C   UNL     1       1.618   6.078  20.824  0.00  0.00    +0.000 A 
ATOM      8  C   UNL     1       1.848   7.267  20.141  0.00  0.00    +0.000 A 
ATOM      9  N   UNL     1       2.582   6.929  19.007  0.00  0.00    +0.000 N 
ATOM     10  C   UNL     1       3.076   7.796  17.954  0.00  0.00    +0.000 C 
ATOM     11  N   UNL     1       2.272   3.663  20.354  0.00  0.00    +0.000 N 
ATOM     12  C   UNL     1       1.663   3.047  21.519  0.00  0.00    +0.000 C 
ATOM     13  C   UNL     1       2.942   2.818  19.462  0.00  0.00    +0.000 A 
ATOM     14  O   UNL     1       3.010   1.600  19.662  0.00  0.00    +0.000 OA
ENDROOT
BRANCH   8  15
ATOM     15  C   UNL     1       1.465   8.611  20.436  0.00  0.00    +0.000 C 
ATOM     16  C   UNL     1       0.592   8.882  21.426  0.00  0.00    +0.000 C 
BRANCH  16  17
ATOM     17  C   UNL     1       0.117  10.221  21.816  0.00  0.00    +0.000 A 
ATOM     18  C   UNL     1      -0.830  10.325  22.849  0.00  0.00    +0.000 A 
ATOM     19  C   UNL     1      -1.359  11.565  23.219  0.00  0.00    +0.000 A 
ATOM     20  C   UNL     1      -0.956  12.719  22.552  0.00  0.00    +0.000 A 
ATOM     21  C   UNL     1      -0.028  12.624  21.516  0.00  0.00    +0.000 A 
ATOM     22 CL   UNL     1       0.456  14.047  20.677  0.00  0.00    +0.000 Cl
ATOM     23  C   UNL     1       0.503  11.387  21.144  0.00  0.00    +0.000 A 
ENDBRANCH  16  17
ENDBRANCH   8  15
TORSDOF 2
ENDMDL
MODEL 7
REMARK VINA RESULT:      -7.0      7.319      8.269
REMARK  Name = 
REMARK  5 active torsions:
REMARK  status: ('A' for Active; 'I' for Inactive)
REMARK    1  A    between atoms: C_1  and  N_2
REMARK    2  A    between atoms: C_8  and  C_9
REMARK    3  A    between atoms: C_10  and  C_11
REMARK    4  A    between atoms: N_18  and  C_19
REMARK    5  A    between atoms: N_20  and  C_21
REMARK                            x       y       z     vdW  Elec       q    Type
REMARK                         _______ _______ _______ _____ _____    ______ ____
ROOT
ATOM      1  C   UNL     1      -0.861  15.570  19.731  0.00  0.00    +0.000 C 
ATOM      2  N   UNL     1       0.019  14.499  19.301  0.00  0.00    +0.000 N 
ATOM      3  C   UNL     1      -0.502  13.207  19.220  0.00  0.00    +0.000 A 
ATOM      4  O   UNL     1      -1.667  12.928  19.489  0.00  0.00    +0.000 OA
ATOM      5  C   UNL     1       0.459  12.228  18.789  0.00  0.00    +0.000 A 
ATOM      6  C   UNL     1       1.754  12.546  18.487  0.00  0.00    +0.000 A 
ATOM      7  C   UNL     1       2.405  11.359  18.105  0.00  0.00    +0.000 A 
ATOM      8  C   UNL     1       1.495  10.310  18.177  0.00  0.00    +0.000 A 
ATOM      9  N   UNL     1       0.292  10.867  18.602  0.00  0.00    +0.000 N 
ATOM     10  C   UNL     1      -0.981  10.210  18.833  0.00  0.00    +0.000 C 
ATOM     11  N   UNL     1       2.207  13.851  18.586  0.00  0.00    +0.000 N 
ATOM     12  C   UNL     1       3.572  14.237  18.274  0.00  0.00    +0.000 C 
ATOM     13  C   UNL     1       1.337  14.865  19.000  0.00  0.00    +0.000 A 
ATOM     14  O   UNL     1       1.718  16.037  19.098  0.00  0.00    +0.000 OA
ENDROOT
BRANCH   8  15
ATOM     15  C   UNL     1       1.642   8.916  17.899  0.00  0.00    +0.000 C 
ATOM     16  C   UNL     1       2.796   8.275  18.163  0.00  0.00    +0.000 C 
BRANCH  16  17
ATOM     17  C   UNL     1       3.067   6.847  17.914  0.00  0.00    +0.000 A 
ATOM     18  C   UNL     1       4.263   6.493  17.266  0.00  0.00    +0.000 A 
ATOM     19  C   UNL     1       4.543   5.159  16.952  0.00  0.00    +0.000 A 
ATOM     20  C   UNL     1       3.623   4.162  17.270  0.00  0.00    +0.000 A 
ATOM     21  C   UNL     1       2.428   4.507  17.899  0.00  0.00    +0.000 A 
ATOM     22 CL   UNL     1       1.282   3.278  18.274  0.00  0.00    +0.000 Cl
ATOM     23  C   UNL     1       2.145   5.838  18.215  0.00  0.00    +0.000 A 
ENDBRANCH  16  17
ENDBRANCH   8  15
TORSDOF 2
ENDMDL
MODEL 8
REMARK VINA RESULT:      -7.0      7.649      8.562
REMARK  Name = 
REMARK  5 active torsions:
REMARK  status: ('A' for Active; 'I' for Inactive)
REMARK    1  A    between atoms: C_1  and  N_2
REMARK    2  A    between atoms: C_8  and  C_9
REMARK    3  A    between atoms: C_10  and  C_11
REMARK    4  A    between atoms: N_18  and  C_19
REMARK    5  A    between atoms: N_20  and  C_21
REMARK                            x       y       z     vdW  Elec       q    Type
REMARK                         _______ _______ _______ _____ _____    ______ ____
ROOT
ATOM      1  C   UNL     1      -0.967  11.015  22.690  0.00  0.00    +0.000 C 
ATOM      2  N   UNL     1      -0.210  10.625  21.516  0.00  0.00    +0.000 N 
ATOM      3  C   UNL     1       0.317   9.333  21.467  0.00  0.00    +0.000 A 
ATOM      4  O   UNL     1       0.172   8.508  22.364  0.00  0.00    +0.000 OA
ATOM      5  C   UNL     1       1.051   9.060  20.261  0.00  0.00    +0.000 A 
ATOM      6  C   UNL     1       1.206   9.982  19.265  0.00  0.00    +0.000 A 
ATOM      7  C   UNL     1       1.970   9.383  18.246  0.00  0.00    +0.000 A 
ATOM      8  C   UNL     1       2.282   8.083  18.630  0.00  0.00    +0.000 A 
ATOM      9  N   UNL     1       1.703   7.898  19.883  0.00  0.00    +0.000 N 
ATOM     10  C   UNL     1       1.721   6.718  20.726  0.00  0.00    +0.000 C 
ATOM     11  N   UNL     1       0.654  11.247  19.374  0.00  0.00    +0.000 N 
ATOM     12  C   UNL     1       0.790  12.259  18.341  0.00  0.00    +0.000 C 
ATOM     13  C   UNL     1      -0.074  11.597  20.516  0.00  0.00    +0.000 A 
ATOM     14  O   UNL     1      -0.576  12.720  20.638  0.00  0.00    +0.000 OA
ENDROOT
BRANCH   8  15
ATOM     15  C   UNL     1       3.027   7.059  17.969  0.00  0.00    +0.000 C 
ATOM     16  C   UNL     1       4.371   7.113  17.903  0.00  0.00    +0.000 C 
BRANCH  16  17
ATOM     17  C   UNL     1       5.244   6.124  17.245  0.00  0.00    +0.000 A 
ATOM     18  C   UNL     1       6.400   5.694  17.917  0.00  0.00    +0.000 A 
ATOM     19  C   UNL     1       7.293   4.803  17.314  0.00  0.00    +0.000 A 
ATOM     20  C   UNL     1       7.048   4.340  16.024  0.00  0.00    +0.000 A 
ATOM     21  C   UNL     1       5.911   4.772  15.344  0.00  0.00    +0.000 A 
ATOM     22 CL   UNL     1       5.617   4.216  13.742  0.00  0.00    +0.000 Cl
ATOM     23  C   UNL     1       5.016   5.662  15.943  0.00  0.00    +0.000 A 
ENDBRANCH  16  17
ENDBRANCH   8  15
TORSDOF 2
ENDMDL
MODEL 9
REMARK VINA RESULT:      -6.9      8.652     11.075
REMARK  Name = 
REMARK  5 active torsions:
REMARK  status: ('A' for Active; 'I' for Inactive)
REMARK    1  A    between atoms: C_1  and  N_2
REMARK    2  A    between atoms: C_8  and  C_9
REMARK    3  A    between atoms: C_10  and  C_11
REMARK    4  A    between atoms: N_18  and  C_19
REMARK    5  A    between atoms: N_20  and  C_21
REMARK                            x       y       z     vdW  Elec       q    Type
REMARK                         _______ _______ _______ _____ _____    ______ ____
ROOT
ATOM      1  C   UNL     1       4.285   1.756  17.247  0.00  0.00    +0.000 C 
ATOM      2  N   UNL     1       3.992   3.128  17.618  0.00  0.00    +0.000 N 
ATOM      3  C   UNL     1       3.137   3.353  18.698  0.00  0.00    +0.000 A 
ATOM      4  O   UNL     1       2.623   2.452  19.355  0.00  0.00    +0.000 OA
ATOM      5  C   UNL     1       2.915   4.748  18.971  0.00  0.00    +0.000 A 
ATOM      6  C   UNL     1       3.493   5.746  18.238  0.00  0.00    +0.000 A 
ATOM      7  C   UNL     1       3.062   6.972  18.776  0.00  0.00    +0.000 A 
ATOM      8  C   UNL     1       2.211   6.714  19.846  0.00  0.00    +0.000 A 
ATOM      9  N   UNL     1       2.132   5.328  19.954  0.00  0.00    +0.000 N 
ATOM     10  C   UNL     1       1.384   4.534  20.910  0.00  0.00    +0.000 C 
ATOM     11  N   UNL     1       4.336   5.454  17.179  0.00  0.00    +0.000 N 
ATOM     12  C   UNL     1       4.974   6.480  16.374  0.00  0.00    +0.000 C 
ATOM     13  C   UNL     1       4.604   4.122  16.844  0.00  0.00    +0.000 A 
ATOM     14  O   UNL     1       5.352   3.836  15.902  0.00  0.00    +0.000 OA
ENDROOT
BRANCH   8  15
ATOM     15  C   UNL     1       1.510   7.596  20.725  0.00  0.00    +0.000 C 
ATOM     16  C   UNL     1       0.993   8.755  20.275  0.00  0.00    +0.000 C 
BRANCH  16  17
ATOM     17  C   UNL     1       0.259   9.744  21.085  0.00  0.00    +0.000 A 
ATOM     18  C   UNL     1      -0.048   9.427  22.419  0.00  0.00    +0.000 A 
ATOM     19  C   UNL     1      -0.793  10.303  23.214  0.00  0.00    +0.000 A 
ATOM     20  C   UNL     1      -1.253  11.505  22.680  0.00  0.00    +0.000 A 
ATOM     21  C   UNL     1      -0.967  11.821  21.354  0.00  0.00    +0.000 A 
ATOM     22 CL   UNL     1      -1.552  13.296  20.687  0.00  0.00    +0.000 Cl
ATOM     23  C   UNL     1      -0.222  10.948  20.556  0.00  0.00    +0.000 A 
ENDBRANCH  16  17
ENDBRANCH   8  15
TORSDOF 2
ENDMDL
