MODEL 1
REMARK VINA RESULT:      -6.7      0.000      0.000
REMARK  Name = 
REMARK  6 active torsions:
REMARK  status: ('A' for Active; 'I' for Inactive)
REMARK    1  A    between atoms: C_1  and  C_2
REMARK    2  A    between atoms: C_5  and  C_6
REMARK    3  A    between atoms: C_11  and  C_12
REMARK    4  A    between atoms: N_17  and  C_18
REMARK    5  A    between atoms: C_18  and  C_19
REMARK    6  A    between atoms: C_19  and  O_21
REMARK                            x       y       z     vdW  Elec       q    Type
REMARK                         _______ _______ _______ _____ _____    ______ ____
ROOT
ATOM      1  C   UNL     1       1.837  11.101  17.859  0.00  0.00    +0.000 C 
ATOM      2  C   UNL     1       1.366  10.577  19.191  0.00  0.00    +0.000 A 
ATOM      3  C   UNL     1       0.786  11.477  20.090  0.00  0.00    +0.000 A 
ATOM      4  C   UNL     1       0.330  11.039  21.326  0.00  0.00    +0.000 A 
ATOM      5  C   UNL     1       0.457   9.692  21.691  0.00  0.00    +0.000 A 
ATOM      6  C   UNL     1      -0.074   9.245  23.030  0.00  0.00    +0.000 C 
ATOM      7  C   UNL     1       1.042   8.763  20.821  0.00  0.00    +0.000 A 
ATOM      8  N   UNL     1       1.157   7.479  21.207  0.00  0.00    +0.000 NA
ATOM      9  C   UNL     1       1.677   6.585  20.339  0.00  0.00    +0.000 A 
ATOM     10 CL   UNL     1       1.740   4.988  20.981  0.00  0.00    +0.000 Cl
ATOM     11  C   UNL     1       2.111   6.888  19.054  0.00  0.00    +0.000 A 
ATOM     12  C   UNL     1       2.024   8.229  18.676  0.00  0.00    +0.000 A 
ATOM     13  C   UNL     1       1.487   9.206  19.549  0.00  0.00    +0.000 A 
ENDROOT
BRANCH  11  14
ATOM     14  C   UNL     1       2.556   5.873  18.083  0.00  0.00    +0.000 C 
ATOM     15  C   UNL     1       3.825   5.449  17.986  0.00  0.00    +0.000 C 
ATOM     16  S   UNL     1       5.150   5.946  18.966  0.00  0.00    +0.000 S 
ATOM     17  C   UNL     1       6.322   5.031  18.030  0.00  0.00    +0.000 C 
ATOM     18  S   UNL     1       7.947   5.047  18.398  0.00  0.00    +0.000 S 
ATOM     19  N   UNL     1       5.683   4.368  17.003  0.00  0.00    +0.000 N 
ATOM     20  C   UNL     1       4.306   4.485  16.961  0.00  0.00    +0.000 C 
ATOM     21  O   UNL     1       3.586   3.830  16.212  0.00  0.00    +0.000 OA
BRANCH  19  22
ATOM     22  C   UNL     1       6.365   3.582  15.973  0.00  0.00    +0.000 C 
BRANCH  22  23
ATOM     23  C   UNL     1       6.599   4.363  14.690  0.00  0.00    +0.000 C 
ATOM     24  O   UNL     1       7.492   5.188  14.551  0.00  0.00    +0.000 OA
BRANCH  23  25
ATOM     25  O   UNL     1       5.681   4.132  13.721  0.00  0.00    +0.000 OA
ATOM     26  H   UNL     1       5.003   4.842  13.618  0.00  0.00    +0.000 HD
ENDBRANCH  23  25
ENDBRANCH  22  23
ENDBRANCH  19  22
ENDBRANCH  11  14
TORSDOF 4
ENDMDL
MODEL 2
REMARK VINA RESULT:      -6.5      2.923      3.866
REMARK  Name = 
REMARK  6 active torsions:
REMARK  status: ('A' for Active; 'I' for Inactive)
REMARK    1  A    between atoms: C_1  and  C_2
REMARK    2  A    between atoms: C_5  and  C_6
REMARK    3  A    between atoms: C_11  and  C_12
REMARK    4  A    between atoms: N_17  and  C_18
REMARK    5  A    between atoms: C_18  and  C_19
REMARK    6  A    between atoms: C_19  and  O_21
REMARK                            x       y       z     vdW  Elec       q    Type
REMARK                         _______ _______ _______ _____ _____    ______ ____
ROOT
ATOM      1  C   UNL     1      -1.517  10.006  17.308  0.00  0.00    +0.000 C 
ATOM      2  C   UNL     1      -1.171  10.885  18.481  0.00  0.00    +0.000 A 
ATOM      3  C   UNL     1      -1.642  12.202  18.484  0.00  0.00    +0.000 A 
ATOM      4  C   UNL     1      -1.355  13.047  19.547  0.00  0.00    +0.000 A 
ATOM      5  C   UNL     1      -0.579  12.595  20.624  0.00  0.00    +0.000 A 
ATOM      6  C   UNL     1      -0.310  13.531  21.774  0.00  0.00    +0.000 C 
ATOM      7  C   UNL     1      -0.081  11.285  20.650  0.00  0.00    +0.000 A 
ATOM      8  N   UNL     1       0.668  10.886  21.695  0.00  0.00    +0.000 NA
ATOM      9  C   UNL     1       1.099   9.607  21.732  0.00  0.00    +0.000 A 
ATOM     10 CL   UNL     1       2.029   9.255  23.138  0.00  0.00    +0.000 Cl
ATOM     11  C   UNL     1       0.827   8.651  20.762  0.00  0.00    +0.000 A 
ATOM     12  C   UNL     1       0.082   9.084  19.663  0.00  0.00    +0.000 A 
ATOM     13  C   UNL     1      -0.393  10.414  19.575  0.00  0.00    +0.000 A 
ENDROOT
BRANCH  11  14
ATOM     14  C   UNL     1       1.202   7.231  20.888  0.00  0.00    +0.000 C 
ATOM     15  C   UNL     1       2.079   6.624  20.075  0.00  0.00    +0.000 C 
ATOM     16  S   UNL     1       2.957   7.352  18.786  0.00  0.00    +0.000 S 
ATOM     17  C   UNL     1       3.656   5.827  18.261  0.00  0.00    +0.000 C 
ATOM     18  S   UNL     1       4.675   5.733  16.947  0.00  0.00    +0.000 S 
ATOM     19  N   UNL     1       3.213   4.806  19.076  0.00  0.00    +0.000 N 
ATOM     20  C   UNL     1       2.409   5.175  20.138  0.00  0.00    +0.000 C 
ATOM     21  O   UNL     1       2.070   4.410  21.037  0.00  0.00    +0.000 OA
BRANCH  19  22
ATOM     22  C   UNL     1       3.524   3.389  18.874  0.00  0.00    +0.000 C 
BRANCH  22  23
ATOM     23  C   UNL     1       2.464   2.660  18.065  0.00  0.00    +0.000 C 
ATOM     24  O   UNL     1       1.919   3.134  17.076  0.00  0.00    +0.000 OA
BRANCH  23  25
ATOM     25  O   UNL     1       2.104   1.458  18.573  0.00  0.00    +0.000 OA
ATOM     26  H   UNL     1       2.858   0.882  18.844  0.00  0.00    +0.000 HD
ENDBRANCH  23  25
ENDBRANCH  22  23
ENDBRANCH  19  22
ENDBRANCH  11  14
TORSDOF 4
ENDMDL
MODEL 3
REMARK VINA RESULT:      -6.4      4.081      8.340
REMARK  Name = 
REMARK  6 active torsions:
REMARK  status: ('A' for Active; 'I' for Inactive)
REMARK    1  A    between atoms: C_1  and  C_2
REMARK    2  A    between atoms: C_5  and  C_6
REMARK    3  A    between atoms: C_11  and  C_12
REMARK    4  A    between atoms: N_17  and  C_18
REMARK    5  A    between atoms: C_18  and  C_19
REMARK    6  A    between atoms: C_19  and  O_21
REMARK                            x       y       z     vdW  Elec       q    Type
REMARK                         _______ _______ _______ _____ _____    ______ ____
ROOT
ATOM      1  C   UNL     1       4.451   2.919  12.060  0.00  0.00    +0.000 C 
ATOM      2  C   UNL     1       5.659   3.761  12.378  0.00  0.00    +0.000 A 
ATOM      3  C   UNL     1       6.371   4.327  11.315  0.00  0.00    +0.000 A 
ATOM      4  C   UNL     1       7.486   5.117  11.559  0.00  0.00    +0.000 A 
ATOM      5  C   UNL     1       7.920   5.345  12.873  0.00  0.00    +0.000 A 
ATOM      6  C   UNL     1       9.119   6.229  13.102  0.00  0.00    +0.000 C 
ATOM      7  C   UNL     1       7.239   4.785  13.962  0.00  0.00    +0.000 A 
ATOM      8  N   UNL     1       7.687   5.017  15.210  0.00  0.00    +0.000 NA
ATOM      9  C   UNL     1       6.992   4.514  16.252  0.00  0.00    +0.000 A 
ATOM     10 CL   UNL     1       7.689   4.913  17.776  0.00  0.00    +0.000 Cl
ATOM     11  C   UNL     1       5.829   3.762  16.140  0.00  0.00    +0.000 A 
ATOM     12  C   UNL     1       5.393   3.494  14.841  0.00  0.00    +0.000 A 
ATOM     13  C   UNL     1       6.085   3.998  13.715  0.00  0.00    +0.000 A 
ENDROOT
BRANCH  11  14
ATOM     14  C   UNL     1       5.021   3.333  17.295  0.00  0.00    +0.000 C 
ATOM     15  C   UNL     1       4.199   4.152  17.967  0.00  0.00    +0.000 C 
ATOM     16  S   UNL     1       3.886   5.807  17.614  0.00  0.00    +0.000 S 
ATOM     17  C   UNL     1       2.886   6.032  19.041  0.00  0.00    +0.000 C 
ATOM     18  S   UNL     1       2.198   7.504  19.410  0.00  0.00    +0.000 S 
ATOM     19  N   UNL     1       2.808   4.850  19.748  0.00  0.00    +0.000 N 
ATOM     20  C   UNL     1       3.437   3.756  19.182  0.00  0.00    +0.000 C 
ATOM     21  O   UNL     1       3.323   2.608  19.602  0.00  0.00    +0.000 OA
BRANCH  19  22
ATOM     22  C   UNL     1       2.132   4.697  21.037  0.00  0.00    +0.000 C 
BRANCH  22  23
ATOM     23  C   UNL     1       1.278   3.441  21.112  0.00  0.00    +0.000 C 
ATOM     24  O   UNL     1       1.400   2.589  21.983  0.00  0.00    +0.000 OA
BRANCH  23  25
ATOM     25  O   UNL     1       0.412   3.293  20.082  0.00  0.00    +0.000 OA
ATOM     26  H   UNL     1       0.186   2.357  19.866  0.00  0.00    +0.000 HD
ENDBRANCH  23  25
ENDBRANCH  22  23
ENDBRANCH  19  22
ENDBRANCH  11  14
TORSDOF 4
ENDMDL
MODEL 4
REMARK VINA RESULT:      -6.4      2.897      3.751
REMARK  Name = 
REMARK  6 active torsions:
REMARK  status: ('A' for Active; 'I' for Inactive)
REMARK    1  A    between atoms: C_1  and  C_2
REMARK    2  A    between atoms: C_5  and  C_6
REMARK    3  A    between atoms: C_11  and  C_12
REMARK    4  A    between atoms: N_17  and  C_18
REMARK    5  A    between atoms: C_18  and  C_19
REMARK    6  A    between atoms: C_19  and  O_21
REMARK                            x       y       z     vdW  Elec       q    Type
REMARK                         _______ _______ _______ _____ _____    ______ ____
ROOT
ATOM      1  C   UNL     1      -1.714  10.122  17.449  0.00  0.00    +0.000 C 
ATOM      2  C   UNL     1      -1.423  10.960  18.666  0.00  0.00    +0.000 A 
ATOM      3  C   UNL     1      -2.001  12.231  18.750  0.00  0.00    +0.000 A 
ATOM      4  C   UNL     1      -1.768  13.036  19.857  0.00  0.00    +0.000 A 
ATOM      5  C   UNL     1      -0.940  12.590  20.896  0.00  0.00    +0.000 A 
ATOM      6  C   UNL     1      -0.731  13.480  22.095  0.00  0.00    +0.000 C 
ATOM      7  C   UNL     1      -0.335  11.328  20.842  0.00  0.00    +0.000 A 
ATOM      8  N   UNL     1       0.461  10.935  21.854  0.00  0.00    +0.000 NA
ATOM      9  C   UNL     1       0.996   9.696  21.813  0.00  0.00    +0.000 A 
ATOM     10 CL   UNL     1       1.975   9.345  23.187  0.00  0.00    +0.000 Cl
ATOM     11  C   UNL     1       0.789   8.776  20.793  0.00  0.00    +0.000 A 
ATOM     12  C   UNL     1      -0.007   9.206  19.729  0.00  0.00    +0.000 A 
ATOM     13  C   UNL     1      -0.592  10.495  19.723  0.00  0.00    +0.000 A 
ENDROOT
BRANCH  11  14
ATOM     14  C   UNL     1       1.281   7.388  20.834  0.00  0.00    +0.000 C 
ATOM     15  C   UNL     1       2.152   6.886  19.944  0.00  0.00    +0.000 C 
ATOM     16  S   UNL     1       2.889   7.734  18.641  0.00  0.00    +0.000 S 
ATOM     17  C   UNL     1       3.673   6.294  18.008  0.00  0.00    +0.000 C 
ATOM     18  S   UNL     1       4.613   6.336  16.634  0.00  0.00    +0.000 S 
ATOM     19  N   UNL     1       3.363   5.208  18.801  0.00  0.00    +0.000 N 
ATOM     20  C   UNL     1       2.599   5.468  19.924  0.00  0.00    +0.000 C 
ATOM     21  O   UNL     1       2.378   4.643  20.806  0.00  0.00    +0.000 OA
BRANCH  19  22
ATOM     22  C   UNL     1       3.772   3.831  18.518  0.00  0.00    +0.000 C 
BRANCH  22  23
ATOM     23  C   UNL     1       5.067   3.444  19.212  0.00  0.00    +0.000 C 
ATOM     24  O   UNL     1       6.085   4.124  19.179  0.00  0.00    +0.000 OA
BRANCH  23  25
ATOM     25  O   UNL     1       5.037   2.231  19.813  0.00  0.00    +0.000 OA
ATOM     26  H   UNL     1       5.739   2.090  20.492  0.00  0.00    +0.000 HD
ENDBRANCH  23  25
ENDBRANCH  22  23
ENDBRANCH  19  22
ENDBRANCH  11  14
TORSDOF 4
ENDMDL
MODEL 5
REMARK VINA RESULT:      -6.1      3.241      4.208
REMARK  Name = 
REMARK  6 active torsions:
REMARK  status: ('A' for Active; 'I' for Inactive)
REMARK    1  A    between atoms: C_1  and  C_2
REMARK    2  A    between atoms: C_5  and  C_6
REMARK    3  A    between atoms: C_11  and  C_12
REMARK    4  A    between atoms: N_17  and  C_18
REMARK    5  A    between atoms: C_18  and  C_19
REMARK    6  A    between atoms: C_19  and  O_21
REMARK                            x       y       z     vdW  Elec       q    Type
REMARK                         _______ _______ _______ _____ _____    ______ ____
ROOT
ATOM      1  C   UNL     1      -1.741  10.019  17.481  0.00  0.00    +0.000 C 
ATOM      2  C   UNL     1      -1.201  10.941  18.543  0.00  0.00    +0.000 A 
ATOM      3  C   UNL     1      -1.530  12.298  18.473  0.00  0.00    +0.000 A 
ATOM      4  C   UNL     1      -1.063  13.184  19.434  0.00  0.00    +0.000 A 
ATOM      5  C   UNL     1      -0.245  12.731  20.479  0.00  0.00    +0.000 A 
ATOM      6  C   UNL     1       0.222  13.716  21.520  0.00  0.00    +0.000 C 
ATOM      7  C   UNL     1       0.114  11.380  20.576  0.00  0.00    +0.000 A 
ATOM      8  N   UNL     1       0.908  10.980  21.587  0.00  0.00    +0.000 NA
ATOM      9  C   UNL     1       1.204   9.667  21.697  0.00  0.00    +0.000 A 
ATOM     10 CL   UNL     1       2.215   9.321  23.048  0.00  0.00    +0.000 Cl
ATOM     11  C   UNL     1       0.748   8.677  20.836  0.00  0.00    +0.000 A 
ATOM     12  C   UNL     1      -0.043   9.106  19.769  0.00  0.00    +0.000 A 
ATOM     13  C   UNL     1      -0.383  10.470  19.608  0.00  0.00    +0.000 A 
ENDROOT
BRANCH  11  14
ATOM     14  C   UNL     1       0.982   7.238  21.052  0.00  0.00    +0.000 C 
ATOM     15  C   UNL     1       1.805   6.501  20.289  0.00  0.00    +0.000 C 
ATOM     16  S   UNL     1       2.762   7.062  18.974  0.00  0.00    +0.000 S 
ATOM     17  C   UNL     1       3.315   5.449  18.550  0.00  0.00    +0.000 C 
ATOM     18  S   UNL     1       4.333   5.179  17.259  0.00  0.00    +0.000 S 
ATOM     19  N   UNL     1       2.767   4.526  19.417  0.00  0.00    +0.000 N 
ATOM     20  C   UNL     1       1.992   5.033  20.443  0.00  0.00    +0.000 C 
ATOM     21  O   UNL     1       1.573   4.361  21.380  0.00  0.00    +0.000 OA
BRANCH  19  22
ATOM     22  C   UNL     1       2.942   3.077  19.303  0.00  0.00    +0.000 C 
BRANCH  22  23
ATOM     23  C   UNL     1       3.970   2.526  20.277  0.00  0.00    +0.000 C 
ATOM     24  O   UNL     1       5.138   2.307  19.980  0.00  0.00    +0.000 OA
BRANCH  23  25
ATOM     25  O   UNL     1       3.472   2.214  21.497  0.00  0.00    +0.000 OA
ATOM     26  H   UNL     1       2.818   2.861  21.853  0.00  0.00    +0.000 HD
ENDBRANCH  23  25
ENDBRANCH  22  23
ENDBRANCH  19  22
ENDBRANCH  11  14
TORSDOF 4
ENDMDL
MODEL 6
REMARK VINA RESULT:      -6.1      3.452      4.500
REMARK  Name = 
REMARK  6 active torsions:
REMARK  status: ('A' for Active; 'I' for Inactive)
REMARK    1  A    between atoms: C_1  and  C_2
REMARK    2  A    between atoms: C_5  and  C_6
REMARK    3  A    between atoms: C_11  and  C_12
REMARK    4  A    between atoms: N_17  and  C_18
REMARK    5  A    between atoms: C_18  and  C_19
REMARK    6  A    between atoms: C_19  and  O_21
REMARK                            x       y       z     vdW  Elec       q    Type
REMARK                         _______ _______ _______ _____ _____    ______ ____
ROOT
ATOM      1  C   UNL     1      -2.860   9.747  15.675  0.00  0.00    +0.000 C 
ATOM      2  C   UNL     1      -2.830  10.478  16.992  0.00  0.00    +0.000 A 
ATOM      3  C   UNL     1      -3.995  11.124  17.419  0.00  0.00    +0.000 A 
ATOM      4  C   UNL     1      -4.017  11.804  18.629  0.00  0.00    +0.000 A 
ATOM      5  C   UNL     1      -2.869  11.860  19.432  0.00  0.00    +0.000 A 
ATOM      6  C   UNL     1      -2.937  12.583  20.753  0.00  0.00    +0.000 C 
ATOM      7  C   UNL     1      -1.682  11.233  19.033  0.00  0.00    +0.000 A 
ATOM      8  N   UNL     1      -0.595  11.314  19.824  0.00  0.00    +0.000 NA
ATOM      9  C   UNL     1       0.527  10.662  19.451  0.00  0.00    +0.000 A 
ATOM     10 CL   UNL     1       1.817  10.855  20.577  0.00  0.00    +0.000 Cl
ATOM     11  C   UNL     1       0.656   9.900  18.297  0.00  0.00    +0.000 A 
ATOM     12  C   UNL     1      -0.464   9.854  17.463  0.00  0.00    +0.000 A 
ATOM     13  C   UNL     1      -1.665  10.519  17.807  0.00  0.00    +0.000 A 
ENDROOT
BRANCH  11  14
ATOM     14  C   UNL     1       1.849   9.098  17.977  0.00  0.00    +0.000 C 
ATOM     15  C   UNL     1       2.135   7.929  18.572  0.00  0.00    +0.000 C 
ATOM     16  S   UNL     1       1.184   7.123  19.758  0.00  0.00    +0.000 S 
ATOM     17  C   UNL     1       2.381   5.863  20.014  0.00  0.00    +0.000 C 
ATOM     18  S   UNL     1       2.152   4.643  21.125  0.00  0.00    +0.000 S 
ATOM     19  N   UNL     1       3.469   6.078  19.192  0.00  0.00    +0.000 N 
ATOM     20  C   UNL     1       3.374   7.146  18.318  0.00  0.00    +0.000 C 
ATOM     21  O   UNL     1       4.181   7.369  17.421  0.00  0.00    +0.000 OA
BRANCH  19  22
ATOM     22  C   UNL     1       4.691   5.273  19.206  0.00  0.00    +0.000 C 
BRANCH  22  23
ATOM     23  C   UNL     1       4.527   3.934  18.506  0.00  0.00    +0.000 C 
ATOM     24  O   UNL     1       3.839   3.771  17.506  0.00  0.00    +0.000 OA
BRANCH  23  25
ATOM     25  O   UNL     1       5.143   2.901  19.127  0.00  0.00    +0.000 OA
ATOM     26  H   UNL     1       6.124   2.988  19.196  0.00  0.00    +0.000 HD
ENDBRANCH  23  25
ENDBRANCH  22  23
ENDBRANCH  19  22
ENDBRANCH  11  14
TORSDOF 4
ENDMDL
MODEL 7
REMARK VINA RESULT:      -6.1      4.460      8.119
REMARK  Name = 
REMARK  6 active torsions:
REMARK  status: ('A' for Active; 'I' for Inactive)
REMARK    1  A    between atoms: C_1  and  C_2
REMARK    2  A    between atoms: C_5  and  C_6
REMARK    3  A    between atoms: C_11  and  C_12
REMARK    4  A    between atoms: N_17  and  C_18
REMARK    5  A    between atoms: C_18  and  C_19
REMARK    6  A    between atoms: C_19  and  O_21
REMARK                            x       y       z     vdW  Elec       q    Type
REMARK                         _______ _______ _______ _____ _____    ______ ____
ROOT
ATOM      1  C   UNL     1       5.651   7.360  17.002  0.00  0.00    +0.000 C 
ATOM      2  C   UNL     1       5.030   5.991  17.104  0.00  0.00    +0.000 A 
ATOM      3  C   UNL     1       5.527   4.974  16.283  0.00  0.00    +0.000 A 
ATOM      4  C   UNL     1       4.992   3.695  16.348  0.00  0.00    +0.000 A 
ATOM      5  C   UNL     1       3.938   3.411  17.228  0.00  0.00    +0.000 A 
ATOM      6  C   UNL     1       3.400   2.005  17.292  0.00  0.00    +0.000 C 
ATOM      7  C   UNL     1       3.407   4.407  18.058  0.00  0.00    +0.000 A 
ATOM      8  N   UNL     1       2.389   4.102  18.885  0.00  0.00    +0.000 NA
ATOM      9  C   UNL     1       1.921   5.058  19.716  0.00  0.00    +0.000 A 
ATOM     10 CL   UNL     1       0.632   4.503  20.715  0.00  0.00    +0.000 Cl
ATOM     11  C   UNL     1       2.413   6.355  19.789  0.00  0.00    +0.000 A 
ATOM     12  C   UNL     1       3.442   6.673  18.900  0.00  0.00    +0.000 A 
ATOM     13  C   UNL     1       3.969   5.709  18.010  0.00  0.00    +0.000 A 
ENDROOT
BRANCH  11  14
ATOM     14  C   UNL     1       1.969   7.341  20.791  0.00  0.00    +0.000 C 
ATOM     15  C   UNL     1       1.395   8.510  20.472  0.00  0.00    +0.000 C 
ATOM     16  S   UNL     1       1.023   9.073  18.889  0.00  0.00    +0.000 S 
ATOM     17  C   UNL     1       0.489  10.647  19.459  0.00  0.00    +0.000 C 
ATOM     18  S   UNL     1      -0.035  11.832  18.412  0.00  0.00    +0.000 S 
ATOM     19  N   UNL     1       0.598  10.707  20.833  0.00  0.00    +0.000 N 
ATOM     20  C   UNL     1       1.013   9.549  21.466  0.00  0.00    +0.000 C 
ATOM     21  O   UNL     1       1.005   9.395  22.684  0.00  0.00    +0.000 OA
BRANCH  19  22
ATOM     22  C   UNL     1       0.325  11.901  21.636  0.00  0.00    +0.000 C 
BRANCH  22  23
ATOM     23  C   UNL     1      -1.077  11.910  22.224  0.00  0.00    +0.000 C 
ATOM     24  O   UNL     1      -2.026  12.485  21.707  0.00  0.00    +0.000 OA
BRANCH  23  25
ATOM     25  O   UNL     1      -1.182  11.293  23.425  0.00  0.00    +0.000 OA
ATOM     26  H   UNL     1      -1.388  10.329  23.376  0.00  0.00    +0.000 HD
ENDBRANCH  23  25
ENDBRANCH  22  23
ENDBRANCH  19  22
ENDBRANCH  11  14
TORSDOF 4
ENDMDL
MODEL 8
REMARK VINA RESULT:      -6.0      3.185      4.252
REMARK  Name = 
REMARK  6 active torsions:
REMARK  status: ('A' for Active; 'I' for Inactive)
REMARK    1  A    between atoms: C_1  and  C_2
REMARK    2  A    between atoms: C_5  and  C_6
REMARK    3  A    between atoms: C_11  and  C_12
REMARK    4  A    between atoms: N_17  and  C_18
REMARK    5  A    between atoms: C_18  and  C_19
REMARK    6  A    between atoms: C_19  and  O_21
REMARK                            x       y       z     vdW  Elec       q    Type
REMARK                         _______ _______ _______ _____ _____    ______ ____
ROOT
ATOM      1  C   UNL     1       0.336   9.248  24.021  0.00  0.00    +0.000 C 
ATOM      2  C   UNL     1      -0.245  10.068  22.899  0.00  0.00    +0.000 A 
ATOM      3  C   UNL     1      -1.145  11.089  23.221  0.00  0.00    +0.000 A 
ATOM      4  C   UNL     1      -1.701  11.875  22.221  0.00  0.00    +0.000 A 
ATOM      5  C   UNL     1      -1.376  11.648  20.877  0.00  0.00    +0.000 A 
ATOM      6  C   UNL     1      -1.977  12.539  19.819  0.00  0.00    +0.000 C 
ATOM      7  C   UNL     1      -0.486  10.627  20.515  0.00  0.00    +0.000 A 
ATOM      8  N   UNL     1      -0.202  10.430  19.214  0.00  0.00    +0.000 NA
ATOM      9  C   UNL     1       0.695   9.477  18.884  0.00  0.00    +0.000 A 
ATOM     10 CL   UNL     1       0.955   9.364  17.185  0.00  0.00    +0.000 Cl
ATOM     11  C   UNL     1       1.363   8.669  19.794  0.00  0.00    +0.000 A 
ATOM     12  C   UNL     1       1.034   8.853  21.139  0.00  0.00    +0.000 A 
ATOM     13  C   UNL     1       0.100   9.838  21.538  0.00  0.00    +0.000 A 
ENDROOT
BRANCH  11  14
ATOM     14  C   UNL     1       2.430   7.724  19.417  0.00  0.00    +0.000 C 
ATOM     15  C   UNL     1       2.395   6.415  19.708  0.00  0.00    +0.000 C 
ATOM     16  S   UNL     1       1.126   5.577  20.514  0.00  0.00    +0.000 S 
ATOM     17  C   UNL     1       2.015   4.063  20.566  0.00  0.00    +0.000 C 
ATOM     18  S   UNL     1       1.383   2.695  21.275  0.00  0.00    +0.000 S 
ATOM     19  N   UNL     1       3.248   4.225  19.967  0.00  0.00    +0.000 N 
ATOM     20  C   UNL     1       3.497   5.464  19.405  0.00  0.00    +0.000 C 
ATOM     21  O   UNL     1       4.473   5.712  18.702  0.00  0.00    +0.000 OA
BRANCH  19  22
ATOM     22  C   UNL     1       4.285   3.194  19.912  0.00  0.00    +0.000 C 
BRANCH  22  23
ATOM     23  C   UNL     1       4.190   2.324  18.669  0.00  0.00    +0.000 C 
ATOM     24  O   UNL     1       3.689   1.207  18.659  0.00  0.00    +0.000 OA
BRANCH  23  25
ATOM     25  O   UNL     1       4.781   2.853  17.571  0.00  0.00    +0.000 OA
ATOM     26  H   UNL     1       4.588   3.809  17.419  0.00  0.00    +0.000 HD
ENDBRANCH  23  25
ENDBRANCH  22  23
ENDBRANCH  19  22
ENDBRANCH  11  14
TORSDOF 4
ENDMDL
MODEL 9
REMARK VINA RESULT:      -5.9      5.798      9.210
REMARK  Name = 
REMARK  6 active torsions:
REMARK  status: ('A' for Active; 'I' for Inactive)
REMARK    1  A    between atoms: C_1  and  C_2
REMARK    2  A    between atoms: C_5  and  C_6
REMARK    3  A    between atoms: C_11  and  C_12
REMARK    4  A    between atoms: N_17  and  C_18
REMARK    5  A    between atoms: C_18  and  C_19
REMARK    6  A    between atoms: C_19  and  O_21
REMARK                            x       y       z     vdW  Elec       q    Type
REMARK                         _______ _______ _______ _____ _____    ______ ____
ROOT
ATOM      1  C   UNL     1       1.558   5.096  20.838  0.00  0.00    +0.000 C 
ATOM      2  C   UNL     1       2.311   5.645  19.655  0.00  0.00    +0.000 A 
ATOM      3  C   UNL     1       3.082   4.763  18.891  0.00  0.00    +0.000 A 
ATOM      4  C   UNL     1       3.787   5.222  17.787  0.00  0.00    +0.000 A 
ATOM      5  C   UNL     1       3.744   6.578  17.433  0.00  0.00    +0.000 A 
ATOM      6  C   UNL     1       4.500   7.036  16.212  0.00  0.00    +0.000 C 
ATOM      7  C   UNL     1       2.992   7.493  18.180  0.00  0.00    +0.000 A 
ATOM      8  N   UNL     1       2.980   8.789  17.817  0.00  0.00    +0.000 NA
ATOM      9  C   UNL     1       2.210   9.650  18.515  0.00  0.00    +0.000 A 
ATOM     10 CL   UNL     1       2.296  11.263  17.914  0.00  0.00    +0.000 Cl
ATOM     11  C   UNL     1       1.413   9.303  19.598  0.00  0.00    +0.000 A 
ATOM     12  C   UNL     1       1.462   7.964  19.992  0.00  0.00    +0.000 A 
ATOM     13  C   UNL     1       2.252   7.020  19.294  0.00  0.00    +0.000 A 
ENDROOT
BRANCH  11  14
ATOM     14  C   UNL     1       0.487  10.236  20.263  0.00  0.00    +0.000 C 
ATOM     15  C   UNL     1      -0.683  10.621  19.730  0.00  0.00    +0.000 C 
ATOM     16  S   UNL     1      -1.351  10.095  18.234  0.00  0.00    +0.000 S 
ATOM     17  C   UNL     1      -2.713  11.201  18.332  0.00  0.00    +0.000 C 
ATOM     18  S   UNL     1      -3.865  11.287  17.132  0.00  0.00    +0.000 S 
ATOM     19  N   UNL     1      -2.633  11.937  19.497  0.00  0.00    +0.000 N 
ATOM     20  C   UNL     1      -1.592  11.622  20.351  0.00  0.00    +0.000 C 
ATOM     21  O   UNL     1      -1.480  12.070  21.488  0.00  0.00    +0.000 OA
BRANCH  19  22
ATOM     22  C   UNL     1      -3.553  13.016  19.861  0.00  0.00    +0.000 C 
BRANCH  22  23
ATOM     23  C   UNL     1      -4.763  12.526  20.639  0.00  0.00    +0.000 C 
ATOM     24  O   UNL     1      -5.875  12.382  20.147  0.00  0.00    +0.000 OA
BRANCH  23  25
ATOM     25  O   UNL     1      -4.535  12.331  21.960  0.00  0.00    +0.000 OA
ATOM     26  H   UNL     1      -4.139  13.104  22.428  0.00  0.00    +0.000 HD
ENDBRANCH  23  25
ENDBRANCH  22  23
ENDBRANCH  19  22
ENDBRANCH  11  14
TORSDOF 4
ENDMDL
