MODEL 1
REMARK VINA RESULT:      -9.1      0.000      0.000
REMARK  Name = 
REMARK  6 active torsions:
REMARK  status: ('A' for Active; 'I' for Inactive)
REMARK    1  A    between atoms: C_2  and  C_3
REMARK    2  A    between atoms: C_3  and  C_4
REMARK    3  A    between atoms: N_14  and  C_15
REMARK    4  A    between atoms: C_15  and  C_16
REMARK    5  A    between atoms: N_21  and  C_22
REMARK    6  A    between atoms: C_22  and  C_23
REMARK                            x       y       z     vdW  Elec       q    Type
REMARK                         _______ _______ _______ _____ _____    ______ ____
ROOT
ATOM      1  C   UNL     1       1.396  10.469  18.265  0.00  0.00    +0.000 C 
ATOM      2  O   UNL     1       2.531  10.903  18.037  0.00  0.00    +0.000 OA
ATOM      3  N   UNL     1       0.538  11.108  19.140  0.00  0.00    +0.000 N 
ATOM      4  C   UNL     1       0.918  12.405  19.711  0.00  0.00    +0.000 C 
ATOM      5  C   UNL     1      -0.242  13.424  19.610  0.00  0.00    +0.000 C 
ATOM      6  N   UNL     1      -1.548  12.933  20.120  0.00  0.00    +0.000 NA
ATOM      7  C   UNL     1      -1.848  11.642  19.455  0.00  0.00    +0.000 C 
ATOM      8  C   UNL     1      -0.745  10.584  19.622  0.00  0.00    +0.000 C 
ENDROOT
BRANCH   1   9
ATOM      9  C   UNL     1       0.966   9.149  17.620  0.00  0.00    +0.000 C 
BRANCH   9  12
ATOM     10  O   UNL     1       1.651   8.023  20.142  0.00  0.00    +0.000 OA
ATOM     11  C   UNL     1       2.232   7.643  19.130  0.00  0.00    +0.000 C 
ATOM     12  N   UNL     1       1.962   8.127  17.872  0.00  0.00    +0.000 N 
ATOM     13  H   UNL     1       2.578   7.895  17.103  0.00  0.00    +0.000 HD
BRANCH  11  14
ATOM     14  C   UNL     1       3.317   6.580  19.164  0.00  0.00    +0.000 C 
BRANCH  14  15
ATOM     15  C   UNL     1       2.820   5.139  19.395  0.00  0.00    +0.000 C 
ATOM     16  C   UNL     1       1.931   4.647  18.223  0.00  0.00    +0.000 C 
ATOM     17  C   UNL     1       1.490   3.189  18.448  0.00  0.00    +0.000 C 
ATOM     18  C   UNL     1       2.734   2.290  18.537  0.00  0.00    +0.000 C 
ATOM     19  C   UNL     1       3.623   2.740  19.706  0.00  0.00    +0.000 C 
ATOM     20  C   UNL     1       2.826   2.642  21.015  0.00  0.00    +0.000 C 
ATOM     21  C   UNL     1       1.584   3.545  20.942  0.00  0.00    +0.000 C 
ATOM     22  C   UNL     1       0.702   3.096  19.762  0.00  0.00    +0.000 C 
ATOM     23  C   UNL     1       2.022   5.003  20.716  0.00  0.00    +0.000 C 
ATOM     24  C   UNL     1       4.055   4.198  19.483  0.00  0.00    +0.000 C 
ENDBRANCH  14  15
ENDBRANCH  11  14
ENDBRANCH   9  12
ENDBRANCH   1   9
BRANCH   6  25
ATOM     25  C   UNL     1      -1.512  12.829  21.591  0.00  0.00    +0.000 C 
BRANCH  25  26
ATOM     26  C   UNL     1      -2.871  12.823  22.256  0.00  0.00    +0.000 A 
ATOM     27  C   UNL     1      -2.999  12.475  23.607  0.00  0.00    +0.000 A 
ATOM     28  C   UNL     1      -4.251  12.475  24.225  0.00  0.00    +0.000 A 
ATOM     29  C   UNL     1      -5.399  12.839  23.509  0.00  0.00    +0.000 A 
ATOM     30  C   UNL     1      -6.663  12.862  24.121  0.00  0.00    +0.000 A 
ATOM     31  C   UNL     1      -7.794  13.250  23.402  0.00  0.00    +0.000 A 
ATOM     32  C   UNL     1      -7.678  13.614  22.065  0.00  0.00    +0.000 A 
ATOM     33  C   UNL     1      -6.431  13.583  21.438  0.00  0.00    +0.000 A 
ATOM     34  C   UNL     1      -5.282  13.199  22.147  0.00  0.00    +0.000 A 
ATOM     35  C   UNL     1      -4.019  13.174  21.533  0.00  0.00    +0.000 A 
ENDBRANCH  25  26
ENDBRANCH   6  25
TORSDOF 6
ENDMDL
MODEL 2
REMARK VINA RESULT:      -8.9      3.488      5.764
REMARK  Name = 
REMARK  6 active torsions:
REMARK  status: ('A' for Active; 'I' for Inactive)
REMARK    1  A    between atoms: C_2  and  C_3
REMARK    2  A    between atoms: C_3  and  C_4
REMARK    3  A    between atoms: N_14  and  C_15
REMARK    4  A    between atoms: C_15  and  C_16
REMARK    5  A    between atoms: N_21  and  C_22
REMARK    6  A    between atoms: C_22  and  C_23
REMARK                            x       y       z     vdW  Elec       q    Type
REMARK                         _______ _______ _______ _____ _____    ______ ____
ROOT
ATOM      1  C   UNL     1       1.541   8.440  19.612  0.00  0.00    +0.000 C 
ATOM      2  O   UNL     1       1.947   8.233  18.463  0.00  0.00    +0.000 OA
ATOM      3  N   UNL     1       1.158   9.701  20.029  0.00  0.00    +0.000 N 
ATOM      4  C   UNL     1       1.094  10.798  19.057  0.00  0.00    +0.000 C 
ATOM      5  C   UNL     1      -0.232  11.587  19.188  0.00  0.00    +0.000 C 
ATOM      6  N   UNL     1      -0.562  12.024  20.569  0.00  0.00    +0.000 NA
ATOM      7  C   UNL     1      -0.501  10.837  21.456  0.00  0.00    +0.000 C 
ATOM      8  C   UNL     1       0.843  10.091  21.408  0.00  0.00    +0.000 C 
ENDROOT
BRANCH   1   9
ATOM      9  C   UNL     1       1.542   7.284  20.615  0.00  0.00    +0.000 C 
BRANCH   9  12
ATOM     10  O   UNL     1       1.568   4.811  19.208  0.00  0.00    +0.000 OA
ATOM     11  C   UNL     1       2.608   5.242  19.695  0.00  0.00    +0.000 C 
ATOM     12  N   UNL     1       2.689   6.428  20.384  0.00  0.00    +0.000 N 
ATOM     13  H   UNL     1       3.533   6.654  20.897  0.00  0.00    +0.000 HD
BRANCH  11  14
ATOM     14  C   UNL     1       3.931   4.504  19.577  0.00  0.00    +0.000 C 
BRANCH  14  15
ATOM     15  C   UNL     1       4.832   4.952  18.409  0.00  0.00    +0.000 C 
ATOM     16  C   UNL     1       4.308   6.252  17.749  0.00  0.00    +0.000 C 
ATOM     17  C   UNL     1       5.250   6.711  16.621  0.00  0.00    +0.000 C 
ATOM     18  C   UNL     1       6.646   6.981  17.205  0.00  0.00    +0.000 C 
ATOM     19  C   UNL     1       7.203   5.701  17.847  0.00  0.00    +0.000 C 
ATOM     20  C   UNL     1       7.298   4.600  16.780  0.00  0.00    +0.000 C 
ATOM     21  C   UNL     1       5.906   4.314  16.195  0.00  0.00    +0.000 C 
ATOM     22  C   UNL     1       5.349   5.603  15.563  0.00  0.00    +0.000 C 
ATOM     23  C   UNL     1       4.961   3.857  17.320  0.00  0.00    +0.000 C 
ATOM     24  C   UNL     1       6.255   5.241  18.966  0.00  0.00    +0.000 C 
ENDBRANCH  14  15
ENDBRANCH  11  14
ENDBRANCH   9  12
ENDBRANCH   1   9
BRANCH   6  25
ATOM     25  C   UNL     1       0.349  13.105  20.992  0.00  0.00    +0.000 C 
BRANCH  25  26
ATOM     26  C   UNL     1       0.327  14.330  20.103  0.00  0.00    +0.000 A 
ATOM     27  C   UNL     1      -0.823  15.126  20.020  0.00  0.00    +0.000 A 
ATOM     28  C   UNL     1      -0.843  16.260  19.206  0.00  0.00    +0.000 A 
ATOM     29  C   UNL     1       0.290  16.631  18.472  0.00  0.00    +0.000 A 
ATOM     30  C   UNL     1       0.291  17.779  17.663  0.00  0.00    +0.000 A 
ATOM     31  C   UNL     1       1.436  18.150  16.956  0.00  0.00    +0.000 A 
ATOM     32  C   UNL     1       2.589  17.378  17.044  0.00  0.00    +0.000 A 
ATOM     33  C   UNL     1       2.600  16.225  17.832  0.00  0.00    +0.000 A 
ATOM     34  C   UNL     1       1.459  15.840  18.553  0.00  0.00    +0.000 A 
ATOM     35  C   UNL     1       1.458  14.689  19.359  0.00  0.00    +0.000 A 
ENDBRANCH  25  26
ENDBRANCH   6  25
TORSDOF 6
ENDMDL
MODEL 3
REMARK VINA RESULT:      -8.9      3.489      5.794
REMARK  Name = 
REMARK  6 active torsions:
REMARK  status: ('A' for Active; 'I' for Inactive)
REMARK    1  A    between atoms: C_2  and  C_3
REMARK    2  A    between atoms: C_3  and  C_4
REMARK    3  A    between atoms: N_14  and  C_15
REMARK    4  A    between atoms: C_15  and  C_16
REMARK    5  A    between atoms: N_21  and  C_22
REMARK    6  A    between atoms: C_22  and  C_23
REMARK                            x       y       z     vdW  Elec       q    Type
REMARK                         _______ _______ _______ _____ _____    ______ ____
ROOT
ATOM      1  C   UNL     1       1.543   8.460  19.549  0.00  0.00    +0.000 C 
ATOM      2  O   UNL     1       1.959   8.248  18.405  0.00  0.00    +0.000 OA
ATOM      3  N   UNL     1       1.150   9.721  19.956  0.00  0.00    +0.000 N 
ATOM      4  C   UNL     1       1.088  10.812  18.976  0.00  0.00    +0.000 C 
ATOM      5  C   UNL     1      -0.242  11.595  19.093  0.00  0.00    +0.000 C 
ATOM      6  N   UNL     1      -0.585  12.039  20.469  0.00  0.00    +0.000 NA
ATOM      7  C   UNL     1      -0.525  10.858  21.363  0.00  0.00    +0.000 C 
ATOM      8  C   UNL     1       0.823  10.118  21.330  0.00  0.00    +0.000 C 
ENDROOT
BRANCH   1   9
ATOM      9  C   UNL     1       1.542   7.311  20.560  0.00  0.00    +0.000 C 
BRANCH   9  12
ATOM     10  O   UNL     1       1.709   4.959  18.966  0.00  0.00    +0.000 OA
ATOM     11  C   UNL     1       2.699   5.349  19.576  0.00  0.00    +0.000 C 
ATOM     12  N   UNL     1       2.711   6.476  20.362  0.00  0.00    +0.000 N 
ATOM     13  H   UNL     1       3.505   6.659  20.964  0.00  0.00    +0.000 HD
BRANCH  11  14
ATOM     14  C   UNL     1       4.033   4.623  19.515  0.00  0.00    +0.000 C 
BRANCH  14  15
ATOM     15  C   UNL     1       4.962   5.048  18.360  0.00  0.00    +0.000 C 
ATOM     16  C   UNL     1       6.445   5.097  18.808  0.00  0.00    +0.000 C 
ATOM     17  C   UNL     1       7.360   5.469  17.628  0.00  0.00    +0.000 C 
ATOM     18  C   UNL     1       7.213   4.415  16.518  0.00  0.00    +0.000 C 
ATOM     19  C   UNL     1       5.755   4.361  16.037  0.00  0.00    +0.000 C 
ATOM     20  C   UNL     1       5.351   5.738  15.491  0.00  0.00    +0.000 C 
ATOM     21  C   UNL     1       5.485   6.800  16.594  0.00  0.00    +0.000 C 
ATOM     22  C   UNL     1       6.945   6.843  17.080  0.00  0.00    +0.000 C 
ATOM     23  C   UNL     1       4.572   6.430  17.777  0.00  0.00    +0.000 C 
ATOM     24  C   UNL     1       4.844   3.997  17.220  0.00  0.00    +0.000 C 
ENDBRANCH  14  15
ENDBRANCH  11  14
ENDBRANCH   9  12
ENDBRANCH   1   9
BRANCH   6  25
ATOM     25  C   UNL     1       0.317  13.128  20.891  0.00  0.00    +0.000 C 
BRANCH  25  26
ATOM     26  C   UNL     1       0.251  14.370  20.030  0.00  0.00    +0.000 A 
ATOM     27  C   UNL     1      -0.928  15.123  19.959  0.00  0.00    +0.000 A 
ATOM     28  C   UNL     1      -0.989  16.273  19.171  0.00  0.00    +0.000 A 
ATOM     29  C   UNL     1       0.132  16.704  18.450  0.00  0.00    +0.000 A 
ATOM     30  C   UNL     1       0.092  17.869  17.667  0.00  0.00    +0.000 A 
ATOM     31  C   UNL     1       1.224  18.299  16.973  0.00  0.00    +0.000 A 
ATOM     32  C   UNL     1       2.406  17.569  17.049  0.00  0.00    +0.000 A 
ATOM     33  C   UNL     1       2.458  16.401  17.811  0.00  0.00    +0.000 A 
ATOM     34  C   UNL     1       1.330  15.956  18.518  0.00  0.00    +0.000 A 
ATOM     35  C   UNL     1       1.371  14.789  19.299  0.00  0.00    +0.000 A 
ENDBRANCH  25  26
ENDBRANCH   6  25
TORSDOF 6
ENDMDL
MODEL 4
REMARK VINA RESULT:      -8.9      0.834      1.347
REMARK  Name = 
REMARK  6 active torsions:
REMARK  status: ('A' for Active; 'I' for Inactive)
REMARK    1  A    between atoms: C_2  and  C_3
REMARK    2  A    between atoms: C_3  and  C_4
REMARK    3  A    between atoms: N_14  and  C_15
REMARK    4  A    between atoms: C_15  and  C_16
REMARK    5  A    between atoms: N_21  and  C_22
REMARK    6  A    between atoms: C_22  and  C_23
REMARK                            x       y       z     vdW  Elec       q    Type
REMARK                         _______ _______ _______ _____ _____    ______ ____
ROOT
ATOM      1  C   UNL     1       1.444  10.692  18.305  0.00  0.00    +0.000 C 
ATOM      2  O   UNL     1       2.596  10.982  17.962  0.00  0.00    +0.000 OA
ATOM      3  N   UNL     1       0.700  11.523  19.120  0.00  0.00    +0.000 N 
ATOM      4  C   UNL     1       1.225  12.845  19.481  0.00  0.00    +0.000 C 
ATOM      5  C   UNL     1       0.153  13.945  19.292  0.00  0.00    +0.000 C 
ATOM      6  N   UNL     1      -1.157  13.654  19.930  0.00  0.00    +0.000 NA
ATOM      7  C   UNL     1      -1.607  12.318  19.472  0.00  0.00    +0.000 C 
ATOM      8  C   UNL     1      -0.591  11.194  19.734  0.00  0.00    +0.000 C 
ENDROOT
BRANCH   1   9
ATOM      9  C   UNL     1       0.863   9.343  17.877  0.00  0.00    +0.000 C 
BRANCH   9  12
ATOM     10  O   UNL     1       1.869   7.746  20.006  0.00  0.00    +0.000 OA
ATOM     11  C   UNL     1       2.346   7.628  18.883  0.00  0.00    +0.000 C 
ATOM     12  N   UNL     1       1.919   8.352  17.796  0.00  0.00    +0.000 N 
ATOM     13  H   UNL     1       2.453   8.328  16.936  0.00  0.00    +0.000 HD
BRANCH  11  14
ATOM     14  C   UNL     1       3.467   6.650  18.572  0.00  0.00    +0.000 C 
BRANCH  14  15
ATOM     15  C   UNL     1       3.096   5.159  18.705  0.00  0.00    +0.000 C 
ATOM     16  C   UNL     1       4.187   4.242  18.094  0.00  0.00    +0.000 C 
ATOM     17  C   UNL     1       3.823   2.759  18.285  0.00  0.00    +0.000 C 
ATOM     18  C   UNL     1       3.706   2.454  19.787  0.00  0.00    +0.000 C 
ATOM     19  C   UNL     1       2.614   3.332  20.417  0.00  0.00    +0.000 C 
ATOM     20  C   UNL     1       1.271   3.042  19.729  0.00  0.00    +0.000 C 
ATOM     21  C   UNL     1       1.374   3.352  18.227  0.00  0.00    +0.000 C 
ATOM     22  C   UNL     1       2.476   2.476  17.604  0.00  0.00    +0.000 C 
ATOM     23  C   UNL     1       1.739   4.834  18.032  0.00  0.00    +0.000 C 
ATOM     24  C   UNL     1       2.976   4.813  20.216  0.00  0.00    +0.000 C 
ENDBRANCH  14  15
ENDBRANCH  11  14
ENDBRANCH   9  12
ENDBRANCH   1   9
BRANCH   6  25
ATOM     25  C   UNL     1      -1.040  13.750  21.398  0.00  0.00    +0.000 C 
BRANCH  25  26
ATOM     26  C   UNL     1      -2.319  13.462  22.152  0.00  0.00    +0.000 A 
ATOM     27  C   UNL     1      -2.356  12.458  23.128  0.00  0.00    +0.000 A 
ATOM     28  C   UNL     1      -3.533  12.194  23.831  0.00  0.00    +0.000 A 
ATOM     29  C   UNL     1      -4.693  12.940  23.585  0.00  0.00    +0.000 A 
ATOM     30  C   UNL     1      -5.880  12.700  24.296  0.00  0.00    +0.000 A 
ATOM     31  C   UNL     1      -7.021  13.467  24.056  0.00  0.00    +0.000 A 
ATOM     32  C   UNL     1      -6.991  14.479  23.102  0.00  0.00    +0.000 A 
ATOM     33  C   UNL     1      -5.823  14.721  22.376  0.00  0.00    +0.000 A 
ATOM     34  C   UNL     1      -4.666  13.962  22.607  0.00  0.00    +0.000 A 
ATOM     35  C   UNL     1      -3.480  14.202  21.893  0.00  0.00    +0.000 A 
ENDBRANCH  25  26
ENDBRANCH   6  25
TORSDOF 6
ENDMDL
MODEL 5
REMARK VINA RESULT:      -8.9      6.018     10.152
REMARK  Name = 
REMARK  6 active torsions:
REMARK  status: ('A' for Active; 'I' for Inactive)
REMARK    1  A    between atoms: C_2  and  C_3
REMARK    2  A    between atoms: C_3  and  C_4
REMARK    3  A    between atoms: N_14  and  C_15
REMARK    4  A    between atoms: C_15  and  C_16
REMARK    5  A    between atoms: N_21  and  C_22
REMARK    6  A    between atoms: C_22  and  C_23
REMARK                            x       y       z     vdW  Elec       q    Type
REMARK                         _______ _______ _______ _____ _____    ______ ____
ROOT
ATOM      1  C   UNL     1       7.154   6.162  16.838  0.00  0.00    +0.000 C 
ATOM      2  O   UNL     1       7.635   6.075  15.703  0.00  0.00    +0.000 OA
ATOM      3  N   UNL     1       5.930   5.602  17.152  0.00  0.00    +0.000 N 
ATOM      4  C   UNL     1       5.242   4.764  16.163  0.00  0.00    +0.000 C 
ATOM      5  C   UNL     1       4.735   3.447  16.799  0.00  0.00    +0.000 C 
ATOM      6  N   UNL     1       3.951   3.622  18.050  0.00  0.00    +0.000 NA
ATOM      7  C   UNL     1       4.750   4.450  18.984  0.00  0.00    +0.000 C 
ATOM      8  C   UNL     1       5.188   5.804  18.401  0.00  0.00    +0.000 C 
ENDROOT
BRANCH   1   9
ATOM      9  C   UNL     1       7.899   6.979  17.896  0.00  0.00    +0.000 C 
BRANCH   9  12
ATOM     10  O   UNL     1       9.148   9.114  19.305  0.00  0.00    +0.000 OA
ATOM     11  C   UNL     1       8.483   9.356  18.303  0.00  0.00    +0.000 C 
ATOM     12  N   UNL     1       7.851   8.389  17.558  0.00  0.00    +0.000 N 
ATOM     13  H   UNL     1       7.190   8.660  16.840  0.00  0.00    +0.000 HD
BRANCH  11  14
ATOM     14  C   UNL     1       8.295  10.767  17.771  0.00  0.00    +0.000 C 
BRANCH  14  15
ATOM     15  C   UNL     1       9.365  11.786  18.212  0.00  0.00    +0.000 C 
ATOM     16  C   UNL     1      10.772  11.400  17.687  0.00  0.00    +0.000 C 
ATOM     17  C   UNL     1      11.814  12.457  18.093  0.00  0.00    +0.000 C 
ATOM     18  C   UNL     1      11.419  13.817  17.496  0.00  0.00    +0.000 C 
ATOM     19  C   UNL     1      10.037  14.237  18.018  0.00  0.00    +0.000 C 
ATOM     20  C   UNL     1      10.086  14.345  19.550  0.00  0.00    +0.000 C 
ATOM     21  C   UNL     1      10.472  12.988  20.159  0.00  0.00    +0.000 C 
ATOM     22  C   UNL     1      11.853  12.568  19.625  0.00  0.00    +0.000 C 
ATOM     23  C   UNL     1       9.432  11.929  19.754  0.00  0.00    +0.000 C 
ATOM     24  C   UNL     1       8.999  13.175  17.619  0.00  0.00    +0.000 C 
ENDBRANCH  14  15
ENDBRANCH  11  14
ENDBRANCH   9  12
ENDBRANCH   1   9
BRANCH   6  25
ATOM     25  C   UNL     1       2.632   4.208  17.745  0.00  0.00    +0.000 C 
BRANCH  25  26
ATOM     26  C   UNL     1       2.218   5.339  18.661  0.00  0.00    +0.000 A 
ATOM     27  C   UNL     1       1.973   5.099  20.019  0.00  0.00    +0.000 A 
ATOM     28  C   UNL     1       1.597   6.141  20.868  0.00  0.00    +0.000 A 
ATOM     29  C   UNL     1       1.476   7.449  20.381  0.00  0.00    +0.000 A 
ATOM     30  C   UNL     1       1.117   8.512  21.225  0.00  0.00    +0.000 A 
ATOM     31  C   UNL     1       1.023   9.813  20.731  0.00  0.00    +0.000 A 
ATOM     32  C   UNL     1       1.281  10.068  19.388  0.00  0.00    +0.000 A 
ATOM     33  C   UNL     1       1.625   9.020  18.532  0.00  0.00    +0.000 A 
ATOM     34  C   UNL     1       1.727   7.706  19.013  0.00  0.00    +0.000 A 
ATOM     35  C   UNL     1       2.084   6.643  18.166  0.00  0.00    +0.000 A 
ENDBRANCH  25  26
ENDBRANCH   6  25
TORSDOF 6
ENDMDL
MODEL 6
REMARK VINA RESULT:      -8.9      3.505      5.809
REMARK  Name = 
REMARK  6 active torsions:
REMARK  status: ('A' for Active; 'I' for Inactive)
REMARK    1  A    between atoms: C_2  and  C_3
REMARK    2  A    between atoms: C_3  and  C_4
REMARK    3  A    between atoms: N_14  and  C_15
REMARK    4  A    between atoms: C_15  and  C_16
REMARK    5  A    between atoms: N_21  and  C_22
REMARK    6  A    between atoms: C_22  and  C_23
REMARK                            x       y       z     vdW  Elec       q    Type
REMARK                         _______ _______ _______ _____ _____    ______ ____
ROOT
ATOM      1  C   UNL     1       1.495   8.442  19.525  0.00  0.00    +0.000 C 
ATOM      2  O   UNL     1       1.921   8.243  18.382  0.00  0.00    +0.000 OA
ATOM      3  N   UNL     1       1.112   9.700  19.947  0.00  0.00    +0.000 N 
ATOM      4  C   UNL     1       1.071  10.807  18.985  0.00  0.00    +0.000 C 
ATOM      5  C   UNL     1      -0.252  11.602  19.100  0.00  0.00    +0.000 C 
ATOM      6  N   UNL     1      -0.604  12.028  20.479  0.00  0.00    +0.000 NA
ATOM      7  C   UNL     1      -0.566  10.833  21.355  0.00  0.00    +0.000 C 
ATOM      8  C   UNL     1       0.774  10.079  21.324  0.00  0.00    +0.000 C 
ENDROOT
BRANCH   1   9
ATOM      9  C   UNL     1       1.471   7.276  20.517  0.00  0.00    +0.000 C 
BRANCH   9  12
ATOM     10  O   UNL     1       1.803   4.925  18.949  0.00  0.00    +0.000 OA
ATOM     11  C   UNL     1       2.747   5.355  19.603  0.00  0.00    +0.000 C 
ATOM     12  N   UNL     1       2.679   6.485  20.382  0.00  0.00    +0.000 N 
ATOM     13  H   UNL     1       3.436   6.701  21.020  0.00  0.00    +0.000 HD
BRANCH  11  14
ATOM     14  C   UNL     1       4.108   4.679  19.612  0.00  0.00    +0.000 C 
BRANCH  14  15
ATOM     15  C   UNL     1       5.028   5.035  18.426  0.00  0.00    +0.000 C 
ATOM     16  C   UNL     1       4.909   3.997  17.280  0.00  0.00    +0.000 C 
ATOM     17  C   UNL     1       5.793   4.399  16.086  0.00  0.00    +0.000 C 
ATOM     18  C   UNL     1       5.342   5.771  15.559  0.00  0.00    +0.000 C 
ATOM     19  C   UNL     1       5.471   6.826  16.668  0.00  0.00    +0.000 C 
ATOM     20  C   UNL     1       6.937   6.908  17.121  0.00  0.00    +0.000 C 
ATOM     21  C   UNL     1       7.397   5.543  17.658  0.00  0.00    +0.000 C 
ATOM     22  C   UNL     1       7.255   4.488  16.547  0.00  0.00    +0.000 C 
ATOM     23  C   UNL     1       6.514   5.138  18.852  0.00  0.00    +0.000 C 
ATOM     24  C   UNL     1       4.595   6.418  17.862  0.00  0.00    +0.000 C 
ENDBRANCH  14  15
ENDBRANCH  11  14
ENDBRANCH   9  12
ENDBRANCH   1   9
BRANCH   6  25
ATOM     25  C   UNL     1       0.305  13.100  20.928  0.00  0.00    +0.000 C 
BRANCH  25  26
ATOM     26  C   UNL     1       0.295  14.339  20.059  0.00  0.00    +0.000 A 
ATOM     27  C   UNL     1      -0.843  15.153  19.997  0.00  0.00    +0.000 A 
ATOM     28  C   UNL     1      -0.853  16.300  19.202  0.00  0.00    +0.000 A 
ATOM     29  C   UNL     1       0.281  16.667  18.465  0.00  0.00    +0.000 A 
ATOM     30  C   UNL     1       0.294  17.827  17.674  0.00  0.00    +0.000 A 
ATOM     31  C   UNL     1       1.439  18.192  16.965  0.00  0.00    +0.000 A 
ATOM     32  C   UNL     1       2.581  17.401  17.033  0.00  0.00    +0.000 A 
ATOM     33  C   UNL     1       2.580  16.237  17.802  0.00  0.00    +0.000 A 
ATOM     34  C   UNL     1       1.439  15.856  18.525  0.00  0.00    +0.000 A 
ATOM     35  C   UNL     1       1.427  14.694  19.313  0.00  0.00    +0.000 A 
ENDBRANCH  25  26
ENDBRANCH   6  25
TORSDOF 6
ENDMDL
MODEL 7
REMARK VINA RESULT:      -8.8      0.678      1.395
REMARK  Name = 
REMARK  6 active torsions:
REMARK  status: ('A' for Active; 'I' for Inactive)
REMARK    1  A    between atoms: C_2  and  C_3
REMARK    2  A    between atoms: C_3  and  C_4
REMARK    3  A    between atoms: N_14  and  C_15
REMARK    4  A    between atoms: C_15  and  C_16
REMARK    5  A    between atoms: N_21  and  C_22
REMARK    6  A    between atoms: C_22  and  C_23
REMARK                            x       y       z     vdW  Elec       q    Type
REMARK                         _______ _______ _______ _____ _____    ______ ____
ROOT
ATOM      1  C   UNL     1       1.448  10.528  18.220  0.00  0.00    +0.000 C 
ATOM      2  O   UNL     1       2.600  10.815  17.875  0.00  0.00    +0.000 OA
ATOM      3  N   UNL     1       0.709  11.358  19.041  0.00  0.00    +0.000 N 
ATOM      4  C   UNL     1       1.240  12.677  19.405  0.00  0.00    +0.000 C 
ATOM      5  C   UNL     1       0.171  13.781  19.224  0.00  0.00    +0.000 C 
ATOM      6  N   UNL     1      -1.138  13.492  19.865  0.00  0.00    +0.000 NA
ATOM      7  C   UNL     1      -1.594  12.159  19.403  0.00  0.00    +0.000 C 
ATOM      8  C   UNL     1      -0.581  11.030  19.658  0.00  0.00    +0.000 C 
ENDROOT
BRANCH   1   9
ATOM      9  C   UNL     1       0.861   9.182  17.788  0.00  0.00    +0.000 C 
BRANCH   9  12
ATOM     10  O   UNL     1       1.767   7.979  20.203  0.00  0.00    +0.000 OA
ATOM     11  C   UNL     1       2.244   7.620  19.131  0.00  0.00    +0.000 C 
ATOM     12  N   UNL     1       1.862   8.140  17.918  0.00  0.00    +0.000 N 
ATOM     13  H   UNL     1       2.398   7.922  17.087  0.00  0.00    +0.000 HD
BRANCH  11  14
ATOM     14  C   UNL     1       3.311   6.543  19.033  0.00  0.00    +0.000 C 
BRANCH  14  15
ATOM     15  C   UNL     1       2.821   5.104  19.293  0.00  0.00    +0.000 C 
ATOM     16  C   UNL     1       1.791   5.052  20.451  0.00  0.00    +0.000 C 
ATOM     17  C   UNL     1       1.275   3.617  20.659  0.00  0.00    +0.000 C 
ATOM     18  C   UNL     1       0.594   3.130  19.370  0.00  0.00    +0.000 C 
ATOM     19  C   UNL     1       1.599   3.148  18.207  0.00  0.00    +0.000 C 
ATOM     20  C   UNL     1       2.779   2.224  18.544  0.00  0.00    +0.000 C 
ATOM     21  C   UNL     1       3.474   2.706  19.828  0.00  0.00    +0.000 C 
ATOM     22  C   UNL     1       2.460   2.696  20.986  0.00  0.00    +0.000 C 
ATOM     23  C   UNL     1       3.990   4.141  19.624  0.00  0.00    +0.000 C 
ATOM     24  C   UNL     1       2.119   4.581  18.009  0.00  0.00    +0.000 C 
ENDBRANCH  14  15
ENDBRANCH  11  14
ENDBRANCH   9  12
ENDBRANCH   1   9
BRANCH   6  25
ATOM     25  C   UNL     1      -1.016  13.582  21.332  0.00  0.00    +0.000 C 
BRANCH  25  26
ATOM     26  C   UNL     1      -2.312  13.379  22.086  0.00  0.00    +0.000 A 
ATOM     27  C   UNL     1      -2.408  12.399  23.083  0.00  0.00    +0.000 A 
ATOM     28  C   UNL     1      -3.600  12.214  23.785  0.00  0.00    +0.000 A 
ATOM     29  C   UNL     1      -4.717  13.016  23.516  0.00  0.00    +0.000 A 
ATOM     30  C   UNL     1      -5.918  12.854  24.226  0.00  0.00    +0.000 A 
ATOM     31  C   UNL     1      -7.015  13.676  23.965  0.00  0.00    +0.000 A 
ATOM     32  C   UNL     1      -6.927  14.665  22.990  0.00  0.00    +0.000 A 
ATOM     33  C   UNL     1      -5.745  14.828  22.265  0.00  0.00    +0.000 A 
ATOM     34  C   UNL     1      -4.631  14.013  22.517  0.00  0.00    +0.000 A 
ATOM     35  C   UNL     1      -3.431  14.174  21.805  0.00  0.00    +0.000 A 
ENDBRANCH  25  26
ENDBRANCH   6  25
TORSDOF 6
ENDMDL
MODEL 8
REMARK VINA RESULT:      -8.8      6.084     10.237
REMARK  Name = 
REMARK  6 active torsions:
REMARK  status: ('A' for Active; 'I' for Inactive)
REMARK    1  A    between atoms: C_2  and  C_3
REMARK    2  A    between atoms: C_3  and  C_4
REMARK    3  A    between atoms: N_14  and  C_15
REMARK    4  A    between atoms: C_15  and  C_16
REMARK    5  A    between atoms: N_21  and  C_22
REMARK    6  A    between atoms: C_22  and  C_23
REMARK                            x       y       z     vdW  Elec       q    Type
REMARK                         _______ _______ _______ _____ _____    ______ ____
ROOT
ATOM      1  C   UNL     1       7.190   6.248  16.977  0.00  0.00    +0.000 C 
ATOM      2  O   UNL     1       7.699   6.206  15.852  0.00  0.00    +0.000 OA
ATOM      3  N   UNL     1       5.986   5.628  17.252  0.00  0.00    +0.000 N 
ATOM      4  C   UNL     1       5.357   4.781  16.232  0.00  0.00    +0.000 C 
ATOM      5  C   UNL     1       4.896   3.431  16.831  0.00  0.00    +0.000 C 
ATOM      6  N   UNL     1       4.078   3.545  18.067  0.00  0.00    +0.000 NA
ATOM      7  C   UNL     1       4.819   4.387  19.035  0.00  0.00    +0.000 C 
ATOM      8  C   UNL     1       5.208   5.771  18.488  0.00  0.00    +0.000 C 
ENDROOT
BRANCH   1   9
ATOM      9  C   UNL     1       7.875   7.075  18.068  0.00  0.00    +0.000 C 
BRANCH   9  12
ATOM     10  O   UNL     1       9.199   9.188  19.439  0.00  0.00    +0.000 OA
ATOM     11  C   UNL     1       8.585   9.428  18.405  0.00  0.00    +0.000 C 
ATOM     12  N   UNL     1       7.923   8.470  17.674  0.00  0.00    +0.000 N 
ATOM     13  H   UNL     1       7.306   8.751  16.922  0.00  0.00    +0.000 HD
BRANCH  11  14
ATOM     14  C   UNL     1       8.501  10.825  17.811  0.00  0.00    +0.000 C 
BRANCH  14  15
ATOM     15  C   UNL     1       9.521  11.839  18.367  0.00  0.00    +0.000 C 
ATOM     16  C   UNL     1       9.682  11.704  19.903  0.00  0.00    +0.000 C 
ATOM     17  C   UNL     1      10.743  12.687  20.429  0.00  0.00    +0.000 C 
ATOM     18  C   UNL     1      12.094  12.383  19.762  0.00  0.00    +0.000 C 
ATOM     19  C   UNL     1      11.971  12.531  18.238  0.00  0.00    +0.000 C 
ATOM     20  C   UNL     1      11.547  13.970  17.903  0.00  0.00    +0.000 C 
ATOM     21  C   UNL     1      10.192  14.283  18.558  0.00  0.00    +0.000 C 
ATOM     22  C   UNL     1      10.319  14.122  20.083  0.00  0.00    +0.000 C 
ATOM     23  C   UNL     1       9.130  13.301  18.034  0.00  0.00    +0.000 C 
ATOM     24  C   UNL     1      10.905  11.555  17.717  0.00  0.00    +0.000 C 
ENDBRANCH  14  15
ENDBRANCH  11  14
ENDBRANCH   9  12
ENDBRANCH   1   9
BRANCH   6  25
ATOM     25  C   UNL     1       2.741   4.078  17.744  0.00  0.00    +0.000 C 
BRANCH  25  26
ATOM     26  C   UNL     1       2.319   5.267  18.579  0.00  0.00    +0.000 A 
ATOM     27  C   UNL     1       2.075   5.120  19.951  0.00  0.00    +0.000 A 
ATOM     28  C   UNL     1       1.692   6.217  20.725  0.00  0.00    +0.000 A 
ATOM     29  C   UNL     1       1.560   7.486  20.147  0.00  0.00    +0.000 A 
ATOM     30  C   UNL     1       1.193   8.603  20.916  0.00  0.00    +0.000 A 
ATOM     31  C   UNL     1       1.089   9.866  20.332  0.00  0.00    +0.000 A 
ATOM     32  C   UNL     1       1.345  10.027  18.974  0.00  0.00    +0.000 A 
ATOM     33  C   UNL     1       1.696   8.925  18.193  0.00  0.00    +0.000 A 
ATOM     34  C   UNL     1       1.809   7.649  18.765  0.00  0.00    +0.000 A 
ATOM     35  C   UNL     1       2.174   6.532  17.994  0.00  0.00    +0.000 A 
ENDBRANCH  25  26
ENDBRANCH   6  25
TORSDOF 6
ENDMDL
MODEL 9
REMARK VINA RESULT:      -8.7      6.070     10.258
REMARK  Name = 
REMARK  6 active torsions:
REMARK  status: ('A' for Active; 'I' for Inactive)
REMARK    1  A    between atoms: C_2  and  C_3
REMARK    2  A    between atoms: C_3  and  C_4
REMARK    3  A    between atoms: N_14  and  C_15
REMARK    4  A    between atoms: C_15  and  C_16
REMARK    5  A    between atoms: N_21  and  C_22
REMARK    6  A    between atoms: C_22  and  C_23
REMARK                            x       y       z     vdW  Elec       q    Type
REMARK                         _______ _______ _______ _____ _____    ______ ____
ROOT
ATOM      1  C   UNL     1       7.143   6.257  17.019  0.00  0.00    +0.000 C 
ATOM      2  O   UNL     1       7.641   6.228  15.887  0.00  0.00    +0.000 OA
ATOM      3  N   UNL     1       5.959   5.605  17.307  0.00  0.00    +0.000 N 
ATOM      4  C   UNL     1       5.342   4.741  16.294  0.00  0.00    +0.000 C 
ATOM      5  C   UNL     1       4.923   3.379  16.898  0.00  0.00    +0.000 C 
ATOM      6  N   UNL     1       4.117   3.472  18.142  0.00  0.00    +0.000 NA
ATOM      7  C   UNL     1       4.845   4.335  19.102  0.00  0.00    +0.000 C 
ATOM      8  C   UNL     1       5.191   5.728  18.551  0.00  0.00    +0.000 C 
ENDROOT
BRANCH   1   9
ATOM      9  C   UNL     1       7.817   7.103  18.101  0.00  0.00    +0.000 C 
BRANCH   9  12
ATOM     10  O   UNL     1       9.241   9.212  19.376  0.00  0.00    +0.000 OA
ATOM     11  C   UNL     1       8.586   9.447  18.365  0.00  0.00    +0.000 C 
ATOM     12  N   UNL     1       7.875   8.490  17.682  0.00  0.00    +0.000 N 
ATOM     13  H   UNL     1       7.230   8.770  16.953  0.00  0.00    +0.000 HD
BRANCH  11  14
ATOM     14  C   UNL     1       8.502  10.835  17.752  0.00  0.00    +0.000 C 
BRANCH  14  15
ATOM     15  C   UNL     1       9.532  11.853  18.283  0.00  0.00    +0.000 C 
ATOM     16  C   UNL     1       9.151  13.305  17.896  0.00  0.00    +0.000 C 
ATOM     17  C   UNL     1      10.161  14.308  18.480  0.00  0.00    +0.000 C 
ATOM     18  C   UNL     1      10.165  14.191  20.013  0.00  0.00    +0.000 C 
ATOM     19  C   UNL     1      10.562  12.766  20.429  0.00  0.00    +0.000 C 
ATOM     20  C   UNL     1      11.966  12.454  19.888  0.00  0.00    +0.000 C 
ATOM     21  C   UNL     1      11.972  12.560  18.354  0.00  0.00    +0.000 C 
ATOM     22  C   UNL     1      11.564  13.986  17.944  0.00  0.00    +0.000 C 
ATOM     23  C   UNL     1      10.963  11.558  17.766  0.00  0.00    +0.000 C 
ATOM     24  C   UNL     1       9.557  11.766  19.835  0.00  0.00    +0.000 C 
ENDBRANCH  14  15
ENDBRANCH  11  14
ENDBRANCH   9  12
ENDBRANCH   1   9
BRANCH   6  25
ATOM     25  C   UNL     1       2.762   3.970  17.834  0.00  0.00    +0.000 C 
BRANCH  25  26
ATOM     26  C   UNL     1       2.316   5.146  18.674  0.00  0.00    +0.000 A 
ATOM     27  C   UNL     1       2.007   4.973  20.030  0.00  0.00    +0.000 A 
ATOM     28  C   UNL     1       1.603   6.058  20.809  0.00  0.00    +0.000 A 
ATOM     29  C   UNL     1       1.514   7.341  20.254  0.00  0.00    +0.000 A 
ATOM     30  C   UNL     1       1.126   8.446  21.029  0.00  0.00    +0.000 A 
ATOM     31  C   UNL     1       1.065   9.722  20.469  0.00  0.00    +0.000 A 
ATOM     32  C   UNL     1       1.386   9.910  19.128  0.00  0.00    +0.000 A 
ATOM     33  C   UNL     1       1.760   8.820  18.340  0.00  0.00    +0.000 A 
ATOM     34  C   UNL     1       1.829   7.530  18.889  0.00  0.00    +0.000 A 
ATOM     35  C   UNL     1       2.215   6.425  18.111  0.00  0.00    +0.000 A 
ENDBRANCH  25  26
ENDBRANCH   6  25
TORSDOF 6
ENDMDL
