MODEL 1
REMARK VINA RESULT:      -7.7      0.000      0.000
REMARK  Name = 
REMARK  5 active torsions:
REMARK  status: ('A' for Active; 'I' for Inactive)
REMARK    1  A    between atoms: C_5  and  C_6
REMARK    2  A    between atoms: C_6  and  N_7
REMARK    3  A    between atoms: N_7  and  C_8
REMARK    4  A    between atoms: C_13  and  C_14
REMARK    5  A    between atoms: C_14  and  N_15
REMARK                            x       y       z     vdW  Elec       q    Type
REMARK                         _______ _______ _______ _____ _____    ______ ____
ROOT
ATOM      1  C   UNL     1       2.678   4.205  18.197  0.00  0.00    +0.000 A 
ATOM      2  C   UNL     1       1.861   3.066  18.014  0.00  0.00    +0.000 A 
ATOM      3  C   UNL     1       0.923   2.650  18.960  0.00  0.00    +0.000 A 
ATOM      4  C   UNL     1       0.772   3.375  20.127  0.00  0.00    +0.000 A 
ATOM      5  C   UNL     1       1.549   4.515  20.329  0.00  0.00    +0.000 A 
ATOM      6  C   UNL     1       2.491   4.962  19.369  0.00  0.00    +0.000 A 
ENDROOT
BRANCH   1   7
ATOM      7  N   UNL     1       3.523   4.481  17.121  0.00  0.00    +0.000 N 
ATOM      8  H   UNL     1       3.404   5.427  16.763  0.00  0.00    +0.000 HD
BRANCH   7   9
ATOM      9  C   UNL     1       4.866   3.967  16.942  0.00  0.00    +0.000 C 
BRANCH   9  14
ATOM     10  F   UNL     1       8.612   7.857  18.659  0.00  0.00    +0.000 F 
ATOM     11  C   UNL     1       7.748   6.932  18.219  0.00  0.00    +0.000 A 
ATOM     12  C   UNL     1       7.813   5.642  18.727  0.00  0.00    +0.000 A 
ATOM     13  C   UNL     1       6.888   4.685  18.299  0.00  0.00    +0.000 A 
ATOM     14  C   UNL     1       5.887   5.015  17.367  0.00  0.00    +0.000 A 
ATOM     15  C   UNL     1       5.871   6.318  16.835  0.00  0.00    +0.000 A 
ATOM     16  C   UNL     1       6.795   7.276  17.268  0.00  0.00    +0.000 A 
ENDBRANCH   9  14
ENDBRANCH   7   9
ENDBRANCH   1   7
BRANCH   6  17
ATOM     17  C   UNL     1       3.141   6.295  19.669  0.00  0.00    +0.000 C 
BRANCH  17  18
ATOM     18  N   UNL     1       2.573   7.456  19.002  0.00  0.00    +0.000 N 
ATOM     19  C   UNL     1       2.727   7.912  17.730  0.00  0.00    +0.000 A 
ATOM     20  N   UNL     1       1.999   8.989  17.549  0.00  0.00    +0.000 NA
ATOM     21  C   UNL     1       1.412   9.171  18.767  0.00  0.00    +0.000 A 
ATOM     22  N   UNL     1       1.730   8.261  19.690  0.00  0.00    +0.000 NA
ENDBRANCH  17  18
ENDBRANCH   6  17
TORSDOF 5
ENDMDL
MODEL 2
REMARK VINA RESULT:      -7.6      0.845      1.514
REMARK  Name = 
REMARK  5 active torsions:
REMARK  status: ('A' for Active; 'I' for Inactive)
REMARK    1  A    between atoms: C_5  and  C_6
REMARK    2  A    between atoms: C_6  and  N_7
REMARK    3  A    between atoms: N_7  and  C_8
REMARK    4  A    between atoms: C_13  and  C_14
REMARK    5  A    between atoms: C_14  and  N_15
REMARK                            x       y       z     vdW  Elec       q    Type
REMARK                         _______ _______ _______ _____ _____    ______ ____
ROOT
ATOM      1  C   UNL     1       3.329   3.320  18.535  0.00  0.00    +0.000 A 
ATOM      2  C   UNL     1       2.492   2.242  18.167  0.00  0.00    +0.000 A 
ATOM      3  C   UNL     1       1.180   2.115  18.626  0.00  0.00    +0.000 A 
ATOM      4  C   UNL     1       0.663   3.077  19.472  0.00  0.00    +0.000 A 
ATOM      5  C   UNL     1       1.456   4.163  19.838  0.00  0.00    +0.000 A 
ATOM      6  C   UNL     1       2.783   4.319  19.364  0.00  0.00    +0.000 A 
ENDROOT
BRANCH   1   7
ATOM      7  N   UNL     1       4.591   3.292  17.940  0.00  0.00    +0.000 N 
ATOM      8  H   UNL     1       4.981   2.352  17.896  0.00  0.00    +0.000 HD
BRANCH   7   9
ATOM      9  C   UNL     1       5.041   4.149  16.861  0.00  0.00    +0.000 C 
BRANCH   9  14
ATOM     10  F   UNL     1       8.771   7.996  18.706  0.00  0.00    +0.000 F 
ATOM     11  C   UNL     1       7.865   7.095  18.302  0.00  0.00    +0.000 A 
ATOM     12  C   UNL     1       6.988   7.422  17.277  0.00  0.00    +0.000 A 
ATOM     13  C   UNL     1       6.068   6.471  16.826  0.00  0.00    +0.000 A 
ATOM     14  C   UNL     1       6.026   5.183  17.392  0.00  0.00    +0.000 A 
ATOM     15  C   UNL     1       6.895   4.893  18.460  0.00  0.00    +0.000 A 
ATOM     16  C   UNL     1       7.819   5.845  18.907  0.00  0.00    +0.000 A 
ENDBRANCH   9  14
ENDBRANCH   7   9
ENDBRANCH   1   7
BRANCH   6  17
ATOM     17  C   UNL     1       3.454   5.624  19.729  0.00  0.00    +0.000 C 
BRANCH  17  18
ATOM     18  N   UNL     1       2.764   6.840  19.327  0.00  0.00    +0.000 N 
ATOM     19  C   UNL     1       1.955   7.676  20.031  0.00  0.00    +0.000 A 
ATOM     20  N   UNL     1       1.572   8.676  19.270  0.00  0.00    +0.000 NA
ATOM     21  C   UNL     1       2.171   8.399  18.076  0.00  0.00    +0.000 A 
ATOM     22  N   UNL     1       2.912   7.288  18.058  0.00  0.00    +0.000 NA
ENDBRANCH  17  18
ENDBRANCH   6  17
TORSDOF 5
ENDMDL
MODEL 3
REMARK VINA RESULT:      -7.4      2.597      5.322
REMARK  Name = 
REMARK  5 active torsions:
REMARK  status: ('A' for Active; 'I' for Inactive)
REMARK    1  A    between atoms: C_5  and  C_6
REMARK    2  A    between atoms: C_6  and  N_7
REMARK    3  A    between atoms: N_7  and  C_8
REMARK    4  A    between atoms: C_13  and  C_14
REMARK    5  A    between atoms: C_14  and  N_15
REMARK                            x       y       z     vdW  Elec       q    Type
REMARK                         _______ _______ _______ _____ _____    ______ ____
ROOT
ATOM      1  C   UNL     1       2.308   7.123  19.713  0.00  0.00    +0.000 A 
ATOM      2  C   UNL     1       1.470   8.207  20.061  0.00  0.00    +0.000 A 
ATOM      3  C   UNL     1       1.269   9.305  19.224  0.00  0.00    +0.000 A 
ATOM      4  C   UNL     1       1.906   9.346  17.998  0.00  0.00    +0.000 A 
ATOM      5  C   UNL     1       2.723   8.284  17.616  0.00  0.00    +0.000 A 
ATOM      6  C   UNL     1       2.921   7.151  18.446  0.00  0.00    +0.000 A 
ENDROOT
BRANCH   1   7
ATOM      7  N   UNL     1       2.346   6.102  20.664  0.00  0.00    +0.000 N 
ATOM      8  H   UNL     1       2.597   6.442  21.592  0.00  0.00    +0.000 HD
BRANCH   7   9
ATOM      9  C   UNL     1       1.485   4.937  20.695  0.00  0.00    +0.000 C 
BRANCH   9  14
ATOM     10  F   UNL     1       3.949   0.790  17.720  0.00  0.00    +0.000 F 
ATOM     11  C   UNL     1       3.340   1.744  18.439  0.00  0.00    +0.000 A 
ATOM     12  C   UNL     1       3.930   2.194  19.612  0.00  0.00    +0.000 A 
ATOM     13  C   UNL     1       3.318   3.216  20.344  0.00  0.00    +0.000 A 
ATOM     14  C   UNL     1       2.117   3.800  19.902  0.00  0.00    +0.000 A 
ATOM     15  C   UNL     1       1.517   3.293  18.734  0.00  0.00    +0.000 A 
ATOM     16  C   UNL     1       2.133   2.273  18.001  0.00  0.00    +0.000 A 
ENDBRANCH   9  14
ENDBRANCH   7   9
ENDBRANCH   1   7
BRANCH   6  17
ATOM     17  C   UNL     1       3.711   6.021  17.825  0.00  0.00    +0.000 C 
BRANCH  17  18
ATOM     18  N   UNL     1       5.155   6.073  17.993  0.00  0.00    +0.000 N 
ATOM     19  C   UNL     1       6.113   6.694  17.254  0.00  0.00    +0.000 A 
ATOM     20  N   UNL     1       7.293   6.495  17.794  0.00  0.00    +0.000 NA
ATOM     21  C   UNL     1       7.009   5.717  18.878  0.00  0.00    +0.000 A 
ATOM     22  N   UNL     1       5.715   5.430  19.045  0.00  0.00    +0.000 NA
ENDBRANCH  17  18
ENDBRANCH   6  17
TORSDOF 5
ENDMDL
MODEL 4
REMARK VINA RESULT:      -7.3      3.327      6.305
REMARK  Name = 
REMARK  5 active torsions:
REMARK  status: ('A' for Active; 'I' for Inactive)
REMARK    1  A    between atoms: C_5  and  C_6
REMARK    2  A    between atoms: C_6  and  N_7
REMARK    3  A    between atoms: N_7  and  C_8
REMARK    4  A    between atoms: C_13  and  C_14
REMARK    5  A    between atoms: C_14  and  N_15
REMARK                            x       y       z     vdW  Elec       q    Type
REMARK                         _______ _______ _______ _____ _____    ______ ____
ROOT
ATOM      1  C   UNL     1       2.238   5.738  19.696  0.00  0.00    +0.000 A 
ATOM      2  C   UNL     1       1.404   5.015  20.579  0.00  0.00    +0.000 A 
ATOM      3  C   UNL     1       1.096   3.667  20.391  0.00  0.00    +0.000 A 
ATOM      4  C   UNL     1       1.624   2.997  19.304  0.00  0.00    +0.000 A 
ATOM      5  C   UNL     1       2.467   3.676  18.426  0.00  0.00    +0.000 A 
ATOM      6  C   UNL     1       2.807   5.040  18.614  0.00  0.00    +0.000 A 
ENDROOT
BRANCH   1   7
ATOM      7  N   UNL     1       2.461   7.063  20.077  0.00  0.00    +0.000 N 
ATOM      8  H   UNL     1       3.419   7.225  20.382  0.00  0.00    +0.000 HD
BRANCH   7   9
ATOM      9  C   UNL     1       1.843   8.232  19.485  0.00  0.00    +0.000 C 
BRANCH   9  14
ATOM     10  F   UNL     1      -1.104  11.136  23.358  0.00  0.00    +0.000 F 
ATOM     11  C   UNL     1      -0.435  10.420  22.443  0.00  0.00    +0.000 A 
ATOM     12  C   UNL     1      -0.523  10.773  21.103  0.00  0.00    +0.000 A 
ATOM     13  C   UNL     1       0.204  10.053  20.151  0.00  0.00    +0.000 A 
ATOM     14  C   UNL     1       1.030   8.981  20.534  0.00  0.00    +0.000 A 
ATOM     15  C   UNL     1       1.065   8.615  21.892  0.00  0.00    +0.000 A 
ATOM     16  C   UNL     1       0.340   9.340  22.845  0.00  0.00    +0.000 A 
ENDBRANCH   9  14
ENDBRANCH   7   9
ENDBRANCH   1   7
BRANCH   6  17
ATOM     17  C   UNL     1       3.849   5.586  17.663  0.00  0.00    +0.000 C 
BRANCH  17  18
ATOM     18  N   UNL     1       5.234   5.259  17.966  0.00  0.00    +0.000 N 
ATOM     19  C   UNL     1       5.930   5.336  19.132  0.00  0.00    +0.000 A 
ATOM     20  N   UNL     1       7.158   4.908  18.949  0.00  0.00    +0.000 NA
ATOM     21  C   UNL     1       7.177   4.586  17.624  0.00  0.00    +0.000 A 
ATOM     22  N   UNL     1       6.025   4.781  16.977  0.00  0.00    +0.000 NA
ENDBRANCH  17  18
ENDBRANCH   6  17
TORSDOF 5
ENDMDL
MODEL 5
REMARK VINA RESULT:      -7.3      2.632      5.421
REMARK  Name = 
REMARK  5 active torsions:
REMARK  status: ('A' for Active; 'I' for Inactive)
REMARK    1  A    between atoms: C_5  and  C_6
REMARK    2  A    between atoms: C_6  and  N_7
REMARK    3  A    between atoms: N_7  and  C_8
REMARK    4  A    between atoms: C_13  and  C_14
REMARK    5  A    between atoms: C_14  and  N_15
REMARK                            x       y       z     vdW  Elec       q    Type
REMARK                         _______ _______ _______ _____ _____    ______ ____
ROOT
ATOM      1  C   UNL     1       2.270   7.188  19.708  0.00  0.00    +0.000 A 
ATOM      2  C   UNL     1       1.428   8.256  20.094  0.00  0.00    +0.000 A 
ATOM      3  C   UNL     1       1.202   9.368  19.282  0.00  0.00    +0.000 A 
ATOM      4  C   UNL     1       1.815   9.440  18.045  0.00  0.00    +0.000 A 
ATOM      5  C   UNL     1       2.635   8.392  17.627  0.00  0.00    +0.000 A 
ATOM      6  C   UNL     1       2.858   7.246  18.431  0.00  0.00    +0.000 A 
ENDROOT
BRANCH   1   7
ATOM      7  N   UNL     1       2.335   6.148  20.639  0.00  0.00    +0.000 N 
ATOM      8  H   UNL     1       2.582   6.475  21.572  0.00  0.00    +0.000 HD
BRANCH   7   9
ATOM      9  C   UNL     1       1.501   4.964  20.649  0.00  0.00    +0.000 C 
BRANCH   9  14
ATOM     10  F   UNL     1       3.935   0.682  17.847  0.00  0.00    +0.000 F 
ATOM     11  C   UNL     1       3.386   1.720  18.493  0.00  0.00    +0.000 A 
ATOM     12  C   UNL     1       2.206   2.274  18.015  0.00  0.00    +0.000 A 
ATOM     13  C   UNL     1       1.611   3.332  18.708  0.00  0.00    +0.000 A 
ATOM     14  C   UNL     1       2.186   3.836  19.889  0.00  0.00    +0.000 A 
ATOM     15  C   UNL     1       3.405   3.286  20.326  0.00  0.00    +0.000 A 
ATOM     16  C   UNL     1       3.998   2.224  19.634  0.00  0.00    +0.000 A 
ENDBRANCH   9  14
ENDBRANCH   7   9
ENDBRANCH   1   7
BRANCH   6  17
ATOM     17  C   UNL     1       3.647   6.136  17.773  0.00  0.00    +0.000 C 
BRANCH  17  18
ATOM     18  N   UNL     1       5.083   6.139  18.003  0.00  0.00    +0.000 N 
ATOM     19  C   UNL     1       5.833   5.507  18.946  0.00  0.00    +0.000 A 
ATOM     20  N   UNL     1       7.105   5.773  18.759  0.00  0.00    +0.000 NA
ATOM     21  C   UNL     1       7.089   6.602  17.675  0.00  0.00    +0.000 A 
ATOM     22  N   UNL     1       5.878   6.857  17.175  0.00  0.00    +0.000 NA
ENDBRANCH  17  18
ENDBRANCH   6  17
TORSDOF 5
ENDMDL
MODEL 6
REMARK VINA RESULT:      -7.2      3.523      6.501
REMARK  Name = 
REMARK  5 active torsions:
REMARK  status: ('A' for Active; 'I' for Inactive)
REMARK    1  A    between atoms: C_5  and  C_6
REMARK    2  A    between atoms: C_6  and  N_7
REMARK    3  A    between atoms: N_7  and  C_8
REMARK    4  A    between atoms: C_13  and  C_14
REMARK    5  A    between atoms: C_14  and  N_15
REMARK                            x       y       z     vdW  Elec       q    Type
REMARK                         _______ _______ _______ _____ _____    ______ ____
ROOT
ATOM      1  C   UNL     1       6.182   4.800  17.832  0.00  0.00    +0.000 A 
ATOM      2  C   UNL     1       6.836   4.884  19.083  0.00  0.00    +0.000 A 
ATOM      3  C   UNL     1       7.715   5.918  19.406  0.00  0.00    +0.000 A 
ATOM      4  C   UNL     1       7.965   6.910  18.477  0.00  0.00    +0.000 A 
ATOM      5  C   UNL     1       7.320   6.867  17.242  0.00  0.00    +0.000 A 
ATOM      6  C   UNL     1       6.407   5.836  16.905  0.00  0.00    +0.000 A 
ENDROOT
BRANCH   1   7
ATOM      7  N   UNL     1       5.309   3.717  17.715  0.00  0.00    +0.000 N 
ATOM      8  H   UNL     1       5.527   2.968  18.371  0.00  0.00    +0.000 HD
BRANCH   7   9
ATOM      9  C   UNL     1       3.901   3.792  17.380  0.00  0.00    +0.000 C 
BRANCH   9  14
ATOM     10  F   UNL     1       0.873   2.690  22.042  0.00  0.00    +0.000 F 
ATOM     11  C   UNL     1       1.557   2.969  20.923  0.00  0.00    +0.000 A 
ATOM     12  C   UNL     1       2.454   4.029  20.919  0.00  0.00    +0.000 A 
ATOM     13  C   UNL     1       3.197   4.298  19.767  0.00  0.00    +0.000 A 
ATOM     14  C   UNL     1       3.055   3.504  18.614  0.00  0.00    +0.000 A 
ATOM     15  C   UNL     1       2.106   2.465  18.630  0.00  0.00    +0.000 A 
ATOM     16  C   UNL     1       1.365   2.194  19.787  0.00  0.00    +0.000 A 
ENDBRANCH   9  14
ENDBRANCH   7   9
ENDBRANCH   1   7
BRANCH   6  17
ATOM     17  C   UNL     1       5.679   6.016  15.592  0.00  0.00    +0.000 C 
BRANCH  17  18
ATOM     18  N   UNL     1       6.078   5.134  14.506  0.00  0.00    +0.000 N 
ATOM     19  C   UNL     1       5.434   4.082  13.935  0.00  0.00    +0.000 A 
ATOM     20  N   UNL     1       6.159   3.589  12.958  0.00  0.00    +0.000 NA
ATOM     21  C   UNL     1       7.273   4.377  12.974  0.00  0.00    +0.000 A 
ATOM     22  N   UNL     1       7.272   5.338  13.901  0.00  0.00    +0.000 NA
ENDBRANCH  17  18
ENDBRANCH   6  17
TORSDOF 5
ENDMDL
MODEL 7
REMARK VINA RESULT:      -7.2      2.823      5.677
REMARK  Name = 
REMARK  5 active torsions:
REMARK  status: ('A' for Active; 'I' for Inactive)
REMARK    1  A    between atoms: C_5  and  C_6
REMARK    2  A    between atoms: C_6  and  N_7
REMARK    3  A    between atoms: N_7  and  C_8
REMARK    4  A    between atoms: C_13  and  C_14
REMARK    5  A    between atoms: C_14  and  N_15
REMARK                            x       y       z     vdW  Elec       q    Type
REMARK                         _______ _______ _______ _____ _____    ______ ____
ROOT
ATOM      1  C   UNL     1       3.228   5.022  18.213  0.00  0.00    +0.000 A 
ATOM      2  C   UNL     1       1.852   4.707  18.283  0.00  0.00    +0.000 A 
ATOM      3  C   UNL     1       1.365   3.411  18.108  0.00  0.00    +0.000 A 
ATOM      4  C   UNL     1       2.254   2.382  17.859  0.00  0.00    +0.000 A 
ATOM      5  C   UNL     1       3.619   2.657  17.803  0.00  0.00    +0.000 A 
ATOM      6  C   UNL     1       4.132   3.963  18.000  0.00  0.00    +0.000 A 
ENDROOT
BRANCH   1   7
ATOM      7  N   UNL     1       3.520   6.365  18.457  0.00  0.00    +0.000 N 
ATOM      8  H   UNL     1       4.466   6.502  18.809  0.00  0.00    +0.000 HD
BRANCH   7   9
ATOM      9  C   UNL     1       3.025   7.494  17.695  0.00  0.00    +0.000 C 
BRANCH   9  14
ATOM     10  F   UNL     1      -0.468  10.668  20.833  0.00  0.00    +0.000 F 
ATOM     11  C   UNL     1       0.329   9.888  20.089  0.00  0.00    +0.000 A 
ATOM     12  C   UNL     1       0.480  10.161  18.736  0.00  0.00    +0.000 A 
ATOM     13  C   UNL     1       1.340   9.374  17.966  0.00  0.00    +0.000 A 
ATOM     14  C   UNL     1       2.063   8.316  18.545  0.00  0.00    +0.000 A 
ATOM     15  C   UNL     1       1.858   8.032  19.908  0.00  0.00    +0.000 A 
ATOM     16  C   UNL     1       0.999   8.824  20.679  0.00  0.00    +0.000 A 
ENDBRANCH   9  14
ENDBRANCH   7   9
ENDBRANCH   1   7
BRANCH   6  17
ATOM     17  C   UNL     1       5.639   4.067  18.060  0.00  0.00    +0.000 C 
BRANCH  17  18
ATOM     18  N   UNL     1       6.298   4.606  16.880  0.00  0.00    +0.000 N 
ATOM     19  C   UNL     1       7.025   5.742  16.711  0.00  0.00    +0.000 A 
ATOM     20  N   UNL     1       7.458   5.817  15.473  0.00  0.00    +0.000 NA
ATOM     21  C   UNL     1       6.949   4.688  14.901  0.00  0.00    +0.000 A 
ATOM     22  N   UNL     1       6.232   3.913  15.719  0.00  0.00    +0.000 NA
ENDBRANCH  17  18
ENDBRANCH   6  17
TORSDOF 5
ENDMDL
MODEL 8
REMARK VINA RESULT:      -7.2      3.277      6.007
REMARK  Name = 
REMARK  5 active torsions:
REMARK  status: ('A' for Active; 'I' for Inactive)
REMARK    1  A    between atoms: C_5  and  C_6
REMARK    2  A    between atoms: C_6  and  N_7
REMARK    3  A    between atoms: N_7  and  C_8
REMARK    4  A    between atoms: C_13  and  C_14
REMARK    5  A    between atoms: C_14  and  N_15
REMARK                            x       y       z     vdW  Elec       q    Type
REMARK                         _______ _______ _______ _____ _____    ______ ____
ROOT
ATOM      1  C   UNL     1       2.149   5.519  19.694  0.00  0.00    +0.000 A 
ATOM      2  C   UNL     1       1.337   4.804  20.604  0.00  0.00    +0.000 A 
ATOM      3  C   UNL     1       0.962   3.476  20.400  0.00  0.00    +0.000 A 
ATOM      4  C   UNL     1       1.398   2.817  19.266  0.00  0.00    +0.000 A 
ATOM      5  C   UNL     1       2.216   3.487  18.358  0.00  0.00    +0.000 A 
ATOM      6  C   UNL     1       2.624   4.829  18.562  0.00  0.00    +0.000 A 
ENDROOT
BRANCH   1   7
ATOM      7  N   UNL     1       2.449   6.821  20.096  0.00  0.00    +0.000 N 
ATOM      8  H   UNL     1       3.396   6.908  20.463  0.00  0.00    +0.000 HD
BRANCH   7   9
ATOM      9  C   UNL     1       1.965   8.036  19.472  0.00  0.00    +0.000 C 
BRANCH   9  14
ATOM     10  F   UNL     1      -1.103  10.953  23.241  0.00  0.00    +0.000 F 
ATOM     11  C   UNL     1      -0.351  10.294  22.347  0.00  0.00    +0.000 A 
ATOM     12  C   UNL     1       0.519   9.305  22.785  0.00  0.00    +0.000 A 
ATOM     13  C   UNL     1       1.275   8.590  21.852  0.00  0.00    +0.000 A 
ATOM     14  C   UNL     1       1.159   8.852  20.475  0.00  0.00    +0.000 A 
ATOM     15  C   UNL     1       0.303   9.891  20.062  0.00  0.00    +0.000 A 
ATOM     16  C   UNL     1      -0.456  10.603  20.997  0.00  0.00    +0.000 A 
ENDBRANCH   9  14
ENDBRANCH   7   9
ENDBRANCH   1   7
BRANCH   6  17
ATOM     17  C   UNL     1       3.632   5.360  17.566  0.00  0.00    +0.000 C 
BRANCH  17  18
ATOM     18  N   UNL     1       5.019   5.385  18.002  0.00  0.00    +0.000 N 
ATOM     19  C   UNL     1       5.730   4.501  18.752  0.00  0.00    +0.000 A 
ATOM     20  N   UNL     1       6.970   4.915  18.877  0.00  0.00    +0.000 NA
ATOM     21  C   UNL     1       6.973   6.091  18.185  0.00  0.00    +0.000 A 
ATOM     22  N   UNL     1       5.805   6.424  17.630  0.00  0.00    +0.000 NA
ENDBRANCH  17  18
ENDBRANCH   6  17
TORSDOF 5
ENDMDL
MODEL 9
REMARK VINA RESULT:      -7.1      2.826      5.929
REMARK  Name = 
REMARK  5 active torsions:
REMARK  status: ('A' for Active; 'I' for Inactive)
REMARK    1  A    between atoms: C_5  and  C_6
REMARK    2  A    between atoms: C_6  and  N_7
REMARK    3  A    between atoms: N_7  and  C_8
REMARK    4  A    between atoms: C_13  and  C_14
REMARK    5  A    between atoms: C_14  and  N_15
REMARK                            x       y       z     vdW  Elec       q    Type
REMARK                         _______ _______ _______ _____ _____    ______ ____
ROOT
ATOM      1  C   UNL     1       3.532   5.437  17.609  0.00  0.00    +0.000 A 
ATOM      2  C   UNL     1       4.329   6.417  16.973  0.00  0.00    +0.000 A 
ATOM      3  C   UNL     1       5.402   6.095  16.142  0.00  0.00    +0.000 A 
ATOM      4  C   UNL     1       5.709   4.766  15.919  0.00  0.00    +0.000 A 
ATOM      5  C   UNL     1       4.931   3.775  16.514  0.00  0.00    +0.000 A 
ATOM      6  C   UNL     1       3.824   4.085  17.344  0.00  0.00    +0.000 A 
ENDROOT
BRANCH   1   7
ATOM      7  N   UNL     1       2.481   5.958  18.365  0.00  0.00    +0.000 N 
ATOM      8  H   UNL     1       1.631   5.402  18.286  0.00  0.00    +0.000 HD
BRANCH   7   9
ATOM      9  C   UNL     1       2.606   6.635  19.640  0.00  0.00    +0.000 C 
BRANCH   9  14
ATOM     10  F   UNL     1       0.062  11.695  19.426  0.00  0.00    +0.000 F 
ATOM     11  C   UNL     1       0.627  10.480  19.474  0.00  0.00    +0.000 A 
ATOM     12  C   UNL     1       1.216   9.956  18.332  0.00  0.00    +0.000 A 
ATOM     13  C   UNL     1       1.840   8.707  18.388  0.00  0.00    +0.000 A 
ATOM     14  C   UNL     1       1.888   7.978  19.590  0.00  0.00    +0.000 A 
ATOM     15  C   UNL     1       1.244   8.512  20.722  0.00  0.00    +0.000 A 
ATOM     16  C   UNL     1       0.623   9.765  20.665  0.00  0.00    +0.000 A 
ENDBRANCH   9  14
ENDBRANCH   7   9
ENDBRANCH   1   7
BRANCH   6  17
ATOM     17  C   UNL     1       2.993   2.903  17.788  0.00  0.00    +0.000 C 
BRANCH  17  18
ATOM     18  N   UNL     1       2.579   2.891  19.183  0.00  0.00    +0.000 N 
ATOM     19  C   UNL     1       3.293   2.672  20.319  0.00  0.00    +0.000 A 
ATOM     20  N   UNL     1       2.512   2.787  21.368  0.00  0.00    +0.000 NA
ATOM     21  C   UNL     1       1.296   3.068  20.817  0.00  0.00    +0.000 A 
ATOM     22  N   UNL     1       1.283   3.143  19.484  0.00  0.00    +0.000 NA
ENDBRANCH  17  18
ENDBRANCH   6  17
TORSDOF 5
ENDMDL
