MODEL 1
REMARK VINA RESULT:      -8.1      0.000      0.000
REMARK  Name = 
REMARK  10 active torsions:
REMARK  status: ('A' for Active; 'I' for Inactive)
REMARK    1  A    between atoms: C_1  and  O_2
REMARK    2  A    between atoms: O_2  and  C_3
REMARK    3  A    between atoms: C_3  and  C_5
REMARK    4  A    between atoms: C_5  and  C_6
REMARK    5  A    between atoms: C_5  and  N_13
REMARK    6  A    between atoms: C_6  and  C_7
REMARK    7  A    between atoms: C_14  and  C_16
REMARK    8  A    between atoms: C_17  and  C_18
REMARK    9  A    between atoms: C_19  and  C_20
REMARK   10  A    between atoms: N_26  and  C_27
REMARK                            x       y       z     vdW  Elec       q    Type
REMARK                         _______ _______ _______ _____ _____    ______ ____
ROOT
ATOM      1  C   UNL     1       2.193   7.788  17.709  0.00  0.00    +0.000 C 
ATOM      2  C   UNL     1       3.055   7.002  18.375  0.00  0.00    +0.000 C 
ENDROOT
BRANCH   2   3
ATOM      3  C   UNL     1       3.608   5.796  17.839  0.00  0.00    +0.000 A 
ATOM      4  C   UNL     1       3.383   4.490  18.293  0.00  0.00    +0.000 A 
ATOM      5  N   UNL     1       4.140   3.676  17.448  0.00  0.00    +0.000 N 
ATOM      6  C   UNL     1       4.216   2.231  17.407  0.00  0.00    +0.000 C 
ATOM      7  C   UNL     1       4.867   4.437  16.562  0.00  0.00    +0.000 A 
ATOM      8  N   UNL     1       5.730   3.948  15.641  0.00  0.00    +0.000 NA
ATOM      9  C   UNL     1       6.317   4.907  14.892  0.00  0.00    +0.000 A 
ATOM     10  C   UNL     1       6.094   6.272  15.008  0.00  0.00    +0.000 A 
ATOM     11  C   UNL     1       5.194   6.726  15.971  0.00  0.00    +0.000 A 
ATOM     12  C   UNL     1       4.556   5.769  16.776  0.00  0.00    +0.000 A 
BRANCH   4  13
ATOM     13  C   UNL     1       2.545   4.010  19.420  0.00  0.00    +0.000 A 
ATOM     14  C   UNL     1       3.035   4.029  20.734  0.00  0.00    +0.000 A 
ATOM     15  C   UNL     1       2.296   3.512  21.802  0.00  0.00    +0.000 A 
ATOM     16  C   UNL     1       1.021   3.009  21.584  0.00  0.00    +0.000 A 
ATOM     17  C   UNL     1       0.496   3.008  20.295  0.00  0.00    +0.000 A 
ATOM     18  C   UNL     1       1.262   3.478  19.220  0.00  0.00    +0.000 A 
ENDBRANCH   4  13
ENDBRANCH   2   3
BRANCH   1  20
ATOM     19  N   UNL     1       0.763   8.888  19.276  0.00  0.00    +0.000 N 
ATOM     20  C   UNL     1       1.737   9.056  18.325  0.00  0.00    +0.000 C 
ATOM     21  O   UNL     1       2.205  10.138  18.003  0.00  0.00    +0.000 OA
ATOM     22  H   UNL     1       0.424   7.964  19.518  0.00  0.00    +0.000 HD
BRANCH  19  23
ATOM     23  C   UNL     1       0.153  10.027  19.977  0.00  0.00    +0.000 C 
BRANCH  23  24
ATOM     24  C   UNL     1       1.099  10.529  21.079  0.00  0.00    +0.000 C 
ATOM     25  O   UNL     1       1.691  11.603  21.048  0.00  0.00    +0.000 OA
BRANCH  24  27
ATOM     26  C   UNL     1       0.045   9.435  22.882  0.00  0.00    +0.000 C 
ATOM     27  O   UNL     1       1.213   9.603  22.077  0.00  0.00    +0.000 OA
ENDBRANCH  24  27
ENDBRANCH  23  24
BRANCH  23  28
ATOM     28  C   UNL     1      -0.283  11.183  19.052  0.00  0.00    +0.000 C 
BRANCH  28  29
ATOM     29  C   UNL     1      -1.633  11.002  18.395  0.00  0.00    +0.000 A 
ATOM     30  C   UNL     1      -1.797  10.089  17.347  0.00  0.00    +0.000 A 
ATOM     31  C   UNL     1      -3.044   9.921  16.742  0.00  0.00    +0.000 A 
ATOM     32  C   UNL     1      -4.137  10.669  17.175  0.00  0.00    +0.000 A 
ATOM     33  C   UNL     1      -3.987  11.578  18.220  0.00  0.00    +0.000 A 
ATOM     34  C   UNL     1      -2.743  11.741  18.831  0.00  0.00    +0.000 A 
ENDBRANCH  28  29
ENDBRANCH  23  28
ENDBRANCH  19  23
ENDBRANCH   1  20
TORSDOF 8
ENDMDL
MODEL 2
REMARK VINA RESULT:      -8.0      1.958      5.072
REMARK  Name = 
REMARK  10 active torsions:
REMARK  status: ('A' for Active; 'I' for Inactive)
REMARK    1  A    between atoms: C_1  and  O_2
REMARK    2  A    between atoms: O_2  and  C_3
REMARK    3  A    between atoms: C_3  and  C_5
REMARK    4  A    between atoms: C_5  and  C_6
REMARK    5  A    between atoms: C_5  and  N_13
REMARK    6  A    between atoms: C_6  and  C_7
REMARK    7  A    between atoms: C_14  and  C_16
REMARK    8  A    between atoms: C_17  and  C_18
REMARK    9  A    between atoms: C_19  and  C_20
REMARK   10  A    between atoms: N_26  and  C_27
REMARK                            x       y       z     vdW  Elec       q    Type
REMARK                         _______ _______ _______ _____ _____    ______ ____
ROOT
ATOM      1  C   UNL     1       2.125   7.685  18.044  0.00  0.00    +0.000 C 
ATOM      2  C   UNL     1       2.697   7.189  19.155  0.00  0.00    +0.000 C 
ENDROOT
BRANCH   2   3
ATOM      3  C   UNL     1       3.110   5.827  19.295  0.00  0.00    +0.000 A 
ATOM      4  C   UNL     1       4.370   5.292  18.993  0.00  0.00    +0.000 A 
ATOM      5  N   UNL     1       4.270   3.934  19.300  0.00  0.00    +0.000 N 
ATOM      6  C   UNL     1       5.299   2.916  19.261  0.00  0.00    +0.000 C 
ATOM      7  C   UNL     1       2.992   3.615  19.695  0.00  0.00    +0.000 A 
ATOM      8  N   UNL     1       2.563   2.373  20.019  0.00  0.00    +0.000 NA
ATOM      9  C   UNL     1       1.260   2.331  20.375  0.00  0.00    +0.000 A 
ATOM     10  C   UNL     1       0.400   3.419  20.425  0.00  0.00    +0.000 A 
ATOM     11  C   UNL     1       0.890   4.678  20.083  0.00  0.00    +0.000 A 
ATOM     12  C   UNL     1       2.240   4.778  19.707  0.00  0.00    +0.000 A 
BRANCH   4  13
ATOM     13  C   UNL     1       5.580   5.964  18.458  0.00  0.00    +0.000 A 
ATOM     14  C   UNL     1       6.805   5.876  19.137  0.00  0.00    +0.000 A 
ATOM     15  C   UNL     1       7.941   6.561  18.697  0.00  0.00    +0.000 A 
ATOM     16  C   UNL     1       7.888   7.314  17.531  0.00  0.00    +0.000 A 
ATOM     17  C   UNL     1       6.695   7.392  16.820  0.00  0.00    +0.000 A 
ATOM     18  C   UNL     1       5.545   6.746  17.295  0.00  0.00    +0.000 A 
ENDBRANCH   4  13
ENDBRANCH   2   3
BRANCH   1  20
ATOM     19  N   UNL     1       0.558   9.440  18.462  0.00  0.00    +0.000 N 
ATOM     20  C   UNL     1       1.802   9.129  17.973  0.00  0.00    +0.000 C 
ATOM     21  O   UNL     1       2.589   9.948  17.523  0.00  0.00    +0.000 OA
ATOM     22  H   UNL     1      -0.048   8.722  18.842  0.00  0.00    +0.000 HD
BRANCH  19  23
ATOM     23  C   UNL     1       0.035  10.814  18.446  0.00  0.00    +0.000 C 
BRANCH  23  24
ATOM     24  C   UNL     1      -1.479  10.793  18.184  0.00  0.00    +0.000 C 
ATOM     25  O   UNL     1      -2.275  11.596  18.658  0.00  0.00    +0.000 OA
BRANCH  24  27
ATOM     26  C   UNL     1      -2.529  10.091  16.193  0.00  0.00    +0.000 C 
ATOM     27  O   UNL     1      -1.816   9.741  17.381  0.00  0.00    +0.000 OA
ENDBRANCH  24  27
ENDBRANCH  23  24
BRANCH  23  28
ATOM     28  C   UNL     1       0.367  11.635  19.710  0.00  0.00    +0.000 C 
BRANCH  28  29
ATOM     29  C   UNL     1       0.192  10.894  21.018  0.00  0.00    +0.000 A 
ATOM     30  C   UNL     1      -0.853  11.228  21.888  0.00  0.00    +0.000 A 
ATOM     31  C   UNL     1      -1.015  10.543  23.093  0.00  0.00    +0.000 A 
ATOM     32  C   UNL     1      -0.132   9.523  23.443  0.00  0.00    +0.000 A 
ATOM     33  C   UNL     1       0.908   9.180  22.583  0.00  0.00    +0.000 A 
ATOM     34  C   UNL     1       1.068   9.859  21.374  0.00  0.00    +0.000 A 
ENDBRANCH  28  29
ENDBRANCH  23  28
ENDBRANCH  19  23
ENDBRANCH   1  20
TORSDOF 8
ENDMDL
MODEL 3
REMARK VINA RESULT:      -8.0      6.635      9.587
REMARK  Name = 
REMARK  10 active torsions:
REMARK  status: ('A' for Active; 'I' for Inactive)
REMARK    1  A    between atoms: C_1  and  O_2
REMARK    2  A    between atoms: O_2  and  C_3
REMARK    3  A    between atoms: C_3  and  C_5
REMARK    4  A    between atoms: C_5  and  C_6
REMARK    5  A    between atoms: C_5  and  N_13
REMARK    6  A    between atoms: C_6  and  C_7
REMARK    7  A    between atoms: C_14  and  C_16
REMARK    8  A    between atoms: C_17  and  C_18
REMARK    9  A    between atoms: C_19  and  C_20
REMARK   10  A    between atoms: N_26  and  C_27
REMARK                            x       y       z     vdW  Elec       q    Type
REMARK                         _______ _______ _______ _____ _____    ______ ____
ROOT
ATOM      1  C   UNL     1       8.654   9.649  18.266  0.00  0.00    +0.000 C 
ATOM      2  C   UNL     1       9.144  10.146  19.415  0.00  0.00    +0.000 C 
ENDROOT
BRANCH   2   3
ATOM      3  C   UNL     1       9.639  11.480  19.556  0.00  0.00    +0.000 A 
ATOM      4  C   UNL     1       9.326  12.394  20.572  0.00  0.00    +0.000 A 
ATOM      5  N   UNL     1      10.057  13.543  20.264  0.00  0.00    +0.000 N 
ATOM      6  C   UNL     1      10.179  14.771  21.021  0.00  0.00    +0.000 C 
ATOM      7  C   UNL     1      10.730  13.389  19.074  0.00  0.00    +0.000 A 
ATOM      8  N   UNL     1      11.492  14.338  18.483  0.00  0.00    +0.000 NA
ATOM      9  C   UNL     1      12.045  13.933  17.317  0.00  0.00    +0.000 A 
ATOM     10  C   UNL     1      11.885  12.682  16.739  0.00  0.00    +0.000 A 
ATOM     11  C   UNL     1      11.091  11.738  17.389  0.00  0.00    +0.000 A 
ATOM     12  C   UNL     1      10.493  12.108  18.605  0.00  0.00    +0.000 A 
BRANCH   4  13
ATOM     13  C   UNL     1       8.422  12.239  21.738  0.00  0.00    +0.000 A 
ATOM     14  C   UNL     1       7.217  12.954  21.808  0.00  0.00    +0.000 A 
ATOM     15  C   UNL     1       6.385  12.886  22.929  0.00  0.00    +0.000 A 
ATOM     16  C   UNL     1       6.719  12.056  23.990  0.00  0.00    +0.000 A 
ATOM     17  C   UNL     1       7.893  11.310  23.934  0.00  0.00    +0.000 A 
ATOM     18  C   UNL     1       8.749  11.423  22.831  0.00  0.00    +0.000 A 
ENDBRANCH   4  13
ENDBRANCH   2   3
BRANCH   1  20
ATOM     19  N   UNL     1       7.120   8.094  17.298  0.00  0.00    +0.000 N 
ATOM     20  C   UNL     1       8.096   8.277  18.244  0.00  0.00    +0.000 C 
ATOM     21  O   UNL     1       8.490   7.405  19.004  0.00  0.00    +0.000 OA
ATOM     22  H   UNL     1       6.845   8.848  16.679  0.00  0.00    +0.000 HD
BRANCH  19  23
ATOM     23  C   UNL     1       6.415   6.813  17.142  0.00  0.00    +0.000 C 
BRANCH  23  24
ATOM     24  C   UNL     1       7.396   5.733  16.659  0.00  0.00    +0.000 C 
ATOM     25  O   UNL     1       7.915   4.893  17.386  0.00  0.00    +0.000 OA
BRANCH  24  27
ATOM     26  C   UNL     1       6.975   4.897  14.495  0.00  0.00    +0.000 C 
ATOM     27  O   UNL     1       7.634   5.861  15.320  0.00  0.00    +0.000 OA
ENDBRANCH  24  27
ENDBRANCH  23  24
BRANCH  23  28
ATOM     28  C   UNL     1       5.657   6.348  18.403  0.00  0.00    +0.000 C 
BRANCH  28  29
ATOM     29  C   UNL     1       4.384   5.575  18.135  0.00  0.00    +0.000 A 
ATOM     30  C   UNL     1       4.439   4.255  17.675  0.00  0.00    +0.000 A 
ATOM     31  C   UNL     1       3.264   3.542  17.429  0.00  0.00    +0.000 A 
ATOM     32  C   UNL     1       2.024   4.143  17.635  0.00  0.00    +0.000 A 
ATOM     33  C   UNL     1       1.958   5.456  18.097  0.00  0.00    +0.000 A 
ATOM     34  C   UNL     1       3.132   6.168  18.350  0.00  0.00    +0.000 A 
ENDBRANCH  28  29
ENDBRANCH  23  28
ENDBRANCH  19  23
ENDBRANCH   1  20
TORSDOF 8
ENDMDL
MODEL 4
REMARK VINA RESULT:      -7.8      1.744      5.032
REMARK  Name = 
REMARK  10 active torsions:
REMARK  status: ('A' for Active; 'I' for Inactive)
REMARK    1  A    between atoms: C_1  and  O_2
REMARK    2  A    between atoms: O_2  and  C_3
REMARK    3  A    between atoms: C_3  and  C_5
REMARK    4  A    between atoms: C_5  and  C_6
REMARK    5  A    between atoms: C_5  and  N_13
REMARK    6  A    between atoms: C_6  and  C_7
REMARK    7  A    between atoms: C_14  and  C_16
REMARK    8  A    between atoms: C_17  and  C_18
REMARK    9  A    between atoms: C_19  and  C_20
REMARK   10  A    between atoms: N_26  and  C_27
REMARK                            x       y       z     vdW  Elec       q    Type
REMARK                         _______ _______ _______ _____ _____    ______ ____
ROOT
ATOM      1  C   UNL     1       2.032   7.219  18.306  0.00  0.00    +0.000 C 
ATOM      2  C   UNL     1       3.182   6.530  18.210  0.00  0.00    +0.000 C 
ENDROOT
BRANCH   2   3
ATOM      3  C   UNL     1       3.275   5.113  18.379  0.00  0.00    +0.000 A 
ATOM      4  C   UNL     1       4.094   4.229  17.663  0.00  0.00    +0.000 A 
ATOM      5  N   UNL     1       3.822   2.968  18.197  0.00  0.00    +0.000 N 
ATOM      6  C   UNL     1       4.445   1.698  17.890  0.00  0.00    +0.000 C 
ATOM      7  C   UNL     1       2.825   3.043  19.142  0.00  0.00    +0.000 A 
ATOM      8  N   UNL     1       2.305   1.988  19.812  0.00  0.00    +0.000 NA
ATOM      9  C   UNL     1       1.336   2.333  20.688  0.00  0.00    +0.000 A 
ATOM     10  C   UNL     1       0.880   3.623  20.922  0.00  0.00    +0.000 A 
ATOM     11  C   UNL     1       1.448   4.676  20.207  0.00  0.00    +0.000 A 
ATOM     12  C   UNL     1       2.462   4.372  19.284  0.00  0.00    +0.000 A 
BRANCH   4  13
ATOM     13  C   UNL     1       5.054   4.506  16.566  0.00  0.00    +0.000 A 
ATOM     14  C   UNL     1       4.739   4.171  15.240  0.00  0.00    +0.000 A 
ATOM     15  C   UNL     1       5.655   4.351  14.199  0.00  0.00    +0.000 A 
ATOM     16  C   UNL     1       6.894   4.920  14.457  0.00  0.00    +0.000 A 
ATOM     17  C   UNL     1       7.221   5.292  15.757  0.00  0.00    +0.000 A 
ATOM     18  C   UNL     1       6.320   5.060  16.805  0.00  0.00    +0.000 A 
ENDBRANCH   4  13
ENDBRANCH   2   3
BRANCH   1  20
ATOM     19  N   UNL     1       1.064   9.362  18.728  0.00  0.00    +0.000 N 
ATOM     20  C   UNL     1       2.032   8.676  18.039  0.00  0.00    +0.000 C 
ATOM     21  O   UNL     1       2.833   9.196  17.277  0.00  0.00    +0.000 OA
ATOM     22  H   UNL     1       0.436   8.883  19.363  0.00  0.00    +0.000 HD
BRANCH  19  23
ATOM     23  C   UNL     1       0.875  10.812  18.572  0.00  0.00    +0.000 C 
BRANCH  23  24
ATOM     24  C   UNL     1      -0.539  11.099  18.043  0.00  0.00    +0.000 C 
ATOM     25  O   UNL     1      -1.068  12.206  18.046  0.00  0.00    +0.000 OA
BRANCH  24  27
ATOM     26  C   UNL     1      -2.525  10.068  17.300  0.00  0.00    +0.000 C 
ATOM     27  O   UNL     1      -1.133   9.951  17.603  0.00  0.00    +0.000 OA
ENDBRANCH  24  27
ENDBRANCH  23  24
BRANCH  23  28
ATOM     28  C   UNL     1       1.167  11.631  19.846  0.00  0.00    +0.000 C 
BRANCH  28  29
ATOM     29  C   UNL     1       0.407  11.190  21.078  0.00  0.00    +0.000 A 
ATOM     30  C   UNL     1      -0.643  11.968  21.581  0.00  0.00    +0.000 A 
ATOM     31  C   UNL     1      -1.344  11.559  22.717  0.00  0.00    +0.000 A 
ATOM     32  C   UNL     1      -0.999  10.375  23.364  0.00  0.00    +0.000 A 
ATOM     33  C   UNL     1       0.042   9.591  22.870  0.00  0.00    +0.000 A 
ATOM     34  C   UNL     1       0.739   9.994  21.730  0.00  0.00    +0.000 A 
ENDBRANCH  28  29
ENDBRANCH  23  28
ENDBRANCH  19  23
ENDBRANCH   1  20
TORSDOF 8
ENDMDL
MODEL 5
REMARK VINA RESULT:      -7.8      0.872      1.313
REMARK  Name = 
REMARK  10 active torsions:
REMARK  status: ('A' for Active; 'I' for Inactive)
REMARK    1  A    between atoms: C_1  and  O_2
REMARK    2  A    between atoms: O_2  and  C_3
REMARK    3  A    between atoms: C_3  and  C_5
REMARK    4  A    between atoms: C_5  and  C_6
REMARK    5  A    between atoms: C_5  and  N_13
REMARK    6  A    between atoms: C_6  and  C_7
REMARK    7  A    between atoms: C_14  and  C_16
REMARK    8  A    between atoms: C_17  and  C_18
REMARK    9  A    between atoms: C_19  and  C_20
REMARK   10  A    between atoms: N_26  and  C_27
REMARK                            x       y       z     vdW  Elec       q    Type
REMARK                         _______ _______ _______ _____ _____    ______ ____
ROOT
ATOM      1  C   UNL     1       2.662   6.907  18.963  0.00  0.00    +0.000 C 
ATOM      2  C   UNL     1       3.173   6.639  17.749  0.00  0.00    +0.000 C 
ENDROOT
BRANCH   2   3
ATOM      3  C   UNL     1       3.775   5.390  17.398  0.00  0.00    +0.000 A 
ATOM      4  C   UNL     1       3.565   4.149  18.014  0.00  0.00    +0.000 A 
ATOM      5  N   UNL     1       4.374   3.253  17.311  0.00  0.00    +0.000 N 
ATOM      6  C   UNL     1       4.487   1.818  17.466  0.00  0.00    +0.000 C 
ATOM      7  C   UNL     1       5.115   3.911  16.357  0.00  0.00    +0.000 A 
ATOM      8  N   UNL     1       6.024   3.330  15.541  0.00  0.00    +0.000 NA
ATOM      9  C   UNL     1       6.616   4.199  14.691  0.00  0.00    +0.000 A 
ATOM     10  C   UNL     1       6.355   5.560  14.616  0.00  0.00    +0.000 A 
ATOM     11  C   UNL     1       5.408   6.110  15.478  0.00  0.00    +0.000 A 
ATOM     12  C   UNL     1       4.763   5.250  16.382  0.00  0.00    +0.000 A 
BRANCH   4  13
ATOM     13  C   UNL     1       2.696   3.798  19.164  0.00  0.00    +0.000 A 
ATOM     14  C   UNL     1       1.324   3.567  18.980  0.00  0.00    +0.000 A 
ATOM     15  C   UNL     1       0.470   3.311  20.056  0.00  0.00    +0.000 A 
ATOM     16  C   UNL     1       0.982   3.230  21.343  0.00  0.00    +0.000 A 
ATOM     17  C   UNL     1       2.344   3.424  21.553  0.00  0.00    +0.000 A 
ATOM     18  C   UNL     1       3.187   3.733  20.477  0.00  0.00    +0.000 A 
ENDBRANCH   4  13
ENDBRANCH   2   3
BRANCH   1  20
ATOM     19  N   UNL     1       1.153   8.203  20.286  0.00  0.00    +0.000 N 
ATOM     20  C   UNL     1       1.992   8.207  19.201  0.00  0.00    +0.000 C 
ATOM     21  O   UNL     1       2.189   9.178  18.487  0.00  0.00    +0.000 OA
ATOM     22  H   UNL     1       1.040   7.373  20.857  0.00  0.00    +0.000 HD
BRANCH  19  23
ATOM     23  C   UNL     1       0.366   9.385  20.668  0.00  0.00    +0.000 C 
BRANCH  23  24
ATOM     24  C   UNL     1       0.855   9.921  22.023  0.00  0.00    +0.000 C 
ATOM     25  O   UNL     1       1.743   9.405  22.693  0.00  0.00    +0.000 OA
BRANCH  24  27
ATOM     26  C   UNL     1      -1.092  10.758  23.056  0.00  0.00    +0.000 C 
ATOM     27  O   UNL     1       0.143  11.028  22.390  0.00  0.00    +0.000 OA
ENDBRANCH  24  27
ENDBRANCH  23  24
BRANCH  23  28
ATOM     28  C   UNL     1       0.344  10.503  19.605  0.00  0.00    +0.000 C 
BRANCH  28  29
ATOM     29  C   UNL     1      -0.960  10.642  18.850  0.00  0.00    +0.000 A 
ATOM     30  C   UNL     1      -1.205   9.869  17.708  0.00  0.00    +0.000 A 
ATOM     31  C   UNL     1      -2.408   9.996  17.013  0.00  0.00    +0.000 A 
ATOM     32  C   UNL     1      -3.375  10.900  17.447  0.00  0.00    +0.000 A 
ATOM     33  C   UNL     1      -3.144  11.671  18.584  0.00  0.00    +0.000 A 
ATOM     34  C   UNL     1      -1.944  11.540  19.285  0.00  0.00    +0.000 A 
ENDBRANCH  28  29
ENDBRANCH  23  28
ENDBRANCH  19  23
ENDBRANCH   1  20
TORSDOF 8
ENDMDL
MODEL 6
REMARK VINA RESULT:      -7.8      0.946      1.414
REMARK  Name = 
REMARK  10 active torsions:
REMARK  status: ('A' for Active; 'I' for Inactive)
REMARK    1  A    between atoms: C_1  and  O_2
REMARK    2  A    between atoms: O_2  and  C_3
REMARK    3  A    between atoms: C_3  and  C_5
REMARK    4  A    between atoms: C_5  and  C_6
REMARK    5  A    between atoms: C_5  and  N_13
REMARK    6  A    between atoms: C_6  and  C_7
REMARK    7  A    between atoms: C_14  and  C_16
REMARK    8  A    between atoms: C_17  and  C_18
REMARK    9  A    between atoms: C_19  and  C_20
REMARK   10  A    between atoms: N_26  and  C_27
REMARK                            x       y       z     vdW  Elec       q    Type
REMARK                         _______ _______ _______ _____ _____    ______ ____
ROOT
ATOM      1  C   UNL     1       2.471   6.731  19.185  0.00  0.00    +0.000 C 
ATOM      2  C   UNL     1       3.187   6.599  18.055  0.00  0.00    +0.000 C 
ENDROOT
BRANCH   2   3
ATOM      3  C   UNL     1       3.738   5.359  17.604  0.00  0.00    +0.000 A 
ATOM      4  C   UNL     1       3.504   4.086  18.142  0.00  0.00    +0.000 A 
ATOM      5  N   UNL     1       4.264   3.216  17.357  0.00  0.00    +0.000 N 
ATOM      6  C   UNL     1       4.334   1.771  17.412  0.00  0.00    +0.000 C 
ATOM      7  C   UNL     1       5.001   3.913  16.429  0.00  0.00    +0.000 A 
ATOM      8  N   UNL     1       5.869   3.361  15.549  0.00  0.00    +0.000 NA
ATOM      9  C   UNL     1       6.465   4.267  14.742  0.00  0.00    +0.000 A 
ATOM     10  C   UNL     1       6.247   5.638  14.767  0.00  0.00    +0.000 A 
ATOM     11  C   UNL     1       5.342   6.157  15.691  0.00  0.00    +0.000 A 
ATOM     12  C   UNL     1       4.694   5.258  16.553  0.00  0.00    +0.000 A 
BRANCH   4  13
ATOM     13  C   UNL     1       2.655   3.685  19.291  0.00  0.00    +0.000 A 
ATOM     14  C   UNL     1       3.219   3.482  20.559  0.00  0.00    +0.000 A 
ATOM     15  C   UNL     1       2.456   3.031  21.640  0.00  0.00    +0.000 A 
ATOM     16  C   UNL     1       1.093   2.819  21.485  0.00  0.00    +0.000 A 
ATOM     17  C   UNL     1       0.500   3.043  20.245  0.00  0.00    +0.000 A 
ATOM     18  C   UNL     1       1.280   3.445  19.153  0.00  0.00    +0.000 A 
ENDBRANCH   4  13
ENDBRANCH   2   3
BRANCH   1  20
ATOM     19  N   UNL     1       0.905   7.981  20.487  0.00  0.00    +0.000 N 
ATOM     20  C   UNL     1       1.880   8.047  19.524  0.00  0.00    +0.000 C 
ATOM     21  O   UNL     1       2.248   9.080  18.986  0.00  0.00    +0.000 OA
ATOM     22  H   UNL     1       0.652   7.098  20.915  0.00  0.00    +0.000 HD
BRANCH  19  23
ATOM     23  C   UNL     1       0.171   9.173  20.936  0.00  0.00    +0.000 C 
BRANCH  23  24
ATOM     24  C   UNL     1       0.579   9.527  22.374  0.00  0.00    +0.000 C 
ATOM     25  O   UNL     1       1.738   9.672  22.749  0.00  0.00    +0.000 OA
BRANCH  24  27
ATOM     26  C   UNL     1      -1.192  10.885  23.133  0.00  0.00    +0.000 C 
ATOM     27  O   UNL     1      -0.520   9.625  23.179  0.00  0.00    +0.000 OA
ENDBRANCH  24  27
ENDBRANCH  23  24
BRANCH  23  28
ATOM     28  C   UNL     1       0.312  10.394  20.003  0.00  0.00    +0.000 C 
BRANCH  28  29
ATOM     29  C   UNL     1      -0.874  10.648  19.098  0.00  0.00    +0.000 A 
ATOM     30  C   UNL     1      -1.871  11.557  19.472  0.00  0.00    +0.000 A 
ATOM     31  C   UNL     1      -2.964  11.792  18.636  0.00  0.00    +0.000 A 
ATOM     32  C   UNL     1      -3.074  11.116  17.422  0.00  0.00    +0.000 A 
ATOM     33  C   UNL     1      -2.085  10.212  17.038  0.00  0.00    +0.000 A 
ATOM     34  C   UNL     1      -0.988   9.982  17.869  0.00  0.00    +0.000 A 
ENDBRANCH  28  29
ENDBRANCH  23  28
ENDBRANCH  19  23
ENDBRANCH   1  20
TORSDOF 8
ENDMDL
MODEL 7
REMARK VINA RESULT:      -7.8      1.971      5.016
REMARK  Name = 
REMARK  10 active torsions:
REMARK  status: ('A' for Active; 'I' for Inactive)
REMARK    1  A    between atoms: C_1  and  O_2
REMARK    2  A    between atoms: O_2  and  C_3
REMARK    3  A    between atoms: C_3  and  C_5
REMARK    4  A    between atoms: C_5  and  C_6
REMARK    5  A    between atoms: C_5  and  N_13
REMARK    6  A    between atoms: C_6  and  C_7
REMARK    7  A    between atoms: C_14  and  C_16
REMARK    8  A    between atoms: C_17  and  C_18
REMARK    9  A    between atoms: C_19  and  C_20
REMARK   10  A    between atoms: N_26  and  C_27
REMARK                            x       y       z     vdW  Elec       q    Type
REMARK                         _______ _______ _______ _____ _____    ______ ____
ROOT
ATOM      1  C   UNL     1       2.206   7.696  18.014  0.00  0.00    +0.000 C 
ATOM      2  C   UNL     1       2.642   7.168  19.170  0.00  0.00    +0.000 C 
ENDROOT
BRANCH   2   3
ATOM      3  C   UNL     1       3.076   5.812  19.310  0.00  0.00    +0.000 A 
ATOM      4  C   UNL     1       4.349   5.299  19.028  0.00  0.00    +0.000 A 
ATOM      5  N   UNL     1       4.266   3.937  19.326  0.00  0.00    +0.000 N 
ATOM      6  C   UNL     1       5.311   2.936  19.299  0.00  0.00    +0.000 C 
ATOM      7  C   UNL     1       2.986   3.596  19.697  0.00  0.00    +0.000 A 
ATOM      8  N   UNL     1       2.572   2.346  20.007  0.00  0.00    +0.000 NA
ATOM      9  C   UNL     1       1.263   2.280  20.340  0.00  0.00    +0.000 A 
ATOM     10  C   UNL     1       0.386   3.354  20.381  0.00  0.00    +0.000 A 
ATOM     11  C   UNL     1       0.861   4.623  20.054  0.00  0.00    +0.000 A 
ATOM     12  C   UNL     1       2.215   4.746  19.701  0.00  0.00    +0.000 A 
BRANCH   4  13
ATOM     13  C   UNL     1       5.557   5.992  18.517  0.00  0.00    +0.000 A 
ATOM     14  C   UNL     1       5.515   6.705  17.309  0.00  0.00    +0.000 A 
ATOM     15  C   UNL     1       6.657   7.303  16.768  0.00  0.00    +0.000 A 
ATOM     16  C   UNL     1       7.862   7.242  17.454  0.00  0.00    +0.000 A 
ATOM     17  C   UNL     1       7.926   6.569  18.670  0.00  0.00    +0.000 A 
ATOM     18  C   UNL     1       6.790   5.927  19.182  0.00  0.00    +0.000 A 
ENDBRANCH   4  13
ENDBRANCH   2   3
BRANCH   1  20
ATOM     19  N   UNL     1       0.600   9.411  18.446  0.00  0.00    +0.000 N 
ATOM     20  C   UNL     1       1.851   9.133  17.957  0.00  0.00    +0.000 C 
ATOM     21  O   UNL     1       2.621   9.974  17.518  0.00  0.00    +0.000 OA
ATOM     22  H   UNL     1       0.008   8.676  18.817  0.00  0.00    +0.000 HD
BRANCH  19  23
ATOM     23  C   UNL     1       0.046  10.773  18.443  0.00  0.00    +0.000 C 
BRANCH  23  24
ATOM     24  C   UNL     1      -1.477  10.717  18.245  0.00  0.00    +0.000 C 
ATOM     25  O   UNL     1      -2.099   9.704  17.946  0.00  0.00    +0.000 OA
BRANCH  24  27
ATOM     26  C   UNL     1      -3.374  11.950  18.907  0.00  0.00    +0.000 C 
ATOM     27  O   UNL     1      -2.032  11.953  18.414  0.00  0.00    +0.000 OA
ENDBRANCH  24  27
ENDBRANCH  23  24
BRANCH  23  28
ATOM     28  C   UNL     1       0.413  11.610  19.686  0.00  0.00    +0.000 C 
BRANCH  28  29
ATOM     29  C   UNL     1       0.172  10.924  21.013  0.00  0.00    +0.000 A 
ATOM     30  C   UNL     1       0.998   9.873  21.429  0.00  0.00    +0.000 A 
ATOM     31  C   UNL     1       0.777   9.242  22.654  0.00  0.00    +0.000 A 
ATOM     32  C   UNL     1      -0.276   9.649  23.471  0.00  0.00    +0.000 A 
ATOM     33  C   UNL     1      -1.102  10.696  23.069  0.00  0.00    +0.000 A 
ATOM     34  C   UNL     1      -0.877  11.334  21.848  0.00  0.00    +0.000 A 
ENDBRANCH  28  29
ENDBRANCH  23  28
ENDBRANCH  19  23
ENDBRANCH   1  20
TORSDOF 8
ENDMDL
MODEL 8
REMARK VINA RESULT:      -7.7      1.098      1.568
REMARK  Name = 
REMARK  10 active torsions:
REMARK  status: ('A' for Active; 'I' for Inactive)
REMARK    1  A    between atoms: C_1  and  O_2
REMARK    2  A    between atoms: O_2  and  C_3
REMARK    3  A    between atoms: C_3  and  C_5
REMARK    4  A    between atoms: C_5  and  C_6
REMARK    5  A    between atoms: C_5  and  N_13
REMARK    6  A    between atoms: C_6  and  C_7
REMARK    7  A    between atoms: C_14  and  C_16
REMARK    8  A    between atoms: C_17  and  C_18
REMARK    9  A    between atoms: C_19  and  C_20
REMARK   10  A    between atoms: N_26  and  C_27
REMARK                            x       y       z     vdW  Elec       q    Type
REMARK                         _______ _______ _______ _____ _____    ______ ____
ROOT
ATOM      1  C   UNL     1       2.617   6.984  19.482  0.00  0.00    +0.000 C 
ATOM      2  C   UNL     1       2.755   6.614  18.197  0.00  0.00    +0.000 C 
ENDROOT
BRANCH   2   3
ATOM      3  C   UNL     1       3.475   5.452  17.778  0.00  0.00    +0.000 A 
ATOM      4  C   UNL     1       3.395   4.165  18.327  0.00  0.00    +0.000 A 
ATOM      5  N   UNL     1       4.283   3.393  17.575  0.00  0.00    +0.000 N 
ATOM      6  C   UNL     1       4.539   1.970  17.652  0.00  0.00    +0.000 C 
ATOM      7  C   UNL     1       4.947   4.171  16.656  0.00  0.00    +0.000 A 
ATOM      8  N   UNL     1       5.903   3.728  15.807  0.00  0.00    +0.000 NA
ATOM      9  C   UNL     1       6.398   4.695  15.003  0.00  0.00    +0.000 A 
ATOM     10  C   UNL     1       6.003   6.025  15.002  0.00  0.00    +0.000 A 
ATOM     11  C   UNL     1       5.013   6.432  15.895  0.00  0.00    +0.000 A 
ATOM     12  C   UNL     1       4.464   5.465  16.753  0.00  0.00    +0.000 A 
BRANCH   4  13
ATOM     13  C   UNL     1       2.574   3.669  19.460  0.00  0.00    +0.000 A 
ATOM     14  C   UNL     1       3.173   3.338  20.685  0.00  0.00    +0.000 A 
ATOM     15  C   UNL     1       2.435   2.797  21.741  0.00  0.00    +0.000 A 
ATOM     16  C   UNL     1       1.064   2.621  21.611  0.00  0.00    +0.000 A 
ATOM     17  C   UNL     1       0.439   2.971  20.418  0.00  0.00    +0.000 A 
ATOM     18  C   UNL     1       1.192   3.463  19.344  0.00  0.00    +0.000 A 
ENDBRANCH   4  13
ENDBRANCH   2   3
BRANCH   1  20
ATOM     19  N   UNL     1       1.352   8.861  18.716  0.00  0.00    +0.000 N 
ATOM     20  C   UNL     1       1.787   8.165  19.815  0.00  0.00    +0.000 C 
ATOM     21  O   UNL     1       1.522   8.466  20.969  0.00  0.00    +0.000 OA
ATOM     22  H   UNL     1       1.586   8.555  17.778  0.00  0.00    +0.000 HD
BRANCH  19  23
ATOM     23  C   UNL     1       0.547  10.085  18.836  0.00  0.00    +0.000 C 
BRANCH  23  24
ATOM     24  C   UNL     1       1.468  11.298  19.040  0.00  0.00    +0.000 C 
ATOM     25  O   UNL     1       2.231  11.739  18.187  0.00  0.00    +0.000 OA
BRANCH  24  27
ATOM     26  C   UNL     1       1.240  13.214  20.394  0.00  0.00    +0.000 C 
ATOM     27  O   UNL     1       1.344  11.792  20.307  0.00  0.00    +0.000 OA
ENDBRANCH  24  27
ENDBRANCH  23  24
BRANCH  23  28
ATOM     28  C   UNL     1      -0.429  10.321  17.663  0.00  0.00    +0.000 C 
BRANCH  28  29
ATOM     29  C   UNL     1      -1.813  10.779  18.066  0.00  0.00    +0.000 A 
ATOM     30  C   UNL     1      -2.949  10.209  17.477  0.00  0.00    +0.000 A 
ATOM     31  C   UNL     1      -4.226  10.631  17.850  0.00  0.00    +0.000 A 
ATOM     32  C   UNL     1      -4.381  11.629  18.809  0.00  0.00    +0.000 A 
ATOM     33  C   UNL     1      -3.258  12.200  19.405  0.00  0.00    +0.000 A 
ATOM     34  C   UNL     1      -1.980  11.774  19.039  0.00  0.00    +0.000 A 
ENDBRANCH  28  29
ENDBRANCH  23  28
ENDBRANCH  19  23
ENDBRANCH   1  20
TORSDOF 8
ENDMDL
MODEL 9
REMARK VINA RESULT:      -7.7      1.702      2.976
REMARK  Name = 
REMARK  10 active torsions:
REMARK  status: ('A' for Active; 'I' for Inactive)
REMARK    1  A    between atoms: C_1  and  O_2
REMARK    2  A    between atoms: O_2  and  C_3
REMARK    3  A    between atoms: C_3  and  C_5
REMARK    4  A    between atoms: C_5  and  C_6
REMARK    5  A    between atoms: C_5  and  N_13
REMARK    6  A    between atoms: C_6  and  C_7
REMARK    7  A    between atoms: C_14  and  C_16
REMARK    8  A    between atoms: C_17  and  C_18
REMARK    9  A    between atoms: C_19  and  C_20
REMARK   10  A    between atoms: N_26  and  C_27
REMARK                            x       y       z     vdW  Elec       q    Type
REMARK                         _______ _______ _______ _____ _____    ______ ____
ROOT
ATOM      1  C   UNL     1       2.300   7.261  17.993  0.00  0.00    +0.000 C 
ATOM      2  C   UNL     1       3.584   6.943  17.756  0.00  0.00    +0.000 C 
ENDROOT
BRANCH   2   3
ATOM      3  C   UNL     1       4.019   5.642  17.350  0.00  0.00    +0.000 A 
ATOM      4  C   UNL     1       3.641   4.414  17.909  0.00  0.00    +0.000 A 
ATOM      5  N   UNL     1       4.331   3.451  17.168  0.00  0.00    +0.000 N 
ATOM      6  C   UNL     1       4.252   2.008  17.258  0.00  0.00    +0.000 C 
ATOM      7  C   UNL     1       5.161   4.047  16.247  0.00  0.00    +0.000 A 
ATOM      8  N   UNL     1       5.993   3.387  15.408  0.00  0.00    +0.000 NA
ATOM      9  C   UNL     1       6.701   4.207  14.600  0.00  0.00    +0.000 A 
ATOM     10  C   UNL     1       6.623   5.593  14.586  0.00  0.00    +0.000 A 
ATOM     11  C   UNL     1       5.750   6.225  15.470  0.00  0.00    +0.000 A 
ATOM     12  C   UNL     1       4.989   5.418  16.331  0.00  0.00    +0.000 A 
BRANCH   4  13
ATOM     13  C   UNL     1       2.724   4.130  19.040  0.00  0.00    +0.000 A 
ATOM     14  C   UNL     1       3.150   4.298  20.366  0.00  0.00    +0.000 A 
ATOM     15  C   UNL     1       2.332   3.965  21.449  0.00  0.00    +0.000 A 
ATOM     16  C   UNL     1       1.043   3.501  21.227  0.00  0.00    +0.000 A 
ATOM     17  C   UNL     1       0.582   3.356  19.922  0.00  0.00    +0.000 A 
ATOM     18  C   UNL     1       1.424   3.640  18.840  0.00  0.00    +0.000 A 
ENDBRANCH   4  13
ENDBRANCH   2   3
BRANCH   1  20
ATOM     19  N   UNL     1       1.243   8.777  19.507  0.00  0.00    +0.000 N 
ATOM     20  C   UNL     1       1.946   8.658  18.335  0.00  0.00    +0.000 C 
ATOM     21  O   UNL     1       2.268   9.600  17.627  0.00  0.00    +0.000 OA
ATOM     22  H   UNL     1       1.018   7.962  20.066  0.00  0.00    +0.000 HD
BRANCH  19  23
ATOM     23  C   UNL     1       0.765  10.076  20.002  0.00  0.00    +0.000 C 
BRANCH  23  24
ATOM     24  C   UNL     1      -0.379  10.585  19.112  0.00  0.00    +0.000 C 
ATOM     25  O   UNL     1      -1.444   9.998  18.950  0.00  0.00    +0.000 OA
BRANCH  24  27
ATOM     26  C   UNL     1      -1.134  12.586  18.119  0.00  0.00    +0.000 C 
ATOM     27  O   UNL     1      -0.034  11.759  18.504  0.00  0.00    +0.000 OA
ENDBRANCH  24  27
ENDBRANCH  23  24
BRANCH  23  28
ATOM     28  C   UNL     1       0.354  10.077  21.489  0.00  0.00    +0.000 C 
BRANCH  28  29
ATOM     29  C   UNL     1      -0.239  11.376  21.988  0.00  0.00    +0.000 A 
ATOM     30  C   UNL     1      -1.376  11.371  22.805  0.00  0.00    +0.000 A 
ATOM     31  C   UNL     1      -1.921  12.570  23.267  0.00  0.00    +0.000 A 
ATOM     32  C   UNL     1      -1.341  13.786  22.910  0.00  0.00    +0.000 A 
ATOM     33  C   UNL     1      -0.208  13.803  22.100  0.00  0.00    +0.000 A 
ATOM     34  C   UNL     1       0.344  12.604  21.644  0.00  0.00    +0.000 A 
ENDBRANCH  28  29
ENDBRANCH  23  28
ENDBRANCH  19  23
ENDBRANCH   1  20
TORSDOF 8
ENDMDL
