MODEL 1
REMARK VINA RESULT:      -8.1      0.000      0.000
REMARK  Name = 
REMARK  7 active torsions:
REMARK  status: ('A' for Active; 'I' for Inactive)
REMARK    1  A    between atoms: C_1  and  N_2
REMARK    2  A    between atoms: N_2  and  C_3
REMARK    3  A    between atoms: N_2  and  C_15
REMARK    4  A    between atoms: C_3  and  C_4
REMARK    5  A    between atoms: N_6  and  C_7
REMARK    6  A    between atoms: C_7  and  C_8
REMARK    7  A    between atoms: C_15  and  C_16
REMARK                            x       y       z     vdW  Elec       q    Type
REMARK                         _______ _______ _______ _____ _____    ______ ____
ROOT
ATOM      1  C   UNL     1       7.235   4.810  18.090  0.00  0.00    +0.000 C 
ATOM      2  O   UNL     1       8.261   4.170  17.866  0.00  0.00    +0.000 OA
ATOM      3  N   UNL     1       6.296   4.268  18.926  0.00  0.00    +0.000 N 
ATOM      4  H   UNL     1       6.568   3.374  19.319  0.00  0.00    +0.000 HD
ENDROOT
BRANCH   1   5
ATOM      5  C   UNL     1       6.995   6.204  17.481  0.00  0.00    +0.000 C 
BRANCH   5   7
ATOM      6  C   UNL     1       4.941   6.951  16.440  0.00  0.00    +0.000 C 
ATOM      7  N   UNL     1       6.177   6.189  16.240  0.00  0.00    +0.000 NA
BRANCH   7   8
ATOM      8  C   UNL     1       5.908   4.831  15.754  0.00  0.00    +0.000 C 
BRANCH   8   9
ATOM      9  C   UNL     1       6.377   4.529  14.354  0.00  0.00    +0.000 A 
ATOM     10  C   UNL     1       7.394   5.300  13.772  0.00  0.00    +0.000 A 
ATOM     11  C   UNL     1       7.794   5.058  12.456  0.00  0.00    +0.000 A 
ATOM     12  C   UNL     1       7.179   4.050  11.719  0.00  0.00    +0.000 A 
ATOM     13  C   UNL     1       6.164   3.284  12.293  0.00  0.00    +0.000 A 
ATOM     14 CL   UNL     1       5.396   2.052  11.373  0.00  0.00    +0.000 Cl
ATOM     15  C   UNL     1       5.760   3.520  13.604  0.00  0.00    +0.000 A 
ENDBRANCH   8   9
ENDBRANCH   7   8
ENDBRANCH   5   7
ENDBRANCH   1   5
BRANCH   3  16
ATOM     16  C   UNL     1       5.072   4.872  19.399  0.00  0.00    +0.000 C 
BRANCH  16  17
ATOM     17  C   UNL     1       3.848   4.024  19.248  0.00  0.00    +0.000 A 
ATOM     18  C   UNL     1       2.766   4.273  20.111  0.00  0.00    +0.000 A 
ATOM     19  C   UNL     1       1.554   3.614  19.929  0.00  0.00    +0.000 A 
ATOM     20  C   UNL     1       1.423   2.714  18.882  0.00  0.00    +0.000 A 
ATOM     21  F   UNL     1       0.253   2.091  18.695  0.00  0.00    +0.000 F 
ATOM     22  C   UNL     1       2.475   2.461  18.011  0.00  0.00    +0.000 A 
ATOM     23  C   UNL     1       3.689   3.120  18.189  0.00  0.00    +0.000 A 
ENDBRANCH  16  17
ENDBRANCH   3  16
TORSDOF 6
ENDMDL
MODEL 2
REMARK VINA RESULT:      -7.6      4.000      5.738
REMARK  Name = 
REMARK  7 active torsions:
REMARK  status: ('A' for Active; 'I' for Inactive)
REMARK    1  A    between atoms: C_1  and  N_2
REMARK    2  A    between atoms: N_2  and  C_3
REMARK    3  A    between atoms: N_2  and  C_15
REMARK    4  A    between atoms: C_3  and  C_4
REMARK    5  A    between atoms: N_6  and  C_7
REMARK    6  A    between atoms: C_7  and  C_8
REMARK    7  A    between atoms: C_15  and  C_16
REMARK                            x       y       z     vdW  Elec       q    Type
REMARK                         _______ _______ _______ _____ _____    ______ ____
ROOT
ATOM      1  C   UNL     1       1.163   3.127  19.874  0.00  0.00    +0.000 C 
ATOM      2  O   UNL     1       0.291   2.399  19.404  0.00  0.00    +0.000 OA
ATOM      3  N   UNL     1       0.831   4.411  20.212  0.00  0.00    +0.000 N 
ATOM      4  H   UNL     1      -0.149   4.630  20.067  0.00  0.00    +0.000 HD
ENDROOT
BRANCH   1   5
ATOM      5  C   UNL     1       2.600   2.627  20.114  0.00  0.00    +0.000 C 
BRANCH   5   7
ATOM      6  C   UNL     1       3.639   1.390  18.311  0.00  0.00    +0.000 C 
ATOM      7  N   UNL     1       3.479   2.714  18.919  0.00  0.00    +0.000 NA
BRANCH   7   8
ATOM      8  C   UNL     1       4.773   3.341  19.212  0.00  0.00    +0.000 C 
BRANCH   8   9
ATOM      9  C   UNL     1       5.242   4.376  18.221  0.00  0.00    +0.000 A 
ATOM     10  C   UNL     1       4.755   4.360  16.905  0.00  0.00    +0.000 A 
ATOM     11  C   UNL     1       5.227   5.284  15.971  0.00  0.00    +0.000 A 
ATOM     12  C   UNL     1       6.186   6.221  16.345  0.00  0.00    +0.000 A 
ATOM     13  C   UNL     1       6.676   6.236  17.651  0.00  0.00    +0.000 A 
ATOM     14 CL   UNL     1       7.871   7.385  18.104  0.00  0.00    +0.000 Cl
ATOM     15  C   UNL     1       6.210   5.319  18.589  0.00  0.00    +0.000 A 
ENDBRANCH   8   9
ENDBRANCH   7   8
ENDBRANCH   5   7
ENDBRANCH   1   5
BRANCH   3  16
ATOM     16  C   UNL     1       1.658   5.403  20.856  0.00  0.00    +0.000 C 
BRANCH  16  17
ATOM     17  C   UNL     1       1.883   6.653  20.063  0.00  0.00    +0.000 A 
ATOM     18  C   UNL     1       2.483   6.529  18.798  0.00  0.00    +0.000 A 
ATOM     19  C   UNL     1       2.590   7.633  17.958  0.00  0.00    +0.000 A 
ATOM     20  C   UNL     1       2.092   8.856  18.381  0.00  0.00    +0.000 A 
ATOM     21  F   UNL     1       2.179   9.917  17.567  0.00  0.00    +0.000 F 
ATOM     22  C   UNL     1       1.485   8.999  19.622  0.00  0.00    +0.000 A 
ATOM     23  C   UNL     1       1.374   7.896  20.464  0.00  0.00    +0.000 A 
ENDBRANCH  16  17
ENDBRANCH   3  16
TORSDOF 6
ENDMDL
MODEL 3
REMARK VINA RESULT:      -7.6      6.902      8.606
REMARK  Name = 
REMARK  7 active torsions:
REMARK  status: ('A' for Active; 'I' for Inactive)
REMARK    1  A    between atoms: C_1  and  N_2
REMARK    2  A    between atoms: N_2  and  C_3
REMARK    3  A    between atoms: N_2  and  C_15
REMARK    4  A    between atoms: C_3  and  C_4
REMARK    5  A    between atoms: N_6  and  C_7
REMARK    6  A    between atoms: C_7  and  C_8
REMARK    7  A    between atoms: C_15  and  C_16
REMARK                            x       y       z     vdW  Elec       q    Type
REMARK                         _______ _______ _______ _____ _____    ______ ____
ROOT
ATOM      1  C   UNL     1       1.935   8.908  18.293  0.00  0.00    +0.000 C 
ATOM      2  O   UNL     1       2.160   9.541  17.263  0.00  0.00    +0.000 OA
ATOM      3  N   UNL     1       2.573   7.710  18.475  0.00  0.00    +0.000 N 
ATOM      4  H   UNL     1       3.217   7.473  17.729  0.00  0.00    +0.000 HD
ENDROOT
BRANCH   1   5
ATOM      5  C   UNL     1       0.986   9.435  19.384  0.00  0.00    +0.000 C 
BRANCH   5   7
ATOM      6  C   UNL     1       0.840  11.843  19.586  0.00  0.00    +0.000 C 
ATOM      7  N   UNL     1       0.228  10.652  18.990  0.00  0.00    +0.000 NA
BRANCH   7   8
ATOM      8  C   UNL     1      -1.201  10.557  19.306  0.00  0.00    +0.000 C 
BRANCH   8   9
ATOM      9  C   UNL     1      -2.139  10.585  18.125  0.00  0.00    +0.000 A 
ATOM     10  C   UNL     1      -1.818   9.878  16.957  0.00  0.00    +0.000 A 
ATOM     11  C   UNL     1      -2.657   9.944  15.843  0.00  0.00    +0.000 A 
ATOM     12  C   UNL     1      -3.813  10.719  15.891  0.00  0.00    +0.000 A 
ATOM     13  C   UNL     1      -4.132  11.428  17.049  0.00  0.00    +0.000 A 
ATOM     14 CL   UNL     1      -5.552  12.395  17.098  0.00  0.00    +0.000 Cl
ATOM     15  C   UNL     1      -3.301  11.366  18.165  0.00  0.00    +0.000 A 
ENDBRANCH   8   9
ENDBRANCH   7   8
ENDBRANCH   5   7
ENDBRANCH   1   5
BRANCH   3  16
ATOM     16  C   UNL     1       2.533   6.849  19.634  0.00  0.00    +0.000 C 
BRANCH  16  17
ATOM     17  C   UNL     1       1.921   5.503  19.402  0.00  0.00    +0.000 A 
ATOM     18  C   UNL     1       2.014   4.952  18.112  0.00  0.00    +0.000 A 
ATOM     19  C   UNL     1       1.589   3.649  17.870  0.00  0.00    +0.000 A 
ATOM     20  C   UNL     1       1.079   2.897  18.919  0.00  0.00    +0.000 A 
ATOM     21  F   UNL     1       0.685   1.637  18.692  0.00  0.00    +0.000 F 
ATOM     22  C   UNL     1       0.989   3.418  20.203  0.00  0.00    +0.000 A 
ATOM     23  C   UNL     1       1.415   4.720  20.450  0.00  0.00    +0.000 A 
ENDBRANCH  16  17
ENDBRANCH   3  16
TORSDOF 6
ENDMDL
MODEL 4
REMARK VINA RESULT:      -7.5      5.452      8.137
REMARK  Name = 
REMARK  7 active torsions:
REMARK  status: ('A' for Active; 'I' for Inactive)
REMARK    1  A    between atoms: C_1  and  N_2
REMARK    2  A    between atoms: N_2  and  C_3
REMARK    3  A    between atoms: N_2  and  C_15
REMARK    4  A    between atoms: C_3  and  C_4
REMARK    5  A    between atoms: N_6  and  C_7
REMARK    6  A    between atoms: C_7  and  C_8
REMARK    7  A    between atoms: C_15  and  C_16
REMARK                            x       y       z     vdW  Elec       q    Type
REMARK                         _______ _______ _______ _____ _____    ______ ____
ROOT
ATOM      1  C   UNL     1       7.888   6.754  18.399  0.00  0.00    +0.000 C 
ATOM      2  O   UNL     1       8.101   5.792  19.134  0.00  0.00    +0.000 OA
ATOM      3  N   UNL     1       8.437   7.964  18.731  0.00  0.00    +0.000 N 
ATOM      4  H   UNL     1       9.015   7.935  19.563  0.00  0.00    +0.000 HD
ENDROOT
BRANCH   1   5
ATOM      5  C   UNL     1       7.050   6.628  17.114  0.00  0.00    +0.000 C 
BRANCH   5   7
ATOM      6  C   UNL     1       6.938   4.391  16.196  0.00  0.00    +0.000 C 
ATOM      7  N   UNL     1       6.250   5.378  17.033  0.00  0.00    +0.000 NA
BRANCH   7   8
ATOM      8  C   UNL     1       4.874   5.613  16.582  0.00  0.00    +0.000 C 
BRANCH   8   9
ATOM      9  C   UNL     1       3.791   4.962  17.404  0.00  0.00    +0.000 A 
ATOM     10  C   UNL     1       3.234   3.743  16.992  0.00  0.00    +0.000 A 
ATOM     11  C   UNL     1       2.194   3.164  17.722  0.00  0.00    +0.000 A 
ATOM     12  C   UNL     1       1.707   3.801  18.860  0.00  0.00    +0.000 A 
ATOM     13  C   UNL     1       2.256   5.016  19.270  0.00  0.00    +0.000 A 
ATOM     14 CL   UNL     1       1.640   5.807  20.666  0.00  0.00    +0.000 Cl
ATOM     15  C   UNL     1       3.293   5.600  18.547  0.00  0.00    +0.000 A 
ENDBRANCH   8   9
ENDBRANCH   7   8
ENDBRANCH   5   7
ENDBRANCH   1   5
BRANCH   3  16
ATOM     16  C   UNL     1       8.397   9.195  17.977  0.00  0.00    +0.000 C 
BRANCH  16  17
ATOM     17  C   UNL     1       9.147  10.337  18.588  0.00  0.00    +0.000 A 
ATOM     18  C   UNL     1       9.203  10.411  19.991  0.00  0.00    +0.000 A 
ATOM     19  C   UNL     1       9.999  11.366  20.615  0.00  0.00    +0.000 A 
ATOM     20  C   UNL     1      10.743  12.240  19.836  0.00  0.00    +0.000 A 
ATOM     21  F   UNL     1      11.524  13.150  20.435  0.00  0.00    +0.000 F 
ATOM     22  C   UNL     1      10.712  12.178  18.449  0.00  0.00    +0.000 A 
ATOM     23  C   UNL     1       9.918  11.221  17.821  0.00  0.00    +0.000 A 
ENDBRANCH  16  17
ENDBRANCH   3  16
TORSDOF 6
ENDMDL
MODEL 5
REMARK VINA RESULT:      -7.5      5.466      8.180
REMARK  Name = 
REMARK  7 active torsions:
REMARK  status: ('A' for Active; 'I' for Inactive)
REMARK    1  A    between atoms: C_1  and  N_2
REMARK    2  A    between atoms: N_2  and  C_3
REMARK    3  A    between atoms: N_2  and  C_15
REMARK    4  A    between atoms: C_3  and  C_4
REMARK    5  A    between atoms: N_6  and  C_7
REMARK    6  A    between atoms: C_7  and  C_8
REMARK    7  A    between atoms: C_15  and  C_16
REMARK                            x       y       z     vdW  Elec       q    Type
REMARK                         _______ _______ _______ _____ _____    ______ ____
ROOT
ATOM      1  C   UNL     1       7.764   6.857  18.385  0.00  0.00    +0.000 C 
ATOM      2  O   UNL     1       8.080   5.778  18.883  0.00  0.00    +0.000 OA
ATOM      3  N   UNL     1       8.498   7.966  18.709  0.00  0.00    +0.000 N 
ATOM      4  H   UNL     1       9.280   7.772  19.325  0.00  0.00    +0.000 HD
ENDROOT
BRANCH   1   5
ATOM      5  C   UNL     1       6.592   6.985  17.395  0.00  0.00    +0.000 C 
BRANCH   5   7
ATOM      6  C   UNL     1       6.665   5.265  15.693  0.00  0.00    +0.000 C 
ATOM      7  N   UNL     1       6.032   5.683  16.947  0.00  0.00    +0.000 NA
BRANCH   7   8
ATOM      8  C   UNL     1       4.569   5.701  16.842  0.00  0.00    +0.000 C 
BRANCH   8   9
ATOM      9  C   UNL     1       3.842   4.611  17.589  0.00  0.00    +0.000 A 
ATOM     10  C   UNL     1       4.094   3.265  17.288  0.00  0.00    +0.000 A 
ATOM     11  C   UNL     1       3.385   2.255  17.939  0.00  0.00    +0.000 A 
ATOM     12  C   UNL     1       2.421   2.586  18.888  0.00  0.00    +0.000 A 
ATOM     13  C   UNL     1       2.164   3.924  19.187  0.00  0.00    +0.000 A 
ATOM     14 CL   UNL     1       0.963   4.327  20.347  0.00  0.00    +0.000 Cl
ATOM     15  C   UNL     1       2.869   4.937  18.541  0.00  0.00    +0.000 A 
ENDBRANCH   8   9
ENDBRANCH   7   8
ENDBRANCH   5   7
ENDBRANCH   1   5
BRANCH   3  16
ATOM     16  C   UNL     1       8.368   9.304  18.181  0.00  0.00    +0.000 C 
BRANCH  16  17
ATOM     17  C   UNL     1       9.305  10.311  18.770  0.00  0.00    +0.000 A 
ATOM     18  C   UNL     1      10.044  11.118  17.885  0.00  0.00    +0.000 A 
ATOM     19  C   UNL     1      10.823  12.163  18.369  0.00  0.00    +0.000 A 
ATOM     20  C   UNL     1      10.859  12.405  19.735  0.00  0.00    +0.000 A 
ATOM     21  F   UNL     1      11.596  13.422  20.202  0.00  0.00    +0.000 F 
ATOM     22  C   UNL     1      10.129  11.629  20.625  0.00  0.00    +0.000 A 
ATOM     23  C   UNL     1       9.345  10.583  20.144  0.00  0.00    +0.000 A 
ENDBRANCH  16  17
ENDBRANCH   3  16
TORSDOF 6
ENDMDL
MODEL 6
REMARK VINA RESULT:      -7.4      5.235      8.207
REMARK  Name = 
REMARK  7 active torsions:
REMARK  status: ('A' for Active; 'I' for Inactive)
REMARK    1  A    between atoms: C_1  and  N_2
REMARK    2  A    between atoms: N_2  and  C_3
REMARK    3  A    between atoms: N_2  and  C_15
REMARK    4  A    between atoms: C_3  and  C_4
REMARK    5  A    between atoms: N_6  and  C_7
REMARK    6  A    between atoms: C_7  and  C_8
REMARK    7  A    between atoms: C_15  and  C_16
REMARK                            x       y       z     vdW  Elec       q    Type
REMARK                         _______ _______ _______ _____ _____    ______ ____
ROOT
ATOM      1  C   UNL     1       7.705   6.783  18.454  0.00  0.00    +0.000 C 
ATOM      2  O   UNL     1       8.021   5.811  19.136  0.00  0.00    +0.000 OA
ATOM      3  N   UNL     1       8.407   7.948  18.611  0.00  0.00    +0.000 N 
ATOM      4  H   UNL     1       9.170   7.877  19.276  0.00  0.00    +0.000 HD
ENDROOT
BRANCH   1   5
ATOM      5  C   UNL     1       6.567   6.717  17.419  0.00  0.00    +0.000 C 
BRANCH   5   7
ATOM      6  C   UNL     1       6.023   4.420  16.882  0.00  0.00    +0.000 C 
ATOM      7  N   UNL     1       5.609   5.603  17.643  0.00  0.00    +0.000 NA
BRANCH   7   8
ATOM      8  C   UNL     1       4.221   5.981  17.352  0.00  0.00    +0.000 C 
BRANCH   8   9
ATOM      9  C   UNL     1       3.184   5.470  18.319  0.00  0.00    +0.000 A 
ATOM     10  C   UNL     1       2.947   6.153  19.521  0.00  0.00    +0.000 A 
ATOM     11  C   UNL     1       2.026   5.653  20.443  0.00  0.00    +0.000 A 
ATOM     12  C   UNL     1       1.343   4.471  20.169  0.00  0.00    +0.000 A 
ATOM     13  C   UNL     1       1.579   3.787  18.977  0.00  0.00    +0.000 A 
ATOM     14 CL   UNL     1       0.745   2.320  18.652  0.00  0.00    +0.000 Cl
ATOM     15  C   UNL     1       2.497   4.279  18.052  0.00  0.00    +0.000 A 
ENDBRANCH   8   9
ENDBRANCH   7   8
ENDBRANCH   5   7
ENDBRANCH   1   5
BRANCH   3  16
ATOM     16  C   UNL     1       8.273   9.175  17.862  0.00  0.00    +0.000 C 
BRANCH  16  17
ATOM     17  C   UNL     1       8.842  10.389  18.527  0.00  0.00    +0.000 A 
ATOM     18  C   UNL     1       9.380  10.240  19.818  0.00  0.00    +0.000 A 
ATOM     19  C   UNL     1      10.046  11.297  20.430  0.00  0.00    +0.000 A 
ATOM     20  C   UNL     1      10.180  12.498  19.749  0.00  0.00    +0.000 A 
ATOM     21  F   UNL     1      10.835  13.512  20.329  0.00  0.00    +0.000 F 
ATOM     22  C   UNL     1       9.667  12.664  18.469  0.00  0.00    +0.000 A 
ATOM     23  C   UNL     1       9.001  11.607  17.852  0.00  0.00    +0.000 A 
ENDBRANCH  16  17
ENDBRANCH   3  16
TORSDOF 6
ENDMDL
MODEL 7
REMARK VINA RESULT:      -7.3      6.574      8.411
REMARK  Name = 
REMARK  7 active torsions:
REMARK  status: ('A' for Active; 'I' for Inactive)
REMARK    1  A    between atoms: C_1  and  N_2
REMARK    2  A    between atoms: N_2  and  C_3
REMARK    3  A    between atoms: N_2  and  C_15
REMARK    4  A    between atoms: C_3  and  C_4
REMARK    5  A    between atoms: N_6  and  C_7
REMARK    6  A    between atoms: C_7  and  C_8
REMARK    7  A    between atoms: C_15  and  C_16
REMARK                            x       y       z     vdW  Elec       q    Type
REMARK                         _______ _______ _______ _____ _____    ______ ____
ROOT
ATOM      1  C   UNL     1       1.964   8.963  18.301  0.00  0.00    +0.000 C 
ATOM      2  O   UNL     1       2.208   9.513  17.229  0.00  0.00    +0.000 OA
ATOM      3  N   UNL     1       2.422   7.689  18.501  0.00  0.00    +0.000 N 
ATOM      4  H   UNL     1       2.966   7.325  17.727  0.00  0.00    +0.000 HD
ENDROOT
BRANCH   1   5
ATOM      5  C   UNL     1       1.188   9.676  19.424  0.00  0.00    +0.000 C 
BRANCH   5   7
ATOM      6  C   UNL     1       0.370  11.951  19.538  0.00  0.00    +0.000 C 
ATOM      7  N   UNL     1       0.159  10.632  18.936  0.00  0.00    +0.000 NA
BRANCH   7   8
ATOM      8  C   UNL     1      -1.210  10.147  19.147  0.00  0.00    +0.000 C 
BRANCH   8   9
ATOM      9  C   UNL     1      -2.217  10.543  18.098  0.00  0.00    +0.000 A 
ATOM     10  C   UNL     1      -3.352  11.284  18.458  0.00  0.00    +0.000 A 
ATOM     11  C   UNL     1      -4.313  11.607  17.498  0.00  0.00    +0.000 A 
ATOM     12  C   UNL     1      -4.146  11.189  16.181  0.00  0.00    +0.000 A 
ATOM     13  C   UNL     1      -3.021  10.448  15.820  0.00  0.00    +0.000 A 
ATOM     14 CL   UNL     1      -2.827   9.920  14.197  0.00  0.00    +0.000 Cl
ATOM     15  C   UNL     1      -2.057  10.122  16.772  0.00  0.00    +0.000 A 
ENDBRANCH   8   9
ENDBRANCH   7   8
ENDBRANCH   5   7
ENDBRANCH   1   5
BRANCH   3  16
ATOM     16  C   UNL     1       2.334   6.891  19.701  0.00  0.00    +0.000 C 
BRANCH  16  17
ATOM     17  C   UNL     1       1.831   5.496  19.500  0.00  0.00    +0.000 A 
ATOM     18  C   UNL     1       1.892   4.956  18.202  0.00  0.00    +0.000 A 
ATOM     19  C   UNL     1       1.571   3.621  17.979  0.00  0.00    +0.000 A 
ATOM     20  C   UNL     1       1.195   2.826  19.052  0.00  0.00    +0.000 A 
ATOM     21  F   UNL     1       0.901   1.537  18.842  0.00  0.00    +0.000 F 
ATOM     22  C   UNL     1       1.139   3.336  20.343  0.00  0.00    +0.000 A 
ATOM     23  C   UNL     1       1.462   4.671  20.571  0.00  0.00    +0.000 A 
ENDBRANCH  16  17
ENDBRANCH   3  16
TORSDOF 6
ENDMDL
MODEL 8
REMARK VINA RESULT:      -7.3      3.205      6.422
REMARK  Name = 
REMARK  7 active torsions:
REMARK  status: ('A' for Active; 'I' for Inactive)
REMARK    1  A    between atoms: C_1  and  N_2
REMARK    2  A    between atoms: N_2  and  C_3
REMARK    3  A    between atoms: N_2  and  C_15
REMARK    4  A    between atoms: C_3  and  C_4
REMARK    5  A    between atoms: N_6  and  C_7
REMARK    6  A    between atoms: C_7  and  C_8
REMARK    7  A    between atoms: C_15  and  C_16
REMARK                            x       y       z     vdW  Elec       q    Type
REMARK                         _______ _______ _______ _____ _____    ______ ____
ROOT
ATOM      1  C   UNL     1       7.232   5.030  17.474  0.00  0.00    +0.000 C 
ATOM      2  O   UNL     1       7.485   4.300  18.431  0.00  0.00    +0.000 OA
ATOM      3  N   UNL     1       7.736   4.695  16.246  0.00  0.00    +0.000 N 
ATOM      4  H   UNL     1       8.259   3.826  16.243  0.00  0.00    +0.000 HD
ENDROOT
BRANCH   1   5
ATOM      5  C   UNL     1       6.350   6.283  17.615  0.00  0.00    +0.000 C 
BRANCH   5   7
ATOM      6  C   UNL     1       4.116   7.156  17.286  0.00  0.00    +0.000 C 
ATOM      7  N   UNL     1       4.895   5.992  17.715  0.00  0.00    +0.000 NA
BRANCH   7   8
ATOM      8  C   UNL     1       4.500   5.532  19.052  0.00  0.00    +0.000 C 
BRANCH   8   9
ATOM      9  C   UNL     1       3.615   4.313  19.092  0.00  0.00    +0.000 A 
ATOM     10  C   UNL     1       3.417   3.549  17.933  0.00  0.00    +0.000 A 
ATOM     11  C   UNL     1       2.557   2.450  17.953  0.00  0.00    +0.000 A 
ATOM     12  C   UNL     1       1.889   2.114  19.128  0.00  0.00    +0.000 A 
ATOM     13  C   UNL     1       2.079   2.874  20.282  0.00  0.00    +0.000 A 
ATOM     14 CL   UNL     1       1.241   2.465  21.725  0.00  0.00    +0.000 Cl
ATOM     15  C   UNL     1       2.937   3.971  20.269  0.00  0.00    +0.000 A 
ENDBRANCH   8   9
ENDBRANCH   7   8
ENDBRANCH   5   7
ENDBRANCH   1   5
BRANCH   3  16
ATOM     16  C   UNL     1       7.497   5.345  14.979  0.00  0.00    +0.000 C 
BRANCH  16  17
ATOM     17  C   UNL     1       6.800   4.503  13.956  0.00  0.00    +0.000 A 
ATOM     18  C   UNL     1       5.461   4.147  14.200  0.00  0.00    +0.000 A 
ATOM     19  C   UNL     1       4.720   3.486  13.226  0.00  0.00    +0.000 A 
ATOM     20  C   UNL     1       5.314   3.188  12.008  0.00  0.00    +0.000 A 
ATOM     21  F   UNL     1       4.598   2.567  11.063  0.00  0.00    +0.000 F 
ATOM     22  C   UNL     1       6.631   3.541  11.742  0.00  0.00    +0.000 A 
ATOM     23  C   UNL     1       7.376   4.205  12.714  0.00  0.00    +0.000 A 
ENDBRANCH  16  17
ENDBRANCH   3  16
TORSDOF 6
ENDMDL
MODEL 9
REMARK VINA RESULT:      -7.3      4.720      7.181
REMARK  Name = 
REMARK  7 active torsions:
REMARK  status: ('A' for Active; 'I' for Inactive)
REMARK    1  A    between atoms: C_1  and  N_2
REMARK    2  A    between atoms: N_2  and  C_3
REMARK    3  A    between atoms: N_2  and  C_15
REMARK    4  A    between atoms: C_3  and  C_4
REMARK    5  A    between atoms: N_6  and  C_7
REMARK    6  A    between atoms: C_7  and  C_8
REMARK    7  A    between atoms: C_15  and  C_16
REMARK                            x       y       z     vdW  Elec       q    Type
REMARK                         _______ _______ _______ _____ _____    ______ ____
ROOT
ATOM      1  C   UNL     1       4.458   2.671  19.666  0.00  0.00    +0.000 C 
ATOM      2  O   UNL     1       4.714   1.925  20.608  0.00  0.00    +0.000 OA
ATOM      3  N   UNL     1       5.492   3.324  19.049  0.00  0.00    +0.000 N 
ATOM      4  H   UNL     1       6.404   3.089  19.426  0.00  0.00    +0.000 HD
ENDROOT
BRANCH   1   5
ATOM      5  C   UNL     1       3.021   2.868  19.148  0.00  0.00    +0.000 C 
BRANCH   5   7
ATOM      6  C   UNL     1       0.746   3.570  19.583  0.00  0.00    +0.000 C 
ATOM      7  N   UNL     1       2.077   3.394  20.169  0.00  0.00    +0.000 NA
BRANCH   7   8
ATOM      8  C   UNL     1       2.560   4.624  20.808  0.00  0.00    +0.000 C 
BRANCH   8   9
ATOM      9  C   UNL     1       2.279   5.905  20.064  0.00  0.00    +0.000 A 
ATOM     10  C   UNL     1       2.650   6.031  18.717  0.00  0.00    +0.000 A 
ATOM     11  C   UNL     1       2.441   7.234  18.041  0.00  0.00    +0.000 A 
ATOM     12  C   UNL     1       1.865   8.313  18.706  0.00  0.00    +0.000 A 
ATOM     13  C   UNL     1       1.499   8.193  20.047  0.00  0.00    +0.000 A 
ATOM     14 CL   UNL     1       0.804   9.532  20.868  0.00  0.00    +0.000 Cl
ATOM     15  C   UNL     1       1.705   6.996  20.728  0.00  0.00    +0.000 A 
ENDBRANCH   8   9
ENDBRANCH   7   8
ENDBRANCH   5   7
ENDBRANCH   1   5
BRANCH   3  16
ATOM     16  C   UNL     1       5.439   4.168  17.879  0.00  0.00    +0.000 C 
BRANCH  16  17
ATOM     17  C   UNL     1       6.207   5.448  17.986  0.00  0.00    +0.000 A 
ATOM     18  C   UNL     1       7.331   5.472  18.830  0.00  0.00    +0.000 A 
ATOM     19  C   UNL     1       8.163   6.587  18.863  0.00  0.00    +0.000 A 
ATOM     20  C   UNL     1       7.874   7.673  18.050  0.00  0.00    +0.000 A 
ATOM     21  F   UNL     1       8.682   8.740  18.068  0.00  0.00    +0.000 F 
ATOM     22  C   UNL     1       6.775   7.666  17.201  0.00  0.00    +0.000 A 
ATOM     23  C   UNL     1       5.941   6.551  17.162  0.00  0.00    +0.000 A 
ENDBRANCH  16  17
ENDBRANCH   3  16
TORSDOF 6
ENDMDL
