MODEL 1
REMARK VINA RESULT:      -7.6      0.000      0.000
REMARK  Name = 
REMARK  4 active torsions:
REMARK  status: ('A' for Active; 'I' for Inactive)
REMARK    1  A    between atoms: C_2  and  C_12
REMARK    2  A    between atoms: N_3  and  N_4
REMARK    3  A    between atoms: N_14  and  C_15
REMARK    4  A    between atoms: C_23  and  C_24
REMARK                            x       y       z     vdW  Elec       q    Type
REMARK                         _______ _______ _______ _____ _____    ______ ____
ROOT
ATOM      1  C   UNL     1      -2.323  11.390  18.420  0.00  0.00    +0.000 C 
ATOM      2  N   UNL     1      -1.631  10.301  18.297  0.00  0.00    +0.000 NA
ATOM      3  N   UNL     1      -0.543  10.446  19.103  0.00  0.00    +0.000 N 
ATOM      4  C   UNL     1      -0.549  11.705  19.868  0.00  0.00    +0.000 C 
ATOM      5  C   UNL     1      -1.796  12.427  19.353  0.00  0.00    +0.000 C 
ENDROOT
BRANCH   3   6
ATOM      6  C   UNL     1       0.468   9.482  19.161  0.00  0.00    +0.000 A 
ATOM      7  C   UNL     1       1.224   9.189  18.005  0.00  0.00    +0.000 A 
ATOM      8  C   UNL     1       2.226   8.213  17.999  0.00  0.00    +0.000 A 
ATOM      9  C   UNL     1       2.503   7.506  19.160  0.00  0.00    +0.000 A 
ATOM     10 CL   UNL     1       3.727   6.298  19.157  0.00  0.00    +0.000 Cl
ATOM     11  C   UNL     1       1.788   7.764  20.320  0.00  0.00    +0.000 A 
ATOM     12  C   UNL     1       0.783   8.744  20.323  0.00  0.00    +0.000 A 
ATOM     13 CL   UNL     1      -0.101   8.883  21.811  0.00  0.00    +0.000 Cl
ENDBRANCH   3   6
BRANCH   4  14
ATOM     14  C   UNL     1       0.727  12.507  19.656  0.00  0.00    +0.000 A 
ATOM     15  C   UNL     1       1.586  12.814  20.725  0.00  0.00    +0.000 A 
ATOM     16  C   UNL     1       2.739  13.574  20.518  0.00  0.00    +0.000 A 
ATOM     17  C   UNL     1       3.037  14.047  19.244  0.00  0.00    +0.000 A 
ATOM     18 CL   UNL     1       4.451  14.994  18.991  0.00  0.00    +0.000 Cl
ATOM     19  C   UNL     1       2.194  13.764  18.173  0.00  0.00    +0.000 A 
ATOM     20  C   UNL     1       1.046  12.994  18.376  0.00  0.00    +0.000 A 
ENDBRANCH   4  14
BRANCH   1  22
ATOM     21  O   UNL     1      -3.678  11.268  16.510  0.00  0.00    +0.000 OA
ATOM     22  C   UNL     1      -3.600  11.647  17.667  0.00  0.00    +0.000 C 
ATOM     23  N   UNL     1      -4.565  12.291  18.421  0.00  0.00    +0.000 N 
ATOM     24  H   UNL     1      -4.324  12.553  19.375  0.00  0.00    +0.000 HD
BRANCH  23  25
ATOM     25  N   UNL     1      -5.797  12.647  17.841  0.00  0.00    +0.000 NA
ATOM     26  C   UNL     1      -6.855  11.663  18.131  0.00  0.00    +0.000 C 
ATOM     27  C   UNL     1      -7.691  12.204  19.297  0.00  0.00    +0.000 C 
ATOM     28  C   UNL     1      -7.530  11.450  20.613  0.00  0.00    +0.000 C 
ATOM     29  C   UNL     1      -6.313  12.065  21.274  0.00  0.00    +0.000 C 
ATOM     30  C   UNL     1      -6.363  13.535  20.879  0.00  0.00    +0.000 C 
ATOM     31  C   UNL     1      -7.151  13.613  19.563  0.00  0.00    +0.000 C 
ATOM     32  C   UNL     1      -6.314  13.931  18.331  0.00  0.00    +0.000 C 
ENDBRANCH  23  25
ENDBRANCH   1  22
TORSDOF 4
ENDMDL
MODEL 2
REMARK VINA RESULT:      -7.3      0.800      1.271
REMARK  Name = 
REMARK  4 active torsions:
REMARK  status: ('A' for Active; 'I' for Inactive)
REMARK    1  A    between atoms: C_2  and  C_12
REMARK    2  A    between atoms: N_3  and  N_4
REMARK    3  A    between atoms: N_14  and  C_15
REMARK    4  A    between atoms: C_23  and  C_24
REMARK                            x       y       z     vdW  Elec       q    Type
REMARK                         _______ _______ _______ _____ _____    ______ ____
ROOT
ATOM      1  C   UNL     1      -2.397  11.693  19.085  0.00  0.00    +0.000 C 
ATOM      2  N   UNL     1      -1.758  10.596  18.825  0.00  0.00    +0.000 NA
ATOM      3  N   UNL     1      -0.547  10.705  19.438  0.00  0.00    +0.000 N 
ATOM      4  C   UNL     1      -0.399  11.946  20.218  0.00  0.00    +0.000 C 
ATOM      5  C   UNL     1      -1.700  12.700  19.935  0.00  0.00    +0.000 C 
ENDROOT
BRANCH   3   6
ATOM      6  C   UNL     1       0.440   9.724  19.306  0.00  0.00    +0.000 A 
ATOM      7  C   UNL     1       1.024   9.483  18.043  0.00  0.00    +0.000 A 
ATOM      8  C   UNL     1       1.993   8.493  17.848  0.00  0.00    +0.000 A 
ATOM      9  C   UNL     1       2.409   7.719  18.921  0.00  0.00    +0.000 A 
ATOM     10 CL   UNL     1       3.593   6.494  18.686  0.00  0.00    +0.000 Cl
ATOM     11  C   UNL     1       1.865   7.923  20.181  0.00  0.00    +0.000 A 
ATOM     12  C   UNL     1       0.893   8.917  20.373  0.00  0.00    +0.000 A 
ATOM     13 CL   UNL     1       0.224   8.987  21.973  0.00  0.00    +0.000 Cl
ENDBRANCH   3   6
BRANCH   4  14
ATOM     14  C   UNL     1       0.839  12.732  19.809  0.00  0.00    +0.000 A 
ATOM     15  C   UNL     1       1.035  13.150  18.481  0.00  0.00    +0.000 A 
ATOM     16  C   UNL     1       2.189  13.847  18.116  0.00  0.00    +0.000 A 
ATOM     17  C   UNL     1       3.164  14.121  19.071  0.00  0.00    +0.000 A 
ATOM     18 CL   UNL     1       4.591  14.969  18.620  0.00  0.00    +0.000 Cl
ATOM     19  C   UNL     1       2.993  13.706  20.389  0.00  0.00    +0.000 A 
ATOM     20  C   UNL     1       1.835  13.019  20.758  0.00  0.00    +0.000 A 
ENDBRANCH   4  14
BRANCH   1  22
ATOM     21  O   UNL     1      -4.113  11.499  17.497  0.00  0.00    +0.000 OA
ATOM     22  C   UNL     1      -3.778  11.988  18.563  0.00  0.00    +0.000 C 
ATOM     23  N   UNL     1      -4.524  12.796  19.402  0.00  0.00    +0.000 N 
ATOM     24  H   UNL     1      -4.078  13.134  20.254  0.00  0.00    +0.000 HD
BRANCH  23  25
ATOM     25  N   UNL     1      -5.819  13.203  19.029  0.00  0.00    +0.000 NA
ATOM     26  C   UNL     1      -6.862  12.330  19.595  0.00  0.00    +0.000 C 
ATOM     27  C   UNL     1      -7.426  13.022  20.842  0.00  0.00    +0.000 C 
ATOM     28  C   UNL     1      -7.067  12.359  22.167  0.00  0.00    +0.000 C 
ATOM     29  C   UNL     1      -5.710  12.925  22.536  0.00  0.00    +0.000 C 
ATOM     30  C   UNL     1      -5.741  14.360  22.028  0.00  0.00    +0.000 C 
ATOM     31  C   UNL     1      -6.758  14.400  20.878  0.00  0.00    +0.000 C 
ATOM     32  C   UNL     1      -6.151  14.557  19.490  0.00  0.00    +0.000 C 
ENDBRANCH  23  25
ENDBRANCH   1  22
TORSDOF 4
ENDMDL
MODEL 3
REMARK VINA RESULT:      -7.1      2.011      2.612
REMARK  Name = 
REMARK  4 active torsions:
REMARK  status: ('A' for Active; 'I' for Inactive)
REMARK    1  A    between atoms: C_2  and  C_12
REMARK    2  A    between atoms: N_3  and  N_4
REMARK    3  A    between atoms: N_14  and  C_15
REMARK    4  A    between atoms: C_23  and  C_24
REMARK                            x       y       z     vdW  Elec       q    Type
REMARK                         _______ _______ _______ _____ _____    ______ ____
ROOT
ATOM      1  C   UNL     1      -2.287  12.590  21.455  0.00  0.00    +0.000 C 
ATOM      2  N   UNL     1      -1.893  11.488  20.895  0.00  0.00    +0.000 NA
ATOM      3  N   UNL     1      -0.534  11.561  20.827  0.00  0.00    +0.000 N 
ATOM      4  C   UNL     1       0.016  12.778  21.448  0.00  0.00    +0.000 C 
ATOM      5  C   UNL     1      -1.233  13.562  21.861  0.00  0.00    +0.000 C 
ENDROOT
BRANCH   3   6
ATOM      6  C   UNL     1       0.229  10.567  20.207  0.00  0.00    +0.000 A 
ATOM      7  C   UNL     1       0.388  10.579  18.803  0.00  0.00    +0.000 A 
ATOM      8  C   UNL     1       1.116   9.593  18.129  0.00  0.00    +0.000 A 
ATOM      9  C   UNL     1       1.711   8.566  18.847  0.00  0.00    +0.000 A 
ATOM     10 CL   UNL     1       2.598   7.345  18.024  0.00  0.00    +0.000 Cl
ATOM     11  C   UNL     1       1.583   8.516  20.228  0.00  0.00    +0.000 A 
ATOM     12  C   UNL     1       0.853   9.508  20.902  0.00  0.00    +0.000 A 
ATOM     13 CL   UNL     1       0.685   9.260  22.612  0.00  0.00    +0.000 Cl
ENDBRANCH   3   6
BRANCH   4  14
ATOM     14  C   UNL     1       0.908  13.554  20.489  0.00  0.00    +0.000 A 
ATOM     15  C   UNL     1       2.307  13.425  20.523  0.00  0.00    +0.000 A 
ATOM     16  C   UNL     1       3.113  14.164  19.654  0.00  0.00    +0.000 A 
ATOM     17  C   UNL     1       2.530  15.050  18.753  0.00  0.00    +0.000 A 
ATOM     18 CL   UNL     1       3.523  15.969  17.692  0.00  0.00    +0.000 Cl
ATOM     19  C   UNL     1       1.147  15.200  18.710  0.00  0.00    +0.000 A 
ATOM     20  C   UNL     1       0.339  14.453  19.570  0.00  0.00    +0.000 A 
ENDBRANCH   4  14
BRANCH   1  22
ATOM     21  O   UNL     1      -4.082  13.237  22.819  0.00  0.00    +0.000 OA
ATOM     22  C   UNL     1      -3.736  12.921  21.693  0.00  0.00    +0.000 C 
ATOM     23  N   UNL     1      -4.516  12.834  20.554  0.00  0.00    +0.000 N 
ATOM     24  H   UNL     1      -4.063  12.535  19.691  0.00  0.00    +0.000 HD
BRANCH  23  25
ATOM     25  N   UNL     1      -5.903  13.064  20.624  0.00  0.00    +0.000 NA
ATOM     26  C   UNL     1      -6.393  13.865  19.489  0.00  0.00    +0.000 C 
ATOM     27  C   UNL     1      -7.000  12.901  18.463  0.00  0.00    +0.000 C 
ATOM     28  C   UNL     1      -6.205  12.747  17.171  0.00  0.00    +0.000 C 
ATOM     29  C   UNL     1      -5.166  11.686  17.471  0.00  0.00    +0.000 C 
ATOM     30  C   UNL     1      -5.864  10.723  18.421  0.00  0.00    +0.000 C 
ATOM     31  C   UNL     1      -6.966  11.523  19.132  0.00  0.00    +0.000 C 
ATOM     32  C   UNL     1      -6.694  11.827  20.599  0.00  0.00    +0.000 C 
ENDBRANCH  23  25
ENDBRANCH   1  22
TORSDOF 4
ENDMDL
MODEL 4
REMARK VINA RESULT:      -7.1      1.851      4.160
REMARK  Name = 
REMARK  4 active torsions:
REMARK  status: ('A' for Active; 'I' for Inactive)
REMARK    1  A    between atoms: C_2  and  C_12
REMARK    2  A    between atoms: N_3  and  N_4
REMARK    3  A    between atoms: N_14  and  C_15
REMARK    4  A    between atoms: C_23  and  C_24
REMARK                            x       y       z     vdW  Elec       q    Type
REMARK                         _______ _______ _______ _____ _____    ______ ____
ROOT
ATOM      1  C   UNL     1      -2.244  11.393  17.629  0.00  0.00    +0.000 C 
ATOM      2  N   UNL     1      -1.478  12.433  17.743  0.00  0.00    +0.000 NA
ATOM      3  N   UNL     1      -0.333  12.000  18.340  0.00  0.00    +0.000 N 
ATOM      4  C   UNL     1      -0.317  10.547  18.582  0.00  0.00    +0.000 C 
ATOM      5  C   UNL     1      -1.706  10.095  18.126  0.00  0.00    +0.000 C 
ENDROOT
BRANCH   3   6
ATOM      6  C   UNL     1       0.696  12.878  18.689  0.00  0.00    +0.000 A 
ATOM      7  C   UNL     1       2.001  12.662  18.192  0.00  0.00    +0.000 A 
ATOM      8  C   UNL     1       3.074  13.493  18.533  0.00  0.00    +0.000 A 
ATOM      9  C   UNL     1       2.865  14.571  19.381  0.00  0.00    +0.000 A 
ATOM     10 CL   UNL     1       4.182  15.590  19.812  0.00  0.00    +0.000 Cl
ATOM     11  C   UNL     1       1.599  14.823  19.890  0.00  0.00    +0.000 A 
ATOM     12  C   UNL     1       0.525  13.988  19.546  0.00  0.00    +0.000 A 
ATOM     13 CL   UNL     1      -0.974  14.357  20.341  0.00  0.00    +0.000 Cl
ENDBRANCH   3   6
BRANCH   4  14
ATOM     14  C   UNL     1      -0.039  10.215  20.041  0.00  0.00    +0.000 A 
ATOM     15  C   UNL     1       0.900   9.233  20.403  0.00  0.00    +0.000 A 
ATOM     16  C   UNL     1       1.125   8.921  21.746  0.00  0.00    +0.000 A 
ATOM     17  C   UNL     1       0.403   9.577  22.739  0.00  0.00    +0.000 A 
ATOM     18 CL   UNL     1       0.670   9.185  24.392  0.00  0.00    +0.000 Cl
ATOM     19  C   UNL     1      -0.538  10.545  22.402  0.00  0.00    +0.000 A 
ATOM     20  C   UNL     1      -0.756  10.866  21.060  0.00  0.00    +0.000 A 
ENDBRANCH   4  14
BRANCH   1  22
ATOM     21  O   UNL     1      -3.785  11.073  15.889  0.00  0.00    +0.000 OA
ATOM     22  C   UNL     1      -3.628  11.448  17.039  0.00  0.00    +0.000 C 
ATOM     23  N   UNL     1      -4.584  11.923  17.920  0.00  0.00    +0.000 N 
ATOM     24  H   UNL     1      -4.273  12.212  18.846  0.00  0.00    +0.000 HD
BRANCH  23  25
ATOM     25  N   UNL     1      -5.918  12.082  17.500  0.00  0.00    +0.000 NA
ATOM     26  C   UNL     1      -6.841  11.194  18.228  0.00  0.00    +0.000 C 
ATOM     27  C   UNL     1      -7.503  12.015  19.340  0.00  0.00    +0.000 C 
ATOM     28  C   UNL     1      -7.070  11.653  20.757  0.00  0.00    +0.000 C 
ATOM     29  C   UNL     1      -5.804  12.450  20.999  0.00  0.00    +0.000 C 
ATOM     30  C   UNL     1      -6.021  13.754  20.244  0.00  0.00    +0.000 C 
ATOM     31  C   UNL     1      -7.024  13.455  19.121  0.00  0.00    +0.000 C 
ATOM     32  C   UNL     1      -6.432  13.441  17.717  0.00  0.00    +0.000 C 
ENDBRANCH  23  25
ENDBRANCH   1  22
TORSDOF 4
ENDMDL
MODEL 5
REMARK VINA RESULT:      -7.0      3.680      8.334
REMARK  Name = 
REMARK  4 active torsions:
REMARK  status: ('A' for Active; 'I' for Inactive)
REMARK    1  A    between atoms: C_2  and  C_12
REMARK    2  A    between atoms: N_3  and  N_4
REMARK    3  A    between atoms: N_14  and  C_15
REMARK    4  A    between atoms: C_23  and  C_24
REMARK                            x       y       z     vdW  Elec       q    Type
REMARK                         _______ _______ _______ _____ _____    ______ ____
ROOT
ATOM      1  C   UNL     1       2.162   8.501  18.354  0.00  0.00    +0.000 C 
ATOM      2  N   UNL     1       2.621   9.713  18.381  0.00  0.00    +0.000 NA
ATOM      3  N   UNL     1       1.615  10.492  18.869  0.00  0.00    +0.000 N 
ATOM      4  C   UNL     1       0.420   9.722  19.255  0.00  0.00    +0.000 C 
ATOM      5  C   UNL     1       0.769   8.290  18.843  0.00  0.00    +0.000 C 
ENDROOT
BRANCH   3   6
ATOM      6  C   UNL     1       1.736  11.880  18.965  0.00  0.00    +0.000 A 
ATOM      7  C   UNL     1       2.309  12.610  17.900  0.00  0.00    +0.000 A 
ATOM      8  C   UNL     1       2.481  13.997  17.956  0.00  0.00    +0.000 A 
ATOM      9  C   UNL     1       2.076  14.695  19.084  0.00  0.00    +0.000 A 
ATOM     10 CL   UNL     1       2.294  16.398  19.164  0.00  0.00    +0.000 Cl
ATOM     11  C   UNL     1       1.505  14.019  20.154  0.00  0.00    +0.000 A 
ATOM     12  C   UNL     1       1.333  12.627  20.094  0.00  0.00    +0.000 A 
ATOM     13 CL   UNL     1       0.708  11.904  21.543  0.00  0.00    +0.000 Cl
ENDBRANCH   3   6
BRANCH   4  14
ATOM     14  C   UNL     1      -0.837  10.242  18.570  0.00  0.00    +0.000 A 
ATOM     15  C   UNL     1      -1.688  11.165  19.203  0.00  0.00    +0.000 A 
ATOM     16  C   UNL     1      -2.851  11.612  18.573  0.00  0.00    +0.000 A 
ATOM     17  C   UNL     1      -3.183  11.129  17.310  0.00  0.00    +0.000 A 
ATOM     18 CL   UNL     1      -4.622  11.669  16.538  0.00  0.00    +0.000 Cl
ATOM     19  C   UNL     1      -2.360  10.207  16.670  0.00  0.00    +0.000 A 
ATOM     20  C   UNL     1      -1.190   9.768  17.295  0.00  0.00    +0.000 A 
ENDBRANCH   4  14
BRANCH   1  22
ATOM     21  O   UNL     1       3.948   7.547  17.170  0.00  0.00    +0.000 OA
ATOM     22  C   UNL     1       2.958   7.328  17.849  0.00  0.00    +0.000 C 
ATOM     23  N   UNL     1       2.451   6.104  18.248  0.00  0.00    +0.000 N 
ATOM     24  H   UNL     1       1.597   6.103  18.804  0.00  0.00    +0.000 HD
BRANCH  23  25
ATOM     25  N   UNL     1       3.056   4.910  17.814  0.00  0.00    +0.000 NA
ATOM     26  C   UNL     1       3.932   4.323  18.842  0.00  0.00    +0.000 C 
ATOM     27  C   UNL     1       3.147   3.210  19.547  0.00  0.00    +0.000 C 
ATOM     28  C   UNL     1       2.748   3.513  20.987  0.00  0.00    +0.000 C 
ATOM     29  C   UNL     1       1.449   4.287  20.882  0.00  0.00    +0.000 C 
ATOM     30  C   UNL     1       0.740   3.686  19.677  0.00  0.00    +0.000 C 
ATOM     31  C   UNL     1       1.830   3.091  18.773  0.00  0.00    +0.000 C 
ATOM     32  C   UNL     1       2.084   3.860  17.483  0.00  0.00    +0.000 C 
ENDBRANCH  23  25
ENDBRANCH   1  22
TORSDOF 4
ENDMDL
MODEL 6
REMARK VINA RESULT:      -6.9      2.177      2.901
REMARK  Name = 
REMARK  4 active torsions:
REMARK  status: ('A' for Active; 'I' for Inactive)
REMARK    1  A    between atoms: C_2  and  C_12
REMARK    2  A    between atoms: N_3  and  N_4
REMARK    3  A    between atoms: N_14  and  C_15
REMARK    4  A    between atoms: C_23  and  C_24
REMARK                            x       y       z     vdW  Elec       q    Type
REMARK                         _______ _______ _______ _____ _____    ______ ____
ROOT
ATOM      1  C   UNL     1      -2.676  13.005  21.660  0.00  0.00    +0.000 C 
ATOM      2  N   UNL     1      -2.264  11.883  21.156  0.00  0.00    +0.000 NA
ATOM      3  N   UNL     1      -0.904  11.951  21.136  0.00  0.00    +0.000 N 
ATOM      4  C   UNL     1      -0.374  13.190  21.731  0.00  0.00    +0.000 C 
ATOM      5  C   UNL     1      -1.635  13.990  22.068  0.00  0.00    +0.000 C 
ENDROOT
BRANCH   3   6
ATOM      6  C   UNL     1      -0.122  10.934  20.582  0.00  0.00    +0.000 A 
ATOM      7  C   UNL     1       0.149  10.933  19.196  0.00  0.00    +0.000 A 
ATOM      8  C   UNL     1       0.901   9.924  18.585  0.00  0.00    +0.000 A 
ATOM      9  C   UNL     1       1.409   8.886  19.353  0.00  0.00    +0.000 A 
ATOM     10 CL   UNL     1       2.326   7.637  18.607  0.00  0.00    +0.000 Cl
ATOM     11  C   UNL     1       1.171   8.848  20.719  0.00  0.00    +0.000 A 
ATOM     12  C   UNL     1       0.417   9.862  21.329  0.00  0.00    +0.000 A 
ATOM     13 CL   UNL     1       0.107   9.628  23.021  0.00  0.00    +0.000 Cl
ENDBRANCH   3   6
BRANCH   4  14
ATOM     14  C   UNL     1       0.555  13.928  20.778  0.00  0.00    +0.000 A 
ATOM     15  C   UNL     1       0.053  14.687  19.707  0.00  0.00    +0.000 A 
ATOM     16  C   UNL     1       0.920  15.337  18.825  0.00  0.00    +0.000 A 
ATOM     17  C   UNL     1       2.297  15.222  18.997  0.00  0.00    +0.000 A 
ATOM     18 CL   UNL     1       3.365  16.012  17.905  0.00  0.00    +0.000 Cl
ATOM     19  C   UNL     1       2.814  14.467  20.046  0.00  0.00    +0.000 A 
ATOM     20  C   UNL     1       1.948  13.826  20.935  0.00  0.00    +0.000 A 
ENDBRANCH   4  14
BRANCH   1  22
ATOM     21  O   UNL     1      -4.446  14.122  22.719  0.00  0.00    +0.000 OA
ATOM     22  C   UNL     1      -4.132  13.347  21.831  0.00  0.00    +0.000 C 
ATOM     23  N   UNL     1      -4.957  12.723  20.912  0.00  0.00    +0.000 N 
ATOM     24  H   UNL     1      -4.525  12.086  20.243  0.00  0.00    +0.000 HD
BRANCH  23  25
ATOM     25  N   UNL     1      -6.352  12.902  20.974  0.00  0.00    +0.000 NA
ATOM     26  C   UNL     1      -6.847  13.792  19.910  0.00  0.00    +0.000 C 
ATOM     27  C   UNL     1      -7.403  12.911  18.784  0.00  0.00    +0.000 C 
ATOM     28  C   UNL     1      -6.580  12.906  17.501  0.00  0.00    +0.000 C 
ATOM     29  C   UNL     1      -5.512  11.854  17.721  0.00  0.00    +0.000 C 
ATOM     30  C   UNL     1      -6.195  10.783  18.561  0.00  0.00    +0.000 C 
ATOM     31  C   UNL     1      -7.335  11.477  19.320  0.00  0.00    +0.000 C 
ATOM     32  C   UNL     1      -7.100  11.649  20.815  0.00  0.00    +0.000 C 
ENDBRANCH  23  25
ENDBRANCH   1  22
TORSDOF 4
ENDMDL
MODEL 7
REMARK VINA RESULT:      -6.8      1.754      4.264
REMARK  Name = 
REMARK  4 active torsions:
REMARK  status: ('A' for Active; 'I' for Inactive)
REMARK    1  A    between atoms: C_2  and  C_12
REMARK    2  A    between atoms: N_3  and  N_4
REMARK    3  A    between atoms: N_14  and  C_15
REMARK    4  A    between atoms: C_23  and  C_24
REMARK                            x       y       z     vdW  Elec       q    Type
REMARK                         _______ _______ _______ _____ _____    ______ ____
ROOT
ATOM      1  C   UNL     1      -2.299  11.394  17.668  0.00  0.00    +0.000 C 
ATOM      2  N   UNL     1      -1.554  12.444  17.827  0.00  0.00    +0.000 NA
ATOM      3  N   UNL     1      -0.421  12.017  18.452  0.00  0.00    +0.000 N 
ATOM      4  C   UNL     1      -0.388  10.560  18.664  0.00  0.00    +0.000 C 
ATOM      5  C   UNL     1      -1.755  10.095  18.155  0.00  0.00    +0.000 C 
ENDROOT
BRANCH   3   6
ATOM      6  C   UNL     1       0.581  12.905  18.850  0.00  0.00    +0.000 A 
ATOM      7  C   UNL     1       0.234  14.107  19.505  0.00  0.00    +0.000 A 
ATOM      8  C   UNL     1       1.195  15.045  19.899  0.00  0.00    +0.000 A 
ATOM      9  C   UNL     1       2.537  14.798  19.651  0.00  0.00    +0.000 A 
ATOM     10 CL   UNL     1       3.722  15.951  20.124  0.00  0.00    +0.000 Cl
ATOM     11  C   UNL     1       2.925  13.629  19.013  0.00  0.00    +0.000 A 
ATOM     12  C   UNL     1       1.958  12.690  18.620  0.00  0.00    +0.000 A 
ATOM     13 CL   UNL     1       2.576  11.328  17.738  0.00  0.00    +0.000 Cl
ENDBRANCH   3   6
BRANCH   4  14
ATOM     14  C   UNL     1      -0.150  10.203  20.125  0.00  0.00    +0.000 A 
ATOM     15  C   UNL     1      -0.845  10.853  21.160  0.00  0.00    +0.000 A 
ATOM     16  C   UNL     1      -0.596  10.532  22.497  0.00  0.00    +0.000 A 
ATOM     17  C   UNL     1       0.359   9.570  22.812  0.00  0.00    +0.000 A 
ATOM     18 CL   UNL     1       0.675   9.184  24.458  0.00  0.00    +0.000 Cl
ATOM     19  C   UNL     1       1.065   8.922  21.802  0.00  0.00    +0.000 A 
ATOM     20  C   UNL     1       0.809   9.234  20.465  0.00  0.00    +0.000 A 
ENDBRANCH   4  14
BRANCH   1  22
ATOM     21  O   UNL     1      -3.802  10.971  15.917  0.00  0.00    +0.000 OA
ATOM     22  C   UNL     1      -3.664  11.439  17.035  0.00  0.00    +0.000 C 
ATOM     23  N   UNL     1      -4.627  12.015  17.843  0.00  0.00    +0.000 N 
ATOM     24  H   UNL     1      -4.332  12.374  18.751  0.00  0.00    +0.000 HD
BRANCH  23  25
ATOM     25  N   UNL     1      -5.944  12.177  17.373  0.00  0.00    +0.000 NA
ATOM     26  C   UNL     1      -6.910  11.365  18.133  0.00  0.00    +0.000 C 
ATOM     27  C   UNL     1      -7.582  12.279  19.164  0.00  0.00    +0.000 C 
ATOM     28  C   UNL     1      -7.200  12.008  20.615  0.00  0.00    +0.000 C 
ATOM     29  C   UNL     1      -5.921  12.789  20.839  0.00  0.00    +0.000 C 
ATOM     30  C   UNL     1      -6.082  14.041  19.988  0.00  0.00    +0.000 C 
ATOM     31  C   UNL     1      -7.060  13.687  18.859  0.00  0.00    +0.000 C 
ATOM     32  C   UNL     1      -6.427  13.559  17.479  0.00  0.00    +0.000 C 
ENDBRANCH  23  25
ENDBRANCH   1  22
TORSDOF 4
ENDMDL
MODEL 8
REMARK VINA RESULT:      -6.8      2.366      3.112
REMARK  Name = 
REMARK  4 active torsions:
REMARK  status: ('A' for Active; 'I' for Inactive)
REMARK    1  A    between atoms: C_2  and  C_12
REMARK    2  A    between atoms: N_3  and  N_4
REMARK    3  A    between atoms: N_14  and  C_15
REMARK    4  A    between atoms: C_23  and  C_24
REMARK                            x       y       z     vdW  Elec       q    Type
REMARK                         _______ _______ _______ _____ _____    ______ ____
ROOT
ATOM      1  C   UNL     1      -2.707  12.745  21.670  0.00  0.00    +0.000 C 
ATOM      2  N   UNL     1      -2.315  11.695  21.019  0.00  0.00    +0.000 NA
ATOM      3  N   UNL     1      -0.960  11.793  20.918  0.00  0.00    +0.000 N 
ATOM      4  C   UNL     1      -0.408  12.968  21.613  0.00  0.00    +0.000 C 
ATOM      5  C   UNL     1      -1.654  13.700  22.118  0.00  0.00    +0.000 C 
ENDROOT
BRANCH   3   6
ATOM      6  C   UNL     1      -0.203  10.860  20.204  0.00  0.00    +0.000 A 
ATOM      7  C   UNL     1       0.623   9.949  20.898  0.00  0.00    +0.000 A 
ATOM      8  C   UNL     1       1.424   9.014  20.232  0.00  0.00    +0.000 A 
ATOM      9  C   UNL     1       1.413   8.964  18.846  0.00  0.00    +0.000 A 
ATOM     10 CL   UNL     1       2.402   7.825  18.021  0.00  0.00    +0.000 Cl
ATOM     11  C   UNL     1       0.614   9.838  18.123  0.00  0.00    +0.000 A 
ATOM     12  C   UNL     1      -0.189  10.774  18.794  0.00  0.00    +0.000 A 
ATOM     13 CL   UNL     1      -1.051  11.873  17.763  0.00  0.00    +0.000 Cl
ENDBRANCH   3   6
BRANCH   4  14
ATOM     14  C   UNL     1       0.446  13.827  20.690  0.00  0.00    +0.000 A 
ATOM     15  C   UNL     1      -0.136  14.708  19.762  0.00  0.00    +0.000 A 
ATOM     16  C   UNL     1       0.661  15.469  18.904  0.00  0.00    +0.000 A 
ATOM     17  C   UNL     1       2.046  15.347  18.956  0.00  0.00    +0.000 A 
ATOM     18 CL   UNL     1       3.028  16.275  17.891  0.00  0.00    +0.000 Cl
ATOM     19  C   UNL     1       2.642  14.473  19.860  0.00  0.00    +0.000 A 
ATOM     20  C   UNL     1       1.847  13.719  20.727  0.00  0.00    +0.000 A 
ENDBRANCH   4  14
BRANCH   1  22
ATOM     21  O   UNL     1      -4.447  13.411  23.096  0.00  0.00    +0.000 OA
ATOM     22  C   UNL     1      -4.153  13.036  21.973  0.00  0.00    +0.000 C 
ATOM     23  N   UNL     1      -4.992  12.847  20.890  0.00  0.00    +0.000 N 
ATOM     24  H   UNL     1      -4.577  12.510  20.022  0.00  0.00    +0.000 HD
BRANCH  23  25
ATOM     25  N   UNL     1      -6.381  13.029  21.028  0.00  0.00    +0.000 NA
ATOM     26  C   UNL     1      -6.959  13.782  19.902  0.00  0.00    +0.000 C 
ATOM     27  C   UNL     1      -7.582  12.771  18.933  0.00  0.00    +0.000 C 
ATOM     28  C   UNL     1      -6.850  12.612  17.604  0.00  0.00    +0.000 C 
ATOM     29  C   UNL     1      -5.758  11.597  17.874  0.00  0.00    +0.000 C 
ATOM     30  C   UNL     1      -6.369  10.634  18.883  0.00  0.00    +0.000 C 
ATOM     31  C   UNL     1      -7.461  11.412  19.631  0.00  0.00    +0.000 C 
ATOM     32  C   UNL     1      -7.125  11.764  21.075  0.00  0.00    +0.000 C 
ENDBRANCH  23  25
ENDBRANCH   1  22
TORSDOF 4
ENDMDL
MODEL 9
REMARK VINA RESULT:      -6.7      3.159      3.911
REMARK  Name = 
REMARK  4 active torsions:
REMARK  status: ('A' for Active; 'I' for Inactive)
REMARK    1  A    between atoms: C_2  and  C_12
REMARK    2  A    between atoms: N_3  and  N_4
REMARK    3  A    between atoms: N_14  and  C_15
REMARK    4  A    between atoms: C_23  and  C_24
REMARK                            x       y       z     vdW  Elec       q    Type
REMARK                         _______ _______ _______ _____ _____    ______ ____
ROOT
ATOM      1  C   UNL     1      -2.638  12.830  22.952  0.00  0.00    +0.000 C 
ATOM      2  N   UNL     1      -2.351  11.836  22.171  0.00  0.00    +0.000 NA
ATOM      3  N   UNL     1      -1.088  12.063  21.712  0.00  0.00    +0.000 N 
ATOM      4  C   UNL     1      -0.470  13.271  22.285  0.00  0.00    +0.000 C 
ATOM      5  C   UNL     1      -1.587  13.871  23.141  0.00  0.00    +0.000 C 
ENDROOT
BRANCH   3   6
ATOM      6  C   UNL     1      -0.479  11.221  20.778  0.00  0.00    +0.000 A 
ATOM      7  C   UNL     1       0.564  10.361  21.185  0.00  0.00    +0.000 A 
ATOM      8  C   UNL     1       1.229   9.519  20.286  0.00  0.00    +0.000 A 
ATOM      9  C   UNL     1       0.859   9.513  18.949  0.00  0.00    +0.000 A 
ATOM     10 CL   UNL     1       1.678   8.489  17.837  0.00  0.00    +0.000 Cl
ATOM     11  C   UNL     1      -0.163  10.340  18.505  0.00  0.00    +0.000 A 
ATOM     12  C   UNL     1      -0.828  11.183  19.410  0.00  0.00    +0.000 A 
ATOM     13 CL   UNL     1      -2.008  12.238  18.696  0.00  0.00    +0.000 Cl
ENDBRANCH   3   6
BRANCH   4  14
ATOM     14  C   UNL     1       0.023  14.225  21.206  0.00  0.00    +0.000 A 
ATOM     15  C   UNL     1       1.378  14.277  20.837  0.00  0.00    +0.000 A 
ATOM     16  C   UNL     1       1.819  15.178  19.865  0.00  0.00    +0.000 A 
ATOM     17  C   UNL     1       0.912  16.044  19.262  0.00  0.00    +0.000 A 
ATOM     18 CL   UNL     1       1.456  17.161  18.073  0.00  0.00    +0.000 Cl
ATOM     19  C   UNL     1      -0.433  16.016  19.620  0.00  0.00    +0.000 A 
ATOM     20  C   UNL     1      -0.877  15.108  20.584  0.00  0.00    +0.000 A 
ENDBRANCH   4  14
BRANCH   1  22
ATOM     21  O   UNL     1      -4.048  12.640  24.817  0.00  0.00    +0.000 OA
ATOM     22  C   UNL     1      -3.965  12.977  23.647  0.00  0.00    +0.000 C 
ATOM     23  N   UNL     1      -4.954  13.510  22.841  0.00  0.00    +0.000 N 
ATOM     24  H   UNL     1      -4.714  13.721  21.873  0.00  0.00    +0.000 HD
BRANCH  23  25
ATOM     25  N   UNL     1      -6.264  13.662  23.332  0.00  0.00    +0.000 NA
ATOM     26  C   UNL     1      -7.037  14.652  22.562  0.00  0.00    +0.000 C 
ATOM     27  C   UNL     1      -7.917  13.888  21.565  0.00  0.00    +0.000 C 
ATOM     28  C   UNL     1      -7.510  14.031  20.102  0.00  0.00    +0.000 C 
ATOM     29  C   UNL     1      -6.444  12.977  19.884  0.00  0.00    +0.000 C 
ATOM     30  C   UNL     1      -6.866  11.814  20.771  0.00  0.00    +0.000 C 
ATOM     31  C   UNL     1      -7.718  12.406  21.902  0.00  0.00    +0.000 C 
ATOM     32  C   UNL     1      -7.049  12.422  23.271  0.00  0.00    +0.000 C 
ENDBRANCH  23  25
ENDBRANCH   1  22
TORSDOF 4
ENDMDL
