MODEL 1
REMARK VINA RESULT:      -7.3      0.000      0.000
REMARK  Name = 
REMARK  10 active torsions:
REMARK  status: ('A' for Active; 'I' for Inactive)
REMARK    1  A    between atoms: C_1  and  O_2
REMARK    2  A    between atoms: O_2  and  C_3
REMARK    3  A    between atoms: C_8  and  N_9
REMARK    4  A    between atoms: N_9  and  C_10
REMARK    5  A    between atoms: C_10  and  C_11
REMARK    6  A    between atoms: C_11  and  C_12
REMARK    7  A    between atoms: C_12  and  O_14
REMARK    8  A    between atoms: O_14  and  C_15
REMARK    9  A    between atoms: C_15  and  C_16
REMARK   10  A    between atoms: N_18  and  C_19
REMARK                            x       y       z     vdW  Elec       q    Type
REMARK                         _______ _______ _______ _____ _____    ______ ____
ROOT
ATOM      1  C   UNL     1       1.338   2.745  19.404  0.00  0.00    +0.000 C 
ATOM      2  O   UNL     1       0.463   2.769  18.548  0.00  0.00    +0.000 OA
ENDROOT
BRANCH   1   3
ATOM      3  C   UNL     1       1.362   3.598  20.652  0.00  0.00    +0.000 C 
BRANCH   3   4
ATOM      4  C   UNL     1       2.454   4.645  20.468  0.00  0.00    +0.000 C 
BRANCH   4   5
ATOM      5  N   UNL     1       2.058   5.971  20.937  0.00  0.00    +0.000 N 
ATOM      6  H   UNL     1       1.203   5.972  21.488  0.00  0.00    +0.000 HD
BRANCH   5  12
ATOM      7  C   UNL     1       1.321   8.249  20.107  0.00  0.00    +0.000 A 
ATOM      8  C   UNL     1       1.423   9.236  19.107  0.00  0.00    +0.000 A 
ATOM      9  C   UNL     1       2.142   8.993  17.941  0.00  0.00    +0.000 A 
ATOM     10  C   UNL     1       2.799   7.772  17.782  0.00  0.00    +0.000 A 
ATOM     11  C   UNL     1       2.752   6.817  18.804  0.00  0.00    +0.000 A 
ATOM     12  C   UNL     1       2.054   7.040  20.008  0.00  0.00    +0.000 A 
BRANCH   7  14
ATOM     13  C   UNL     1       1.221   9.310  22.224  0.00  0.00    +0.000 C 
ATOM     14  O   UNL     1       0.577   8.515  21.230  0.00  0.00    +0.000 OA
ENDBRANCH   7  14
ENDBRANCH   5  12
ENDBRANCH   4   5
ENDBRANCH   3   4
ENDBRANCH   1   3
BRANCH   1  15
ATOM     15  O   UNL     1       2.458   1.978  19.311  0.00  0.00    +0.000 OA
BRANCH  15  16
ATOM     16  C   UNL     1       2.940   1.859  17.965  0.00  0.00    +0.000 C 
BRANCH  16  17
ATOM     17  C   UNL     1       3.679   3.148  17.604  0.00  0.00    +0.000 C 
ATOM     18  O   UNL     1       3.126   4.051  16.975  0.00  0.00    +0.000 OA
ATOM     19  N   UNL     1       4.999   3.188  18.023  0.00  0.00    +0.000 N 
ATOM     20  H   UNL     1       5.491   2.300  18.061  0.00  0.00    +0.000 HD
BRANCH  19  21
ATOM     21  C   UNL     1       5.812   4.329  17.803  0.00  0.00    +0.000 A 
ATOM     22  C   UNL     1       6.107   5.211  18.852  0.00  0.00    +0.000 A 
ATOM     23  C   UNL     1       6.892   6.343  18.627  0.00  0.00    +0.000 A 
ATOM     24  C   UNL     1       7.378   6.612  17.350  0.00  0.00    +0.000 A 
ATOM     25  C   UNL     1       7.099   5.736  16.299  0.00  0.00    +0.000 A 
ATOM     26  C   UNL     1       6.336   4.589  16.530  0.00  0.00    +0.000 A 
ATOM     27 CL   UNL     1       5.982   3.548  15.194  0.00  0.00    +0.000 Cl
ENDBRANCH  19  21
ENDBRANCH  16  17
ENDBRANCH  15  16
ENDBRANCH   1  15
TORSDOF 9
ENDMDL
MODEL 2
REMARK VINA RESULT:      -7.3      1.450      1.944
REMARK  Name = 
REMARK  10 active torsions:
REMARK  status: ('A' for Active; 'I' for Inactive)
REMARK    1  A    between atoms: C_1  and  O_2
REMARK    2  A    between atoms: O_2  and  C_3
REMARK    3  A    between atoms: C_8  and  N_9
REMARK    4  A    between atoms: N_9  and  C_10
REMARK    5  A    between atoms: C_10  and  C_11
REMARK    6  A    between atoms: C_11  and  C_12
REMARK    7  A    between atoms: C_12  and  O_14
REMARK    8  A    between atoms: O_14  and  C_15
REMARK    9  A    between atoms: C_15  and  C_16
REMARK   10  A    between atoms: N_18  and  C_19
REMARK                            x       y       z     vdW  Elec       q    Type
REMARK                         _______ _______ _______ _____ _____    ______ ____
ROOT
ATOM      1  C   UNL     1       1.344   2.965  20.450  0.00  0.00    +0.000 C 
ATOM      2  O   UNL     1       1.720   2.379  21.458  0.00  0.00    +0.000 OA
ENDROOT
BRANCH   1   3
ATOM      3  C   UNL     1       0.955   4.423  20.382  0.00  0.00    +0.000 C 
BRANCH   3   4
ATOM      4  C   UNL     1       2.175   5.242  20.786  0.00  0.00    +0.000 C 
BRANCH   4   5
ATOM      5  N   UNL     1       1.848   6.629  21.113  0.00  0.00    +0.000 N 
ATOM      6  H   UNL     1       1.013   6.728  21.686  0.00  0.00    +0.000 HD
BRANCH   5  12
ATOM      7  C   UNL     1       1.037   8.738  19.968  0.00  0.00    +0.000 A 
ATOM      8  C   UNL     1       1.161   9.614  18.872  0.00  0.00    +0.000 A 
ATOM      9  C   UNL     1       1.997   9.301  17.805  0.00  0.00    +0.000 A 
ATOM     10  C   UNL     1       2.746   8.125  17.842  0.00  0.00    +0.000 A 
ATOM     11  C   UNL     1       2.672   7.287  18.960  0.00  0.00    +0.000 A 
ATOM     12  C   UNL     1       1.855   7.586  20.070  0.00  0.00    +0.000 A 
BRANCH   7  14
ATOM     13  C   UNL     1       0.735   9.872  22.028  0.00  0.00    +0.000 C 
ATOM     14  O   UNL     1       0.180   9.068  20.989  0.00  0.00    +0.000 OA
ENDBRANCH   7  14
ENDBRANCH   5  12
ENDBRANCH   4   5
ENDBRANCH   3   4
ENDBRANCH   1   3
BRANCH   1  15
ATOM     15  O   UNL     1       1.163   2.350  19.249  0.00  0.00    +0.000 OA
BRANCH  15  16
ATOM     16  C   UNL     1       1.368   3.232  18.137  0.00  0.00    +0.000 C 
BRANCH  16  17
ATOM     17  C   UNL     1       2.833   3.134  17.710  0.00  0.00    +0.000 C 
ATOM     18  O   UNL     1       3.434   2.059  17.721  0.00  0.00    +0.000 OA
ATOM     19  N   UNL     1       3.405   4.342  17.345  0.00  0.00    +0.000 N 
ATOM     20  H   UNL     1       3.055   5.172  17.814  0.00  0.00    +0.000 HD
BRANCH  19  21
ATOM     21  C   UNL     1       4.745   4.418  16.884  0.00  0.00    +0.000 A 
ATOM     22  C   UNL     1       5.047   4.243  15.527  0.00  0.00    +0.000 A 
ATOM     23  C   UNL     1       6.368   4.301  15.082  0.00  0.00    +0.000 A 
ATOM     24  C   UNL     1       7.402   4.520  15.990  0.00  0.00    +0.000 A 
ATOM     25  C   UNL     1       7.112   4.704  17.343  0.00  0.00    +0.000 A 
ATOM     26  C   UNL     1       5.787   4.674  17.785  0.00  0.00    +0.000 A 
ATOM     27 CL   UNL     1       5.474   4.871  19.475  0.00  0.00    +0.000 Cl
ENDBRANCH  19  21
ENDBRANCH  16  17
ENDBRANCH  15  16
ENDBRANCH   1  15
TORSDOF 9
ENDMDL
MODEL 3
REMARK VINA RESULT:      -7.1      5.013      7.355
REMARK  Name = 
REMARK  10 active torsions:
REMARK  status: ('A' for Active; 'I' for Inactive)
REMARK    1  A    between atoms: C_1  and  O_2
REMARK    2  A    between atoms: O_2  and  C_3
REMARK    3  A    between atoms: C_8  and  N_9
REMARK    4  A    between atoms: N_9  and  C_10
REMARK    5  A    between atoms: C_10  and  C_11
REMARK    6  A    between atoms: C_11  and  C_12
REMARK    7  A    between atoms: C_12  and  O_14
REMARK    8  A    between atoms: O_14  and  C_15
REMARK    9  A    between atoms: C_15  and  C_16
REMARK   10  A    between atoms: N_18  and  C_19
REMARK                            x       y       z     vdW  Elec       q    Type
REMARK                         _______ _______ _______ _____ _____    ______ ____
ROOT
ATOM      1  C   UNL     1       7.384   7.382  17.353  0.00  0.00    +0.000 C 
ATOM      2  O   UNL     1       6.570   8.108  16.796  0.00  0.00    +0.000 OA
ENDROOT
BRANCH   1   3
ATOM      3  C   UNL     1       8.367   7.824  18.412  0.00  0.00    +0.000 C 
BRANCH   3   4
ATOM      4  C   UNL     1       8.487   9.340  18.322  0.00  0.00    +0.000 C 
BRANCH   4   5
ATOM      5  N   UNL     1       9.230   9.922  19.437  0.00  0.00    +0.000 N 
ATOM      6  H   UNL     1       8.676  10.036  20.283  0.00  0.00    +0.000 HD
BRANCH   5  12
ATOM      7  C   UNL     1      10.414  12.047  20.147  0.00  0.00    +0.000 A 
ATOM      8  C   UNL     1      11.208  13.146  19.763  0.00  0.00    +0.000 A 
ATOM      9  C   UNL     1      11.509  13.371  18.424  0.00  0.00    +0.000 A 
ATOM     10  C   UNL     1      11.048  12.476  17.458  0.00  0.00    +0.000 A 
ATOM     11  C   UNL     1      10.315  11.349  17.844  0.00  0.00    +0.000 A 
ATOM     12  C   UNL     1      10.014  11.077  19.195  0.00  0.00    +0.000 A 
BRANCH   7  14
ATOM     13  C   UNL     1       8.984  12.603  21.954  0.00  0.00    +0.000 C 
ATOM     14  O   UNL     1      10.114  11.875  21.475  0.00  0.00    +0.000 OA
ENDBRANCH   7  14
ENDBRANCH   5  12
ENDBRANCH   4   5
ENDBRANCH   3   4
ENDBRANCH   1   3
BRANCH   1  15
ATOM     15  O   UNL     1       7.557   6.069  17.039  0.00  0.00    +0.000 OA
BRANCH  15  16
ATOM     16  C   UNL     1       7.668   5.230  18.197  0.00  0.00    +0.000 C 
BRANCH  16  17
ATOM     17  C   UNL     1       6.263   4.777  18.598  0.00  0.00    +0.000 C 
ATOM     18  O   UNL     1       5.933   4.683  19.781  0.00  0.00    +0.000 OA
ATOM     19  N   UNL     1       5.434   4.470  17.531  0.00  0.00    +0.000 N 
ATOM     20  H   UNL     1       5.881   4.098  16.699  0.00  0.00    +0.000 HD
BRANCH  19  21
ATOM     21  C   UNL     1       4.087   4.073  17.731  0.00  0.00    +0.000 A 
ATOM     22  C   UNL     1       3.742   2.716  17.800  0.00  0.00    +0.000 A 
ATOM     23  C   UNL     1       2.413   2.330  17.978  0.00  0.00    +0.000 A 
ATOM     24  C   UNL     1       1.413   3.295  18.076  0.00  0.00    +0.000 A 
ATOM     25  C   UNL     1       1.746   4.650  18.018  0.00  0.00    +0.000 A 
ATOM     26  C   UNL     1       3.079   5.037  17.867  0.00  0.00    +0.000 A 
ATOM     27 CL   UNL     1       3.445   6.725  17.764  0.00  0.00    +0.000 Cl
ENDBRANCH  19  21
ENDBRANCH  16  17
ENDBRANCH  15  16
ENDBRANCH   1  15
TORSDOF 9
ENDMDL
MODEL 4
REMARK VINA RESULT:      -7.1      1.700      5.516
REMARK  Name = 
REMARK  10 active torsions:
REMARK  status: ('A' for Active; 'I' for Inactive)
REMARK    1  A    between atoms: C_1  and  O_2
REMARK    2  A    between atoms: O_2  and  C_3
REMARK    3  A    between atoms: C_8  and  N_9
REMARK    4  A    between atoms: N_9  and  C_10
REMARK    5  A    between atoms: C_10  and  C_11
REMARK    6  A    between atoms: C_11  and  C_12
REMARK    7  A    between atoms: C_12  and  O_14
REMARK    8  A    between atoms: O_14  and  C_15
REMARK    9  A    between atoms: C_15  and  C_16
REMARK   10  A    between atoms: N_18  and  C_19
REMARK                            x       y       z     vdW  Elec       q    Type
REMARK                         _______ _______ _______ _____ _____    ______ ____
ROOT
ATOM      1  C   UNL     1       2.921   2.445  19.592  0.00  0.00    +0.000 C 
ATOM      2  O   UNL     1       2.594   2.647  18.430  0.00  0.00    +0.000 OA
ENDROOT
BRANCH   1   3
ATOM      3  C   UNL     1       4.339   2.261  20.081  0.00  0.00    +0.000 C 
BRANCH   3   4
ATOM      4  C   UNL     1       5.098   3.548  19.778  0.00  0.00    +0.000 C 
BRANCH   4   5
ATOM      5  N   UNL     1       5.691   3.560  18.442  0.00  0.00    +0.000 N 
ATOM      6  H   UNL     1       6.270   2.748  18.245  0.00  0.00    +0.000 HD
BRANCH   5  12
ATOM      7  C   UNL     1       6.419   5.210  16.663  0.00  0.00    +0.000 A 
ATOM      8  C   UNL     1       7.074   6.422  16.367  0.00  0.00    +0.000 A 
ATOM      9  C   UNL     1       7.751   7.123  17.359  0.00  0.00    +0.000 A 
ATOM     10  C   UNL     1       7.747   6.637  18.667  0.00  0.00    +0.000 A 
ATOM     11  C   UNL     1       7.042   5.468  18.974  0.00  0.00    +0.000 A 
ATOM     12  C   UNL     1       6.324   4.746  17.998  0.00  0.00    +0.000 A 
BRANCH   7  14
ATOM     13  C   UNL     1       6.375   4.660  14.357  0.00  0.00    +0.000 C 
ATOM     14  O   UNL     1       5.787   4.531  15.651  0.00  0.00    +0.000 OA
ENDBRANCH   7  14
ENDBRANCH   5  12
ENDBRANCH   4   5
ENDBRANCH   3   4
ENDBRANCH   1   3
BRANCH   1  15
ATOM     15  O   UNL     1       2.027   2.294  20.608  0.00  0.00    +0.000 OA
BRANCH  15  16
ATOM     16  C   UNL     1       2.042   3.392  21.530  0.00  0.00    +0.000 C 
BRANCH  16  17
ATOM     17  C   UNL     1       1.514   4.633  20.808  0.00  0.00    +0.000 C 
ATOM     18  O   UNL     1       0.425   4.625  20.232  0.00  0.00    +0.000 OA
ATOM     19  N   UNL     1       2.365   5.725  20.848  0.00  0.00    +0.000 N 
ATOM     20  H   UNL     1       3.361   5.525  20.876  0.00  0.00    +0.000 HD
BRANCH  19  21
ATOM     21  C   UNL     1       2.006   6.966  20.262  0.00  0.00    +0.000 A 
ATOM     22  C   UNL     1       1.313   7.933  21.002  0.00  0.00    +0.000 A 
ATOM     23  C   UNL     1       0.946   9.145  20.416  0.00  0.00    +0.000 A 
ATOM     24  C   UNL     1       1.255   9.397  19.081  0.00  0.00    +0.000 A 
ATOM     25  C   UNL     1       1.953   8.444  18.337  0.00  0.00    +0.000 A 
ATOM     26  C   UNL     1       2.345   7.242  18.931  0.00  0.00    +0.000 A 
ATOM     27 CL   UNL     1       3.177   6.073  17.964  0.00  0.00    +0.000 Cl
ENDBRANCH  19  21
ENDBRANCH  16  17
ENDBRANCH  15  16
ENDBRANCH   1  15
TORSDOF 9
ENDMDL
MODEL 5
REMARK VINA RESULT:      -7.1      4.864      7.097
REMARK  Name = 
REMARK  10 active torsions:
REMARK  status: ('A' for Active; 'I' for Inactive)
REMARK    1  A    between atoms: C_1  and  O_2
REMARK    2  A    between atoms: O_2  and  C_3
REMARK    3  A    between atoms: C_8  and  N_9
REMARK    4  A    between atoms: N_9  and  C_10
REMARK    5  A    between atoms: C_10  and  C_11
REMARK    6  A    between atoms: C_11  and  C_12
REMARK    7  A    between atoms: C_12  and  O_14
REMARK    8  A    between atoms: O_14  and  C_15
REMARK    9  A    between atoms: C_15  and  C_16
REMARK   10  A    between atoms: N_18  and  C_19
REMARK                            x       y       z     vdW  Elec       q    Type
REMARK                         _______ _______ _______ _____ _____    ______ ____
ROOT
ATOM      1  C   UNL     1       7.651   6.783  17.705  0.00  0.00    +0.000 C 
ATOM      2  O   UNL     1       7.815   6.204  18.772  0.00  0.00    +0.000 OA
ENDROOT
BRANCH   1   3
ATOM      3  C   UNL     1       7.421   8.268  17.544  0.00  0.00    +0.000 C 
BRANCH   3   4
ATOM      4  C   UNL     1       8.484   8.988  18.366  0.00  0.00    +0.000 C 
BRANCH   4   5
ATOM      5  N   UNL     1       8.844  10.293  17.816  0.00  0.00    +0.000 N 
ATOM      6  H   UNL     1       9.493  10.243  17.035  0.00  0.00    +0.000 HD
BRANCH   5  12
ATOM      7  C   UNL     1       8.941  12.704  18.589  0.00  0.00    +0.000 A 
ATOM      8  C   UNL     1       9.372  13.617  19.572  0.00  0.00    +0.000 A 
ATOM      9  C   UNL     1      10.189  13.201  20.618  0.00  0.00    +0.000 A 
ATOM     10  C   UNL     1      10.552  11.857  20.711  0.00  0.00    +0.000 A 
ATOM     11  C   UNL     1      10.071  10.938  19.772  0.00  0.00    +0.000 A 
ATOM     12  C   UNL     1       9.221  11.321  18.714  0.00  0.00    +0.000 A 
BRANCH   7  14
ATOM     13  C   UNL     1       7.408  14.341  17.823  0.00  0.00    +0.000 C 
ATOM     14  O   UNL     1       8.160  13.159  17.555  0.00  0.00    +0.000 OA
ENDBRANCH   7  14
ENDBRANCH   5  12
ENDBRANCH   4   5
ENDBRANCH   3   4
ENDBRANCH   1   3
BRANCH   1  15
ATOM     15  O   UNL     1       7.588   6.143  16.506  0.00  0.00    +0.000 OA
BRANCH  15  16
ATOM     16  C   UNL     1       7.430   4.724  16.642  0.00  0.00    +0.000 C 
BRANCH  16  17
ATOM     17  C   UNL     1       5.934   4.404  16.625  0.00  0.00    +0.000 C 
ATOM     18  O   UNL     1       5.290   4.401  15.575  0.00  0.00    +0.000 OA
ATOM     19  N   UNL     1       5.389   4.148  17.873  0.00  0.00    +0.000 N 
ATOM     20  H   UNL     1       5.807   4.634  18.661  0.00  0.00    +0.000 HD
BRANCH  19  21
ATOM     21  C   UNL     1       4.024   3.795  18.027  0.00  0.00    +0.000 A 
ATOM     22  C   UNL     1       3.632   2.450  18.064  0.00  0.00    +0.000 A 
ATOM     23  C   UNL     1       2.286   2.107  18.197  0.00  0.00    +0.000 A 
ATOM     24  C   UNL     1       1.317   3.105  18.280  0.00  0.00    +0.000 A 
ATOM     25  C   UNL     1       1.696   4.448  18.254  0.00  0.00    +0.000 A 
ATOM     26  C   UNL     1       3.046   4.791  18.148  0.00  0.00    +0.000 A 
ATOM     27 CL   UNL     1       3.471   6.466  18.082  0.00  0.00    +0.000 Cl
ENDBRANCH  19  21
ENDBRANCH  16  17
ENDBRANCH  15  16
ENDBRANCH   1  15
TORSDOF 9
ENDMDL
MODEL 6
REMARK VINA RESULT:      -7.1      5.260      7.734
REMARK  Name = 
REMARK  10 active torsions:
REMARK  status: ('A' for Active; 'I' for Inactive)
REMARK    1  A    between atoms: C_1  and  O_2
REMARK    2  A    between atoms: O_2  and  C_3
REMARK    3  A    between atoms: C_8  and  N_9
REMARK    4  A    between atoms: N_9  and  C_10
REMARK    5  A    between atoms: C_10  and  C_11
REMARK    6  A    between atoms: C_11  and  C_12
REMARK    7  A    between atoms: C_12  and  O_14
REMARK    8  A    between atoms: O_14  and  C_15
REMARK    9  A    between atoms: C_15  and  C_16
REMARK   10  A    between atoms: N_18  and  C_19
REMARK                            x       y       z     vdW  Elec       q    Type
REMARK                         _______ _______ _______ _____ _____    ______ ____
ROOT
ATOM      1  C   UNL     1       7.815   7.129  17.814  0.00  0.00    +0.000 C 
ATOM      2  O   UNL     1       8.051   6.607  18.897  0.00  0.00    +0.000 OA
ENDROOT
BRANCH   1   3
ATOM      3  C   UNL     1       7.797   8.616  17.546  0.00  0.00    +0.000 C 
BRANCH   3   4
ATOM      4  C   UNL     1       8.661   9.283  18.611  0.00  0.00    +0.000 C 
BRANCH   4   5
ATOM      5  N   UNL     1       9.478  10.373  18.083  0.00  0.00    +0.000 N 
ATOM      6  H   UNL     1      10.258  10.059  17.511  0.00  0.00    +0.000 HD
BRANCH   5  12
ATOM      7  C   UNL     1      10.917  12.348  18.753  0.00  0.00    +0.000 A 
ATOM      8  C   UNL     1      11.212  13.323  19.725  0.00  0.00    +0.000 A 
ATOM      9  C   UNL     1      10.591  13.295  20.970  0.00  0.00    +0.000 A 
ATOM     10  C   UNL     1       9.639  12.311  21.239  0.00  0.00    +0.000 A 
ATOM     11  C   UNL     1       9.298  11.382  20.251  0.00  0.00    +0.000 A 
ATOM     12  C   UNL     1       9.889  11.397  18.970  0.00  0.00    +0.000 A 
BRANCH   7  14
ATOM     13  C   UNL     1      11.269  13.513  16.719  0.00  0.00    +0.000 C 
ATOM     14  O   UNL     1      11.572  12.392  17.547  0.00  0.00    +0.000 OA
ENDBRANCH   7  14
ENDBRANCH   5  12
ENDBRANCH   4   5
ENDBRANCH   3   4
ENDBRANCH   1   3
BRANCH   1  15
ATOM     15  O   UNL     1       7.468   6.425  16.702  0.00  0.00    +0.000 OA
BRANCH  15  16
ATOM     16  C   UNL     1       7.318   5.021  16.957  0.00  0.00    +0.000 C 
BRANCH  16  17
ATOM     17  C   UNL     1       5.825   4.687  16.943  0.00  0.00    +0.000 C 
ATOM     18  O   UNL     1       5.113   4.975  15.980  0.00  0.00    +0.000 OA
ATOM     19  N   UNL     1       5.366   4.069  18.094  0.00  0.00    +0.000 N 
ATOM     20  H   UNL     1       5.834   4.314  18.961  0.00  0.00    +0.000 HD
BRANCH  19  21
ATOM     21  C   UNL     1       4.015   3.656  18.224  0.00  0.00    +0.000 A 
ATOM     22  C   UNL     1       3.631   2.347  17.903  0.00  0.00    +0.000 A 
ATOM     23  C   UNL     1       2.298   1.951  18.015  0.00  0.00    +0.000 A 
ATOM     24  C   UNL     1       1.332   2.863  18.436  0.00  0.00    +0.000 A 
ATOM     25  C   UNL     1       1.704   4.167  18.767  0.00  0.00    +0.000 A 
ATOM     26  C   UNL     1       3.043   4.556  18.682  0.00  0.00    +0.000 A 
ATOM     27 CL   UNL     1       3.456   6.191  19.067  0.00  0.00    +0.000 Cl
ENDBRANCH  19  21
ENDBRANCH  16  17
ENDBRANCH  15  16
ENDBRANCH   1  15
TORSDOF 9
ENDMDL
MODEL 7
REMARK VINA RESULT:      -7.0      5.179      7.171
REMARK  Name = 
REMARK  10 active torsions:
REMARK  status: ('A' for Active; 'I' for Inactive)
REMARK    1  A    between atoms: C_1  and  O_2
REMARK    2  A    between atoms: O_2  and  C_3
REMARK    3  A    between atoms: C_8  and  N_9
REMARK    4  A    between atoms: N_9  and  C_10
REMARK    5  A    between atoms: C_10  and  C_11
REMARK    6  A    between atoms: C_11  and  C_12
REMARK    7  A    between atoms: C_12  and  O_14
REMARK    8  A    between atoms: O_14  and  C_15
REMARK    9  A    between atoms: C_15  and  C_16
REMARK   10  A    between atoms: N_18  and  C_19
REMARK                            x       y       z     vdW  Elec       q    Type
REMARK                         _______ _______ _______ _____ _____    ______ ____
ROOT
ATOM      1  C   UNL     1       7.353   6.611  16.979  0.00  0.00    +0.000 C 
ATOM      2  O   UNL     1       7.484   6.041  15.904  0.00  0.00    +0.000 OA
ENDROOT
BRANCH   1   3
ATOM      3  C   UNL     1       6.790   5.988  18.235  0.00  0.00    +0.000 C 
BRANCH   3   4
ATOM      4  C   UNL     1       6.433   4.543  17.909  0.00  0.00    +0.000 C 
BRANCH   4   5
ATOM      5  N   UNL     1       5.596   3.917  18.931  0.00  0.00    +0.000 N 
ATOM      6  H   UNL     1       5.981   3.051  19.300  0.00  0.00    +0.000 HD
BRANCH   5  12
ATOM      7  C   UNL     1       3.190   4.709  18.989  0.00  0.00    +0.000 A 
ATOM      8  C   UNL     1       1.846   4.442  18.661  0.00  0.00    +0.000 A 
ATOM      9  C   UNL     1       1.475   3.207  18.138  0.00  0.00    +0.000 A 
ATOM     10  C   UNL     1       2.453   2.240  17.902  0.00  0.00    +0.000 A 
ATOM     11  C   UNL     1       3.796   2.529  18.167  0.00  0.00    +0.000 A 
ATOM     12  C   UNL     1       4.211   3.778  18.673  0.00  0.00    +0.000 A 
BRANCH   7  14
ATOM     13  C   UNL     1       2.453   6.883  19.581  0.00  0.00    +0.000 C 
ATOM     14  O   UNL     1       3.513   5.928  19.531  0.00  0.00    +0.000 OA
ENDBRANCH   7  14
ENDBRANCH   5  12
ENDBRANCH   4   5
ENDBRANCH   3   4
ENDBRANCH   1   3
BRANCH   1  15
ATOM     15  O   UNL     1       7.642   7.928  17.170  0.00  0.00    +0.000 OA
BRANCH  15  16
ATOM     16  C   UNL     1       8.194   8.193  18.467  0.00  0.00    +0.000 C 
BRANCH  16  17
ATOM     17  C   UNL     1       8.696   9.638  18.490  0.00  0.00    +0.000 C 
ATOM     18  O   UNL     1       8.259  10.481  17.705  0.00  0.00    +0.000 OA
ATOM     19  N   UNL     1       9.676   9.889  19.436  0.00  0.00    +0.000 N 
ATOM     20  H   UNL     1      10.299   9.120  19.661  0.00  0.00    +0.000 HD
BRANCH  19  21
ATOM     21  C   UNL     1      10.218  11.188  19.614  0.00  0.00    +0.000 A 
ATOM     22  C   UNL     1      11.198  11.680  18.743  0.00  0.00    +0.000 A 
ATOM     23  C   UNL     1      11.742  12.952  18.932  0.00  0.00    +0.000 A 
ATOM     24  C   UNL     1      11.320  13.738  20.003  0.00  0.00    +0.000 A 
ATOM     25  C   UNL     1      10.337  13.262  20.872  0.00  0.00    +0.000 A 
ATOM     26  C   UNL     1       9.773  12.000  20.666  0.00  0.00    +0.000 A 
ATOM     27 CL   UNL     1       8.585  11.432  21.787  0.00  0.00    +0.000 Cl
ENDBRANCH  19  21
ENDBRANCH  16  17
ENDBRANCH  15  16
ENDBRANCH   1  15
TORSDOF 9
ENDMDL
MODEL 8
REMARK VINA RESULT:      -6.9      4.688      6.997
REMARK  Name = 
REMARK  10 active torsions:
REMARK  status: ('A' for Active; 'I' for Inactive)
REMARK    1  A    between atoms: C_1  and  O_2
REMARK    2  A    between atoms: O_2  and  C_3
REMARK    3  A    between atoms: C_8  and  N_9
REMARK    4  A    between atoms: N_9  and  C_10
REMARK    5  A    between atoms: C_10  and  C_11
REMARK    6  A    between atoms: C_11  and  C_12
REMARK    7  A    between atoms: C_12  and  O_14
REMARK    8  A    between atoms: O_14  and  C_15
REMARK    9  A    between atoms: C_15  and  C_16
REMARK   10  A    between atoms: N_18  and  C_19
REMARK                            x       y       z     vdW  Elec       q    Type
REMARK                         _______ _______ _______ _____ _____    ______ ____
ROOT
ATOM      1  C   UNL     1       7.280   6.941  17.206  0.00  0.00    +0.000 C 
ATOM      2  O   UNL     1       6.441   7.630  16.641  0.00  0.00    +0.000 OA
ENDROOT
BRANCH   1   3
ATOM      3  C   UNL     1       8.171   7.402  18.337  0.00  0.00    +0.000 C 
BRANCH   3   4
ATOM      4  C   UNL     1       8.328   8.913  18.209  0.00  0.00    +0.000 C 
BRANCH   4   5
ATOM      5  N   UNL     1       9.156   9.493  19.264  0.00  0.00    +0.000 N 
ATOM      6  H   UNL     1       8.809   9.309  20.203  0.00  0.00    +0.000 HD
BRANCH   5  12
ATOM      7  C   UNL     1       9.363  11.882  20.080  0.00  0.00    +0.000 A 
ATOM      8  C   UNL     1       9.833  13.186  19.823  0.00  0.00    +0.000 A 
ATOM      9  C   UNL     1      10.386  13.510  18.588  0.00  0.00    +0.000 A 
ATOM     10  C   UNL     1      10.508  12.523  17.611  0.00  0.00    +0.000 A 
ATOM     11  C   UNL     1      10.102  11.213  17.888  0.00  0.00    +0.000 A 
ATOM     12  C   UNL     1       9.561  10.843  19.137  0.00  0.00    +0.000 A 
BRANCH   7  14
ATOM     13  C   UNL     1       9.115  12.522  22.349  0.00  0.00    +0.000 C 
ATOM     14  O   UNL     1       8.797  11.608  21.300  0.00  0.00    +0.000 OA
ENDBRANCH   7  14
ENDBRANCH   5  12
ENDBRANCH   4   5
ENDBRANCH   3   4
ENDBRANCH   1   3
BRANCH   1  15
ATOM     15  O   UNL     1       7.572   5.663  16.840  0.00  0.00    +0.000 OA
BRANCH  15  16
ATOM     16  C   UNL     1       7.331   4.716  17.890  0.00  0.00    +0.000 C 
BRANCH  16  17
ATOM     17  C   UNL     1       5.819   4.553  18.053  0.00  0.00    +0.000 C 
ATOM     18  O   UNL     1       5.092   4.313  17.088  0.00  0.00    +0.000 OA
ATOM     19  N   UNL     1       5.361   4.721  19.350  0.00  0.00    +0.000 N 
ATOM     20  H   UNL     1       5.880   5.369  19.935  0.00  0.00    +0.000 HD
BRANCH  19  21
ATOM     21  C   UNL     1       3.990   4.563  19.678  0.00  0.00    +0.000 A 
ATOM     22  C   UNL     1       3.131   5.669  19.719  0.00  0.00    +0.000 A 
ATOM     23  C   UNL     1       1.787   5.511  20.060  0.00  0.00    +0.000 A 
ATOM     24  C   UNL     1       1.292   4.248  20.376  0.00  0.00    +0.000 A 
ATOM     25  C   UNL     1       2.136   3.137  20.329  0.00  0.00    +0.000 A 
ATOM     26  C   UNL     1       3.475   3.291  19.961  0.00  0.00    +0.000 A 
ATOM     27 CL   UNL     1       4.496   1.895  19.951  0.00  0.00    +0.000 Cl
ENDBRANCH  19  21
ENDBRANCH  16  17
ENDBRANCH  15  16
ENDBRANCH   1  15
TORSDOF 9
ENDMDL
MODEL 9
REMARK VINA RESULT:      -6.9      1.401      1.660
REMARK  Name = 
REMARK  10 active torsions:
REMARK  status: ('A' for Active; 'I' for Inactive)
REMARK    1  A    between atoms: C_1  and  O_2
REMARK    2  A    between atoms: O_2  and  C_3
REMARK    3  A    between atoms: C_8  and  N_9
REMARK    4  A    between atoms: N_9  and  C_10
REMARK    5  A    between atoms: C_10  and  C_11
REMARK    6  A    between atoms: C_11  and  C_12
REMARK    7  A    between atoms: C_12  and  O_14
REMARK    8  A    between atoms: O_14  and  C_15
REMARK    9  A    between atoms: C_15  and  C_16
REMARK   10  A    between atoms: N_18  and  C_19
REMARK                            x       y       z     vdW  Elec       q    Type
REMARK                         _______ _______ _______ _____ _____    ______ ____
ROOT
ATOM      1  C   UNL     1       2.966   2.999  19.758  0.00  0.00    +0.000 C 
ATOM      2  O   UNL     1       3.781   2.101  19.926  0.00  0.00    +0.000 OA
ENDROOT
BRANCH   1   3
ATOM      3  C   UNL     1       2.095   3.602  20.835  0.00  0.00    +0.000 C 
BRANCH   3   4
ATOM      4  C   UNL     1       1.509   4.895  20.280  0.00  0.00    +0.000 C 
BRANCH   4   5
ATOM      5  N   UNL     1       2.308   6.073  20.610  0.00  0.00    +0.000 N 
ATOM      6  H   UNL     1       2.409   6.231  21.610  0.00  0.00    +0.000 HD
BRANCH   5  12
ATOM      7  C   UNL     1       1.360   8.418  20.472  0.00  0.00    +0.000 A 
ATOM      8  C   UNL     1       1.157   9.570  19.687  0.00  0.00    +0.000 A 
ATOM      9  C   UNL     1       1.491   9.576  18.336  0.00  0.00    +0.000 A 
ATOM     10  C   UNL     1       2.066   8.440  17.767  0.00  0.00    +0.000 A 
ATOM     11  C   UNL     1       2.328   7.319  18.561  0.00  0.00    +0.000 A 
ATOM     12  C   UNL     1       2.026   7.287  19.938  0.00  0.00    +0.000 A 
BRANCH   7  14
ATOM     13  C   UNL     1       0.057   9.457  22.158  0.00  0.00    +0.000 C 
ATOM     14  O   UNL     1       0.990   8.441  21.794  0.00  0.00    +0.000 OA
ENDBRANCH   7  14
ENDBRANCH   5  12
ENDBRANCH   4   5
ENDBRANCH   3   4
ENDBRANCH   1   3
BRANCH   1  15
ATOM     15  O   UNL     1       2.686   3.539  18.540  0.00  0.00    +0.000 OA
BRANCH  15  16
ATOM     16  C   UNL     1       3.470   2.964  17.484  0.00  0.00    +0.000 C 
BRANCH  16  17
ATOM     17  C   UNL     1       4.729   3.813  17.304  0.00  0.00    +0.000 C 
ATOM     18  O   UNL     1       5.496   3.631  16.358  0.00  0.00    +0.000 OA
ATOM     19  N   UNL     1       4.927   4.762  18.295  0.00  0.00    +0.000 N 
ATOM     20  H   UNL     1       4.586   4.529  19.222  0.00  0.00    +0.000 HD
BRANCH  19  21
ATOM     21  C   UNL     1       6.027   5.657  18.253  0.00  0.00    +0.000 A 
ATOM     22  C   UNL     1       7.098   5.517  19.145  0.00  0.00    +0.000 A 
ATOM     23  C   UNL     1       8.169   6.411  19.113  0.00  0.00    +0.000 A 
ATOM     24  C   UNL     1       8.173   7.462  18.199  0.00  0.00    +0.000 A 
ATOM     25  C   UNL     1       7.116   7.606  17.299  0.00  0.00    +0.000 A 
ATOM     26  C   UNL     1       6.057   6.695  17.313  0.00  0.00    +0.000 A 
ATOM     27 CL   UNL     1       4.748   6.930  16.206  0.00  0.00    +0.000 Cl
ENDBRANCH  19  21
ENDBRANCH  16  17
ENDBRANCH  15  16
ENDBRANCH   1  15
TORSDOF 9
ENDMDL
