MODEL 1
REMARK VINA RESULT:      -8.2      0.000      0.000
REMARK  Name = 
REMARK  4 active torsions:
REMARK  status: ('A' for Active; 'I' for Inactive)
REMARK    1  A    between atoms: C_1  and  C_2
REMARK    2  A    between atoms: C_8  and  N_9
REMARK    3  A    between atoms: C_13  and  C_15
REMARK    4  A    between atoms: C_17  and  C_18
REMARK                            x       y       z     vdW  Elec       q    Type
REMARK                         _______ _______ _______ _____ _____    ______ ____
ROOT
ATOM      1  N   UNL     1       1.054  10.059  19.160  0.00  0.00    +0.000 N 
ATOM      2  C   UNL     1       1.042   9.329  17.877  0.00  0.00    +0.000 C 
ATOM      3  C   UNL     1       2.090   8.185  17.913  0.00  0.00    +0.000 C 
ATOM      4  N   UNL     1       2.012   7.346  19.125  0.00  0.00    +0.000 N 
ATOM      5  C   UNL     1       2.443   6.023  19.229  0.00  0.00    +0.000 C 
ATOM      6  O   UNL     1       2.519   5.455  20.315  0.00  0.00    +0.000 OA
ATOM      7  C   UNL     1       1.849   8.098  20.384  0.00  0.00    +0.000 C 
ATOM      8  C   UNL     1       0.739   9.159  20.290  0.00  0.00    +0.000 C 
ENDROOT
BRANCH   1  16
ATOM      9  C   UNL     1       2.687  12.268  18.092  0.00  0.00    +0.000 C 
ATOM     10  C   UNL     1       1.320  12.445  18.700  0.00  0.00    +0.000 A 
ATOM     11  C   UNL     1       0.801  13.756  18.728  0.00  0.00    +0.000 A 
ATOM     12  C   UNL     1      -0.451  14.016  19.273  0.00  0.00    +0.000 A 
ATOM     13  C   UNL     1      -1.183  12.964  19.813  0.00  0.00    +0.000 A 
ATOM     14 CL   UNL     1      -2.724  13.286  20.514  0.00  0.00    +0.000 Cl
ATOM     15  C   UNL     1      -0.684  11.661  19.796  0.00  0.00    +0.000 A 
ATOM     16  C   UNL     1       0.573  11.364  19.240  0.00  0.00    +0.000 A 
ENDBRANCH   1  16
BRANCH   5  17
ATOM     17  C   UNL     1       2.741   5.271  17.970  0.00  0.00    +0.000 C 
ATOM     18  C   UNL     1       3.521   3.985  18.123  0.00  0.00    +0.000 C 
ATOM     19  C   UNL     1       4.089   5.100  17.283  0.00  0.00    +0.000 C 
BRANCH  19  20
ATOM     20  C   UNL     1       5.391   5.751  17.689  0.00  0.00    +0.000 A 
ATOM     21  C   UNL     1       6.183   5.202  18.719  0.00  0.00    +0.000 A 
ATOM     22  C   UNL     1       7.384   5.797  19.117  0.00  0.00    +0.000 A 
ATOM     23  C   UNL     1       7.819   6.948  18.477  0.00  0.00    +0.000 A 
ATOM     24  F   UNL     1       8.950   7.542  18.877  0.00  0.00    +0.000 F 
ATOM     25  C   UNL     1       7.095   7.488  17.423  0.00  0.00    +0.000 A 
ATOM     26  C   UNL     1       5.901   6.879  17.024  0.00  0.00    +0.000 A 
ENDBRANCH  19  20
ENDBRANCH   5  17
TORSDOF 3
ENDMDL
MODEL 2
REMARK VINA RESULT:      -8.0      1.282      1.737
REMARK  Name = 
REMARK  4 active torsions:
REMARK  status: ('A' for Active; 'I' for Inactive)
REMARK    1  A    between atoms: C_1  and  C_2
REMARK    2  A    between atoms: C_8  and  N_9
REMARK    3  A    between atoms: C_13  and  C_15
REMARK    4  A    between atoms: C_17  and  C_18
REMARK                            x       y       z     vdW  Elec       q    Type
REMARK                         _______ _______ _______ _____ _____    ______ ____
ROOT
ATOM      1  N   UNL     1       1.345   9.912  18.889  0.00  0.00    +0.000 N 
ATOM      2  C   UNL     1       1.363   9.082  17.668  0.00  0.00    +0.000 C 
ATOM      3  C   UNL     1       2.320   7.878  17.865  0.00  0.00    +0.000 C 
ATOM      4  N   UNL     1       2.105   7.147  19.130  0.00  0.00    +0.000 N 
ATOM      5  C   UNL     1       2.431   5.812  19.365  0.00  0.00    +0.000 C 
ATOM      6  O   UNL     1       2.396   5.330  20.494  0.00  0.00    +0.000 OA
ATOM      7  C   UNL     1       1.916   8.009  20.313  0.00  0.00    +0.000 C 
ATOM      8  C   UNL     1       0.894   9.131  20.060  0.00  0.00    +0.000 C 
ENDROOT
BRANCH   1  16
ATOM      9  C   UNL     1      -1.494  10.573  18.452  0.00  0.00    +0.000 C 
ATOM     10  C   UNL     1      -0.410  11.599  18.663  0.00  0.00    +0.000 A 
ATOM     11  C   UNL     1      -0.808  12.951  18.671  0.00  0.00    +0.000 A 
ATOM     12  C   UNL     1       0.123  13.967  18.855  0.00  0.00    +0.000 A 
ATOM     13  C   UNL     1       1.464  13.633  19.012  0.00  0.00    +0.000 A 
ATOM     14 CL   UNL     1       2.625  14.890  19.214  0.00  0.00    +0.000 Cl
ATOM     15  C   UNL     1       1.875  12.299  19.005  0.00  0.00    +0.000 A 
ATOM     16  C   UNL     1       0.956  11.249  18.835  0.00  0.00    +0.000 A 
ENDBRANCH   1  16
BRANCH   5  17
ATOM     17  C   UNL     1       2.754   4.941  18.192  0.00  0.00    +0.000 C 
ATOM     18  C   UNL     1       3.597   3.717  18.472  0.00  0.00    +0.000 C 
ATOM     19  C   UNL     1       4.103   4.759  17.508  0.00  0.00    +0.000 C 
BRANCH  19  20
ATOM     20  C   UNL     1       5.375   5.512  17.822  0.00  0.00    +0.000 A 
ATOM     21  C   UNL     1       6.228   5.086  18.862  0.00  0.00    +0.000 A 
ATOM     22  C   UNL     1       7.403   5.776  19.177  0.00  0.00    +0.000 A 
ATOM     23  C   UNL     1       7.750   6.899  18.440  0.00  0.00    +0.000 A 
ATOM     24  F   UNL     1       8.856   7.585  18.758  0.00  0.00    +0.000 F 
ATOM     25  C   UNL     1       6.966   7.317  17.375  0.00  0.00    +0.000 A 
ATOM     26  C   UNL     1       5.799   6.614  17.061  0.00  0.00    +0.000 A 
ENDBRANCH  19  20
ENDBRANCH   5  17
TORSDOF 3
ENDMDL
MODEL 3
REMARK VINA RESULT:      -7.7      0.420      1.033
REMARK  Name = 
REMARK  4 active torsions:
REMARK  status: ('A' for Active; 'I' for Inactive)
REMARK    1  A    between atoms: C_1  and  C_2
REMARK    2  A    between atoms: C_8  and  N_9
REMARK    3  A    between atoms: C_13  and  C_15
REMARK    4  A    between atoms: C_17  and  C_18
REMARK                            x       y       z     vdW  Elec       q    Type
REMARK                         _______ _______ _______ _____ _____    ______ ____
ROOT
ATOM      1  N   UNL     1       1.303   9.915  19.361  0.00  0.00    +0.000 N 
ATOM      2  C   UNL     1       1.323   9.293  18.022  0.00  0.00    +0.000 C 
ATOM      3  C   UNL     1       2.289   8.079  18.020  0.00  0.00    +0.000 C 
ATOM      4  N   UNL     1       2.082   7.153  19.151  0.00  0.00    +0.000 N 
ATOM      5  C   UNL     1       2.418   5.799  19.167  0.00  0.00    +0.000 C 
ATOM      6  O   UNL     1       2.389   5.141  20.203  0.00  0.00    +0.000 OA
ATOM      7  C   UNL     1       1.891   7.811  20.458  0.00  0.00    +0.000 C 
ATOM      8  C   UNL     1       0.861   8.952  20.391  0.00  0.00    +0.000 C 
ENDROOT
BRANCH   1  16
ATOM      9  C   UNL     1       2.742  12.044  17.917  0.00  0.00    +0.000 C 
ATOM     10  C   UNL     1       1.554  12.284  18.813  0.00  0.00    +0.000 A 
ATOM     11  C   UNL     1       1.107  13.616  18.933  0.00  0.00    +0.000 A 
ATOM     12  C   UNL     1       0.020  13.934  19.739  0.00  0.00    +0.000 A 
ATOM     13  C   UNL     1      -0.613  12.918  20.448  0.00  0.00    +0.000 A 
ATOM     14 CL   UNL     1      -1.944  13.311  21.470  0.00  0.00    +0.000 Cl
ATOM     15  C   UNL     1      -0.183  11.595  20.342  0.00  0.00    +0.000 A 
ATOM     16  C   UNL     1       0.904  11.240  19.524  0.00  0.00    +0.000 A 
ENDBRANCH   1  16
BRANCH   5  17
ATOM     17  C   UNL     1       2.743   5.131  17.868  0.00  0.00    +0.000 C 
ATOM     18  C   UNL     1       3.552   3.857  17.949  0.00  0.00    +0.000 C 
ATOM     19  C   UNL     1       4.101   5.033  17.183  0.00  0.00    +0.000 C 
BRANCH  19  20
ATOM     20  C   UNL     1       5.383   5.689  17.640  0.00  0.00    +0.000 A 
ATOM     21  C   UNL     1       5.861   6.858  17.013  0.00  0.00    +0.000 A 
ATOM     22  C   UNL     1       7.052   7.472  17.413  0.00  0.00    +0.000 A 
ATOM     23  C   UNL     1       7.777   6.929  18.464  0.00  0.00    +0.000 A 
ATOM     24  F   UNL     1       8.936   7.492  18.829  0.00  0.00    +0.000 F 
ATOM     25  C   UNL     1       7.313   5.811  19.141  0.00  0.00    +0.000 A 
ATOM     26  C   UNL     1       6.115   5.212  18.741  0.00  0.00    +0.000 A 
ENDBRANCH  19  20
ENDBRANCH   5  17
TORSDOF 3
ENDMDL
MODEL 4
REMARK VINA RESULT:      -7.5      4.487      8.975
REMARK  Name = 
REMARK  4 active torsions:
REMARK  status: ('A' for Active; 'I' for Inactive)
REMARK    1  A    between atoms: C_1  and  C_2
REMARK    2  A    between atoms: C_8  and  N_9
REMARK    3  A    between atoms: C_13  and  C_15
REMARK    4  A    between atoms: C_17  and  C_18
REMARK                            x       y       z     vdW  Elec       q    Type
REMARK                         _______ _______ _______ _____ _____    ______ ____
ROOT
ATOM      1  N   UNL     1       2.842   6.914  18.326  0.00  0.00    +0.000 N 
ATOM      2  C   UNL     1       3.150   8.217  17.703  0.00  0.00    +0.000 C 
ATOM      3  C   UNL     1       1.945   9.179  17.874  0.00  0.00    +0.000 C 
ATOM      4  N   UNL     1       1.423   9.238  19.254  0.00  0.00    +0.000 N 
ATOM      5  C   UNL     1       0.722  10.305  19.815  0.00  0.00    +0.000 C 
ATOM      6  O   UNL     1       0.159  10.206  20.901  0.00  0.00    +0.000 OA
ATOM      7  C   UNL     1       1.288   7.926  19.917  0.00  0.00    +0.000 C 
ATOM      8  C   UNL     1       2.554   7.065  19.767  0.00  0.00    +0.000 C 
ENDROOT
BRANCH   1  16
ATOM      9  C   UNL     1       1.315   4.456  17.761  0.00  0.00    +0.000 C 
ATOM     10  C   UNL     1       2.811   4.573  17.620  0.00  0.00    +0.000 A 
ATOM     11  C   UNL     1       3.498   3.429  17.166  0.00  0.00    +0.000 A 
ATOM     12  C   UNL     1       4.879   3.441  17.008  0.00  0.00    +0.000 A 
ATOM     13  C   UNL     1       5.583   4.598  17.326  0.00  0.00    +0.000 A 
ATOM     14 CL   UNL     1       7.298   4.610  17.158  0.00  0.00    +0.000 Cl
ATOM     15  C   UNL     1       4.919   5.739  17.779  0.00  0.00    +0.000 A 
ATOM     16  C   UNL     1       3.522   5.761  17.935  0.00  0.00    +0.000 A 
ENDBRANCH   1  16
BRANCH   5  17
ATOM     17  C   UNL     1       0.733  11.619  19.098  0.00  0.00    +0.000 C 
ATOM     18  C   UNL     1       0.067  12.778  19.804  0.00  0.00    +0.000 C 
ATOM     19  C   UNL     1      -0.444  12.341  18.455  0.00  0.00    +0.000 C 
BRANCH  19  20
ATOM     20  C   UNL     1      -1.855  11.815  18.326  0.00  0.00    +0.000 A 
ATOM     21  C   UNL     1      -2.891  12.319  19.139  0.00  0.00    +0.000 A 
ATOM     22  C   UNL     1      -4.200  11.837  19.044  0.00  0.00    +0.000 A 
ATOM     23  C   UNL     1      -4.495  10.848  18.116  0.00  0.00    +0.000 A 
ATOM     24  F   UNL     1      -5.739  10.358  18.043  0.00  0.00    +0.000 F 
ATOM     25  C   UNL     1      -3.515  10.366  17.261  0.00  0.00    +0.000 A 
ATOM     26  C   UNL     1      -2.212  10.863  17.356  0.00  0.00    +0.000 A 
ENDBRANCH  19  20
ENDBRANCH   5  17
TORSDOF 3
ENDMDL
MODEL 5
REMARK VINA RESULT:      -7.4      4.451      8.856
REMARK  Name = 
REMARK  4 active torsions:
REMARK  status: ('A' for Active; 'I' for Inactive)
REMARK    1  A    between atoms: C_1  and  C_2
REMARK    2  A    between atoms: C_8  and  N_9
REMARK    3  A    between atoms: C_13  and  C_15
REMARK    4  A    between atoms: C_17  and  C_18
REMARK                            x       y       z     vdW  Elec       q    Type
REMARK                         _______ _______ _______ _____ _____    ______ ____
ROOT
ATOM      1  N   UNL     1       2.273   6.765  18.792  0.00  0.00    +0.000 N 
ATOM      2  C   UNL     1       2.623   7.950  17.984  0.00  0.00    +0.000 C 
ATOM      3  C   UNL     1       1.594   9.082  18.238  0.00  0.00    +0.000 C 
ATOM      4  N   UNL     1       1.333   9.339  19.669  0.00  0.00    +0.000 N 
ATOM      5  C   UNL     1       0.877  10.540  20.211  0.00  0.00    +0.000 C 
ATOM      6  O   UNL     1       0.506  10.619  21.379  0.00  0.00    +0.000 OA
ATOM      7  C   UNL     1       1.159   8.125  20.490  0.00  0.00    +0.000 C 
ATOM      8  C   UNL     1       2.264   7.085  20.235  0.00  0.00    +0.000 C 
ENDROOT
BRANCH   1  16
ATOM      9  C   UNL     1       1.011   4.381  19.982  0.00  0.00    +0.000 C 
ATOM     10  C   UNL     1       2.115   4.330  18.957  0.00  0.00    +0.000 A 
ATOM     11  C   UNL     1       2.538   3.052  18.541  0.00  0.00    +0.000 A 
ATOM     12  C   UNL     1       3.552   2.906  17.601  0.00  0.00    +0.000 A 
ATOM     13  C   UNL     1       4.165   4.045  17.089  0.00  0.00    +0.000 A 
ATOM     14 CL   UNL     1       5.441   3.869  15.945  0.00  0.00    +0.000 Cl
ATOM     15  C   UNL     1       3.761   5.318  17.492  0.00  0.00    +0.000 A 
ATOM     16  C   UNL     1       2.728   5.498  18.430  0.00  0.00    +0.000 A 
ENDBRANCH   1  16
BRANCH   5  17
ATOM     17  C   UNL     1       0.922  11.769  19.357  0.00  0.00    +0.000 C 
ATOM     18  C   UNL     1       0.206  12.988  19.892  0.00  0.00    +0.000 C 
ATOM     19  C   UNL     1      -0.219  12.400  18.571  0.00  0.00    +0.000 C 
BRANCH  19  20
ATOM     20  C   UNL     1      -1.615  11.843  18.416  0.00  0.00    +0.000 A 
ATOM     21  C   UNL     1      -1.867  10.751  17.560  0.00  0.00    +0.000 A 
ATOM     22  C   UNL     1      -3.154  10.230  17.394  0.00  0.00    +0.000 A 
ATOM     23  C   UNL     1      -4.211  10.789  18.098  0.00  0.00    +0.000 A 
ATOM     24  F   UNL     1      -5.451  10.317  17.917  0.00  0.00    +0.000 F 
ATOM     25  C   UNL     1      -3.994  11.829  18.990  0.00  0.00    +0.000 A 
ATOM     26  C   UNL     1      -2.702  12.335  19.158  0.00  0.00    +0.000 A 
ENDBRANCH  19  20
ENDBRANCH   5  17
TORSDOF 3
ENDMDL
MODEL 6
REMARK VINA RESULT:      -7.3      4.220      8.672
REMARK  Name = 
REMARK  4 active torsions:
REMARK  status: ('A' for Active; 'I' for Inactive)
REMARK    1  A    between atoms: C_1  and  C_2
REMARK    2  A    between atoms: C_8  and  N_9
REMARK    3  A    between atoms: C_13  and  C_15
REMARK    4  A    between atoms: C_17  and  C_18
REMARK                            x       y       z     vdW  Elec       q    Type
REMARK                         _______ _______ _______ _____ _____    ______ ____
ROOT
ATOM      1  N   UNL     1       2.104   7.150  18.608  0.00  0.00    +0.000 N 
ATOM      2  C   UNL     1       2.396   8.320  17.756  0.00  0.00    +0.000 C 
ATOM      3  C   UNL     1       1.426   9.479  18.104  0.00  0.00    +0.000 C 
ATOM      4  N   UNL     1       1.322   9.752  19.552  0.00  0.00    +0.000 N 
ATOM      5  C   UNL     1       0.953  10.969  20.126  0.00  0.00    +0.000 C 
ATOM      6  O   UNL     1       0.707  11.066  21.325  0.00  0.00    +0.000 OA
ATOM      7  C   UNL     1       1.205   8.549  20.398  0.00  0.00    +0.000 C 
ATOM      8  C   UNL     1       2.252   7.481  20.041  0.00  0.00    +0.000 C 
ENDROOT
BRANCH   1  16
ATOM      9  C   UNL     1       4.669   6.780  17.202  0.00  0.00    +0.000 C 
ATOM     10  C   UNL     1       3.736   5.655  17.568  0.00  0.00    +0.000 A 
ATOM     11  C   UNL     1       4.148   4.351  17.227  0.00  0.00    +0.000 A 
ATOM     12  C   UNL     1       3.352   3.250  17.521  0.00  0.00    +0.000 A 
ATOM     13  C   UNL     1       2.124   3.454  18.143  0.00  0.00    +0.000 A 
ATOM     14 CL   UNL     1       1.121   2.095  18.486  0.00  0.00    +0.000 Cl
ATOM     15  C   UNL     1       1.699   4.738  18.486  0.00  0.00    +0.000 A 
ATOM     16  C   UNL     1       2.489   5.869  18.213  0.00  0.00    +0.000 A 
ENDBRANCH   1  16
BRANCH   5  17
ATOM     17  C   UNL     1       0.937  12.189  19.260  0.00  0.00    +0.000 C 
ATOM     18  C   UNL     1       0.206  13.394  19.806  0.00  0.00    +0.000 C 
ATOM     19  C   UNL     1      -0.245  12.782  18.504  0.00  0.00    +0.000 C 
BRANCH  19  20
ATOM     20  C   UNL     1      -1.630  12.187  18.399  0.00  0.00    +0.000 A 
ATOM     21  C   UNL     1      -1.946  11.268  17.377  0.00  0.00    +0.000 A 
ATOM     22  C   UNL     1      -3.225  10.716  17.256  0.00  0.00    +0.000 A 
ATOM     23  C   UNL     1      -4.207  11.067  18.172  0.00  0.00    +0.000 A 
ATOM     24  F   UNL     1      -5.443  10.569  18.041  0.00  0.00    +0.000 F 
ATOM     25  C   UNL     1      -3.920  11.925  19.223  0.00  0.00    +0.000 A 
ATOM     26  C   UNL     1      -2.635  12.463  19.342  0.00  0.00    +0.000 A 
ENDBRANCH  19  20
ENDBRANCH   5  17
TORSDOF 3
ENDMDL
MODEL 7
REMARK VINA RESULT:      -7.2      1.543      1.697
REMARK  Name = 
REMARK  4 active torsions:
REMARK  status: ('A' for Active; 'I' for Inactive)
REMARK    1  A    between atoms: C_1  and  C_2
REMARK    2  A    between atoms: C_8  and  N_9
REMARK    3  A    between atoms: C_13  and  C_15
REMARK    4  A    between atoms: C_17  and  C_18
REMARK                            x       y       z     vdW  Elec       q    Type
REMARK                         _______ _______ _______ _____ _____    ______ ____
ROOT
ATOM      1  N   UNL     1       0.670  10.211  20.866  0.00  0.00    +0.000 N 
ATOM      2  C   UNL     1       0.442   9.829  19.459  0.00  0.00    +0.000 C 
ATOM      3  C   UNL     1       1.530   8.821  19.004  0.00  0.00    +0.000 C 
ATOM      4  N   UNL     1       1.733   7.702  19.945  0.00  0.00    +0.000 N 
ATOM      5  C   UNL     1       2.239   6.444  19.617  0.00  0.00    +0.000 C 
ATOM      6  O   UNL     1       2.554   5.632  20.482  0.00  0.00    +0.000 OA
ATOM      7  C   UNL     1       1.784   8.094  21.367  0.00  0.00    +0.000 C 
ATOM      8  C   UNL     1       0.627   9.031  21.755  0.00  0.00    +0.000 C 
ENDROOT
BRANCH   1  16
ATOM      9  C   UNL     1       1.972  12.765  20.176  0.00  0.00    +0.000 C 
ATOM     10  C   UNL     1       0.734  12.650  21.028  0.00  0.00    +0.000 A 
ATOM     11  C   UNL     1       0.168  13.855  21.493  0.00  0.00    +0.000 A 
ATOM     12  C   UNL     1      -0.973  13.848  22.287  0.00  0.00    +0.000 A 
ATOM     13  C   UNL     1      -1.542  12.629  22.638  0.00  0.00    +0.000 A 
ATOM     14 CL   UNL     1      -2.940  12.613  23.645  0.00  0.00    +0.000 Cl
ATOM     15  C   UNL     1      -0.994  11.426  22.189  0.00  0.00    +0.000 A 
ATOM     16  C   UNL     1       0.151  11.402  21.373  0.00  0.00    +0.000 A 
ENDBRANCH   1  16
BRANCH   5  17
ATOM     17  C   UNL     1       2.320   6.064  18.172  0.00  0.00    +0.000 C 
ATOM     18  C   UNL     1       2.808   4.666  17.869  0.00  0.00    +0.000 C 
ATOM     19  C   UNL     1       3.573   5.849  17.332  0.00  0.00    +0.000 C 
BRANCH  19  20
ATOM     20  C   UNL     1       4.999   6.079  17.776  0.00  0.00    +0.000 A 
ATOM     21  C   UNL     1       5.556   5.332  18.835  0.00  0.00    +0.000 A 
ATOM     22  C   UNL     1       6.869   5.540  19.268  0.00  0.00    +0.000 A 
ATOM     23  C   UNL     1       7.652   6.493  18.634  0.00  0.00    +0.000 A 
ATOM     24  F   UNL     1       8.899   6.720  19.067  0.00  0.00    +0.000 F 
ATOM     25  C   UNL     1       7.158   7.210  17.554  0.00  0.00    +0.000 A 
ATOM     26  C   UNL     1       5.848   6.987  17.120  0.00  0.00    +0.000 A 
ENDBRANCH  19  20
ENDBRANCH   5  17
TORSDOF 3
ENDMDL
MODEL 8
REMARK VINA RESULT:      -7.1      1.330      1.951
REMARK  Name = 
REMARK  4 active torsions:
REMARK  status: ('A' for Active; 'I' for Inactive)
REMARK    1  A    between atoms: C_1  and  C_2
REMARK    2  A    between atoms: C_8  and  N_9
REMARK    3  A    between atoms: C_13  and  C_15
REMARK    4  A    between atoms: C_17  and  C_18
REMARK                            x       y       z     vdW  Elec       q    Type
REMARK                         _______ _______ _______ _____ _____    ______ ____
ROOT
ATOM      1  N   UNL     1       1.390   8.731  19.608  0.00  0.00    +0.000 N 
ATOM      2  C   UNL     1       1.531   8.358  18.187  0.00  0.00    +0.000 C 
ATOM      3  C   UNL     1       2.611   7.255  18.037  0.00  0.00    +0.000 C 
ATOM      4  N   UNL     1       2.448   6.130  18.980  0.00  0.00    +0.000 N 
ATOM      5  C   UNL     1       2.915   4.831  18.786  0.00  0.00    +0.000 C 
ATOM      6  O   UNL     1       2.907   4.002  19.692  0.00  0.00    +0.000 OA
ATOM      7  C   UNL     1       2.135   6.530  20.366  0.00  0.00    +0.000 C 
ATOM      8  C   UNL     1       1.001   7.567  20.431  0.00  0.00    +0.000 C 
ENDROOT
BRANCH   1  16
ATOM      9  C   UNL     1       1.072   9.390  22.464  0.00  0.00    +0.000 C 
ATOM     10  C   UNL     1       0.724  10.328  21.336  0.00  0.00    +0.000 A 
ATOM     11  C   UNL     1       0.241  11.602  21.696  0.00  0.00    +0.000 A 
ATOM     12  C   UNL     1      -0.108  12.533  20.724  0.00  0.00    +0.000 A 
ATOM     13  C   UNL     1       0.007  12.182  19.383  0.00  0.00    +0.000 A 
ATOM     14 CL   UNL     1      -0.450  13.323  18.174  0.00  0.00    +0.000 Cl
ATOM     15  C   UNL     1       0.481  10.924  19.009  0.00  0.00    +0.000 A 
ATOM     16  C   UNL     1       0.855   9.967  19.969  0.00  0.00    +0.000 A 
ENDBRANCH   1  16
BRANCH   5  17
ATOM     17  C   UNL     1       3.362   4.432  17.415  0.00  0.00    +0.000 C 
ATOM     18  C   UNL     1       4.411   3.346  17.337  0.00  0.00    +0.000 C 
ATOM     19  C   UNL     1       4.708   4.705  16.755  0.00  0.00    +0.000 C 
BRANCH  19  20
ATOM     20  C   UNL     1       5.835   5.533  17.330  0.00  0.00    +0.000 A 
ATOM     21  C   UNL     1       6.670   5.013  18.340  0.00  0.00    +0.000 A 
ATOM     22  C   UNL     1       7.710   5.768  18.893  0.00  0.00    +0.000 A 
ATOM     23  C   UNL     1       7.939   7.055  18.427  0.00  0.00    +0.000 A 
ATOM     24  F   UNL     1       8.911   7.795  18.976  0.00  0.00    +0.000 F 
ATOM     25  C   UNL     1       7.173   7.581  17.397  0.00  0.00    +0.000 A 
ATOM     26  C   UNL     1       6.143   6.815  16.843  0.00  0.00    +0.000 A 
ENDBRANCH  19  20
ENDBRANCH   5  17
TORSDOF 3
ENDMDL
MODEL 9
REMARK VINA RESULT:      -7.0      2.112      3.020
REMARK  Name = 
REMARK  4 active torsions:
REMARK  status: ('A' for Active; 'I' for Inactive)
REMARK    1  A    between atoms: C_1  and  C_2
REMARK    2  A    between atoms: C_8  and  N_9
REMARK    3  A    between atoms: C_13  and  C_15
REMARK    4  A    between atoms: C_17  and  C_18
REMARK                            x       y       z     vdW  Elec       q    Type
REMARK                         _______ _______ _______ _____ _____    ______ ____
ROOT
ATOM      1  N   UNL     1       2.071   7.537  19.598  0.00  0.00    +0.000 N 
ATOM      2  C   UNL     1       2.378   7.609  18.155  0.00  0.00    +0.000 C 
ATOM      3  C   UNL     1       3.563   6.665  17.822  0.00  0.00    +0.000 C 
ATOM      4  N   UNL     1       3.413   5.304  18.377  0.00  0.00    +0.000 N 
ATOM      5  C   UNL     1       4.012   4.149  17.874  0.00  0.00    +0.000 C 
ATOM      6  O   UNL     1       3.992   3.091  18.496  0.00  0.00    +0.000 OA
ATOM      7  C   UNL     1       2.936   5.258  19.772  0.00  0.00    +0.000 C 
ATOM      8  C   UNL     1       1.711   6.161  20.000  0.00  0.00    +0.000 C 
ENDROOT
BRANCH   1  16
ATOM      9  C   UNL     1       1.219   9.881  18.025  0.00  0.00    +0.000 C 
ATOM     10  C   UNL     1       0.939   9.702  19.495  0.00  0.00    +0.000 A 
ATOM     11  C   UNL     1       0.202  10.722  20.130  0.00  0.00    +0.000 A 
ATOM     12  C   UNL     1      -0.102  10.645  21.485  0.00  0.00    +0.000 A 
ATOM     13  C   UNL     1       0.351   9.553  22.216  0.00  0.00    +0.000 A 
ATOM     14 CL   UNL     1       0.001   9.466  23.901  0.00  0.00    +0.000 Cl
ATOM     15  C   UNL     1       1.084   8.535  21.604  0.00  0.00    +0.000 A 
ATOM     16  C   UNL     1       1.395   8.578  20.233  0.00  0.00    +0.000 A 
ENDBRANCH   1  16
BRANCH   5  17
ATOM     17  C   UNL     1       4.621   4.200  16.507  0.00  0.00    +0.000 C 
ATOM     18  C   UNL     1       5.920   3.450  16.320  0.00  0.00    +0.000 C 
ATOM     19  C   UNL     1       5.882   4.937  16.075  0.00  0.00    +0.000 C 
BRANCH  19  20
ATOM     20  C   UNL     1       6.721   5.856  16.933  0.00  0.00    +0.000 A 
ATOM     21  C   UNL     1       6.856   7.222  16.611  0.00  0.00    +0.000 A 
ATOM     22  C   UNL     1       7.637   8.085  17.385  0.00  0.00    +0.000 A 
ATOM     23  C   UNL     1       8.287   7.593  18.507  0.00  0.00    +0.000 A 
ATOM     24  F   UNL     1       9.065   8.406  19.233  0.00  0.00    +0.000 F 
ATOM     25  C   UNL     1       8.135   6.267  18.887  0.00  0.00    +0.000 A 
ATOM     26  C   UNL     1       7.342   5.415  18.114  0.00  0.00    +0.000 A 
ENDBRANCH  19  20
ENDBRANCH   5  17
TORSDOF 3
ENDMDL
