MODEL 1
REMARK VINA RESULT:      -7.7      0.000      0.000
REMARK  Name = 
REMARK  7 active torsions:
REMARK  status: ('A' for Active; 'I' for Inactive)
REMARK    1  A    between atoms: C_3  and  C_4
REMARK    2  A    between atoms: N_7  and  C_8
REMARK    3  A    between atoms: C_8  and  C_9
REMARK    4  A    between atoms: C_9  and  C_10
REMARK    5  A    between atoms: C_10  and  N_11
REMARK    6  A    between atoms: C_18  and  N_19
REMARK    7  A    between atoms: C_22  and  N_23
REMARK                            x       y       z     vdW  Elec       q    Type
REMARK                         _______ _______ _______ _____ _____    ______ ____
ROOT
ATOM      1  C   UNL     1      -1.169  10.868  18.780  0.00  0.00    +0.000 A 
ATOM      2  N   UNL     1      -1.148  11.723  19.819  0.00  0.00    +0.000 NA
ATOM      3  C   UNL     1      -0.119  11.596  20.665  0.00  0.00    +0.000 A 
ATOM      4  N   UNL     1      -0.061  12.340  21.845  0.00  0.00    +0.000 N 
ATOM      5  C   UNL     1       0.886  10.665  20.462  0.00  0.00    +0.000 A 
ATOM      6  C   UNL     1       0.763   9.796  19.398  0.00  0.00    +0.000 A 
ATOM      7  N   UNL     1      -0.265   9.900  18.550  0.00  0.00    +0.000 NA
ATOM      8  H   UNL     1       0.781  12.905  21.889  0.00  0.00    +0.000 HD
ENDROOT
BRANCH   1  11
ATOM      9  C   UNL     1      -4.471  11.678  17.179  0.00  0.00    +0.000 A 
ATOM     10  C   UNL     1      -3.465  11.629  18.131  0.00  0.00    +0.000 A 
ATOM     11  C   UNL     1      -2.287  10.938  17.832  0.00  0.00    +0.000 A 
ATOM     12  C   UNL     1      -2.193  10.328  16.570  0.00  0.00    +0.000 A 
ATOM     13  C   UNL     1      -3.254  10.426  15.688  0.00  0.00    +0.000 A 
ATOM     14  N   UNL     1      -4.393  11.090  15.966  0.00  0.00    +0.000 NA
ENDBRANCH   1  11
BRANCH   6  15
ATOM     15  N   UNL     1       1.631   8.703  19.301  0.00  0.00    +0.000 N 
ATOM     16  C   UNL     1       1.290   7.588  20.189  0.00  0.00    +0.000 C 
ATOM     17  C   UNL     1       2.553   6.752  20.355  0.00  0.00    +0.000 C 
ATOM     18  C   UNL     1       3.082   6.187  19.015  0.00  0.00    +0.000 C 
ATOM     19  C   UNL     1       3.161   7.355  17.984  0.00  0.00    +0.000 C 
ATOM     20  C   UNL     1       1.913   8.246  17.938  0.00  0.00    +0.000 C 
BRANCH  18  21
ATOM     21  N   UNL     1       2.339   5.033  18.442  0.00  0.00    +0.000 NA
ATOM     22  C   UNL     1       1.838   4.031  19.416  0.00  0.00    +0.000 C 
ATOM     23  C   UNL     1       2.922   3.118  20.019  0.00  0.00    +0.000 C 
ATOM     24  O   UNL     1       3.614   2.407  18.986  0.00  0.00    +0.000 OA
ATOM     25  C   UNL     1       4.211   3.323  18.064  0.00  0.00    +0.000 C 
ATOM     26  C   UNL     1       3.163   4.284  17.453  0.00  0.00    +0.000 C 
ENDBRANCH  18  21
ENDBRANCH   6  15
BRANCH   4  27
ATOM     27  C   UNL     1      -1.268  13.000  22.318  0.00  0.00    +0.000 C 
BRANCH  27  28
ATOM     28  C   UNL     1      -2.161  11.943  22.990  0.00  0.00    +0.000 C 
BRANCH  28  29
ATOM     29  C   UNL     1      -3.356  12.599  23.708  0.00  0.00    +0.000 C 
BRANCH  29  30
ATOM     30  N   UNL     1      -4.672  12.313  23.106  0.00  0.00    +0.000 NA
ATOM     31  C   UNL     1      -4.787  12.715  21.686  0.00  0.00    +0.000 C 
ATOM     32  C   UNL     1      -4.904  14.232  21.443  0.00  0.00    +0.000 C 
ATOM     33  O   UNL     1      -5.957  14.820  22.215  0.00  0.00    +0.000 OA
ATOM     34  C   UNL     1      -5.783  14.536  23.609  0.00  0.00    +0.000 C 
ATOM     35  C   UNL     1      -5.742  13.017  23.859  0.00  0.00    +0.000 C 
ENDBRANCH  29  30
ENDBRANCH  28  29
ENDBRANCH  27  28
ENDBRANCH   4  27
TORSDOF 7
ENDMDL
MODEL 2
REMARK VINA RESULT:      -7.5      0.698      1.220
REMARK  Name = 
REMARK  7 active torsions:
REMARK  status: ('A' for Active; 'I' for Inactive)
REMARK    1  A    between atoms: C_3  and  C_4
REMARK    2  A    between atoms: N_7  and  C_8
REMARK    3  A    between atoms: C_8  and  C_9
REMARK    4  A    between atoms: C_9  and  C_10
REMARK    5  A    between atoms: C_10  and  N_11
REMARK    6  A    between atoms: C_18  and  N_19
REMARK    7  A    between atoms: C_22  and  N_23
REMARK                            x       y       z     vdW  Elec       q    Type
REMARK                         _______ _______ _______ _____ _____    ______ ____
ROOT
ATOM      1  C   UNL     1      -1.100  10.966  18.756  0.00  0.00    +0.000 A 
ATOM      2  N   UNL     1      -1.011  11.857  19.761  0.00  0.00    +0.000 NA
ATOM      3  C   UNL     1       0.057  11.740  20.558  0.00  0.00    +0.000 A 
ATOM      4  N   UNL     1       0.189  12.525  21.706  0.00  0.00    +0.000 N 
ATOM      5  C   UNL     1       1.033  10.783  20.340  0.00  0.00    +0.000 A 
ATOM      6  C   UNL     1       0.840   9.878  19.317  0.00  0.00    +0.000 A 
ATOM      7  N   UNL     1      -0.227   9.972  18.518  0.00  0.00    +0.000 NA
ATOM      8  H   UNL     1       1.042  13.074  21.687  0.00  0.00    +0.000 HD
ENDROOT
BRANCH   1  11
ATOM      9  C   UNL     1      -3.376  10.551  15.795  0.00  0.00    +0.000 A 
ATOM     10  C   UNL     1      -2.232  10.485  16.575  0.00  0.00    +0.000 A 
ATOM     11  C   UNL     1      -2.263  11.024  17.864  0.00  0.00    +0.000 A 
ATOM     12  C   UNL     1      -3.466  11.607  18.296  0.00  0.00    +0.000 A 
ATOM     13  C   UNL     1      -4.554  11.631  17.442  0.00  0.00    +0.000 A 
ATOM     14  N   UNL     1      -4.535  11.114  16.198  0.00  0.00    +0.000 NA
ENDBRANCH   1  11
BRANCH   6  15
ATOM     15  N   UNL     1       1.682   8.764  19.217  0.00  0.00    +0.000 N 
ATOM     16  C   UNL     1       1.302   7.648  20.087  0.00  0.00    +0.000 C 
ATOM     17  C   UNL     1       2.542   6.779  20.259  0.00  0.00    +0.000 C 
ATOM     18  C   UNL     1       3.074   6.216  18.919  0.00  0.00    +0.000 C 
ATOM     19  C   UNL     1       3.195   7.394  17.903  0.00  0.00    +0.000 C 
ATOM     20  C   UNL     1       1.970   8.317  17.852  0.00  0.00    +0.000 C 
BRANCH  18  21
ATOM     21  N   UNL     1       2.310   5.089  18.323  0.00  0.00    +0.000 NA
ATOM     22  C   UNL     1       1.739   4.109  19.281  0.00  0.00    +0.000 C 
ATOM     23  C   UNL     1       2.766   3.159  19.923  0.00  0.00    +0.000 C 
ATOM     24  O   UNL     1       3.468   2.420  18.917  0.00  0.00    +0.000 OA
ATOM     25  C   UNL     1       4.130   3.310  18.015  0.00  0.00    +0.000 C 
ATOM     26  C   UNL     1       3.140   4.307  17.365  0.00  0.00    +0.000 C 
ENDBRANCH  18  21
ENDBRANCH   6  15
BRANCH   4  27
ATOM     27  C   UNL     1      -0.980  13.226  22.213  0.00  0.00    +0.000 C 
BRANCH  27  28
ATOM     28  C   UNL     1      -1.788  12.246  23.081  0.00  0.00    +0.000 C 
BRANCH  28  29
ATOM     29  C   UNL     1      -3.302  12.501  22.948  0.00  0.00    +0.000 C 
BRANCH  29  30
ATOM     30  N   UNL     1      -3.992  12.802  24.215  0.00  0.00    +0.000 NA
ATOM     31  C   UNL     1      -5.469  12.825  24.109  0.00  0.00    +0.000 C 
ATOM     32  C   UNL     1      -6.054  14.056  23.392  0.00  0.00    +0.000 C 
ATOM     33  O   UNL     1      -5.576  15.283  23.954  0.00  0.00    +0.000 OA
ATOM     34  C   UNL     1      -4.144  15.320  23.948  0.00  0.00    +0.000 C 
ATOM     35  C   UNL     1      -3.561  14.128  24.730  0.00  0.00    +0.000 C 
ENDBRANCH  29  30
ENDBRANCH  28  29
ENDBRANCH  27  28
ENDBRANCH   4  27
TORSDOF 7
ENDMDL
MODEL 3
REMARK VINA RESULT:      -7.4      1.354      1.987
REMARK  Name = 
REMARK  7 active torsions:
REMARK  status: ('A' for Active; 'I' for Inactive)
REMARK    1  A    between atoms: C_3  and  C_4
REMARK    2  A    between atoms: N_7  and  C_8
REMARK    3  A    between atoms: C_8  and  C_9
REMARK    4  A    between atoms: C_9  and  C_10
REMARK    5  A    between atoms: C_10  and  N_11
REMARK    6  A    between atoms: C_18  and  N_19
REMARK    7  A    between atoms: C_22  and  N_23
REMARK                            x       y       z     vdW  Elec       q    Type
REMARK                         _______ _______ _______ _____ _____    ______ ____
ROOT
ATOM      1  C   UNL     1      -1.001  11.475  18.363  0.00  0.00    +0.000 A 
ATOM      2  N   UNL     1      -0.579  12.639  18.891  0.00  0.00    +0.000 NA
ATOM      3  C   UNL     1       0.648  12.634  19.423  0.00  0.00    +0.000 A 
ATOM      4  N   UNL     1       1.140  13.745  20.112  0.00  0.00    +0.000 N 
ATOM      5  C   UNL     1       1.453  11.508  19.397  0.00  0.00    +0.000 A 
ATOM      6  C   UNL     1       0.926  10.343  18.879  0.00  0.00    +0.000 A 
ATOM      7  N   UNL     1      -0.304  10.327  18.355  0.00  0.00    +0.000 NA
ATOM      8  H   UNL     1       1.999  14.092  19.697  0.00  0.00    +0.000 HD
ENDROOT
BRANCH   1  11
ATOM      9  C   UNL     1      -3.873  10.963  15.994  0.00  0.00    +0.000 A 
ATOM     10  C   UNL     1      -2.571  11.030  16.463  0.00  0.00    +0.000 A 
ATOM     11  C   UNL     1      -2.350  11.410  17.790  0.00  0.00    +0.000 A 
ATOM     12  C   UNL     1      -3.475  11.704  18.578  0.00  0.00    +0.000 A 
ATOM     13  C   UNL     1      -4.738  11.615  18.018  0.00  0.00    +0.000 A 
ATOM     14  N   UNL     1      -4.961  11.249  16.741  0.00  0.00    +0.000 NA
ENDBRANCH   1  11
BRANCH   6  15
ATOM     15  N   UNL     1       1.621   9.140  19.049  0.00  0.00    +0.000 N 
ATOM     16  C   UNL     1       1.083   8.284  20.109  0.00  0.00    +0.000 C 
ATOM     17  C   UNL     1       2.197   7.326  20.514  0.00  0.00    +0.000 C 
ATOM     18  C   UNL     1       2.682   6.437  19.344  0.00  0.00    +0.000 C 
ATOM     19  C   UNL     1       2.975   7.354  18.116  0.00  0.00    +0.000 C 
ATOM     20  C   UNL     1       1.879   8.387  17.819  0.00  0.00    +0.000 C 
BRANCH  18  21
ATOM     21  N   UNL     1       1.793   5.311  18.955  0.00  0.00    +0.000 NA
ATOM     22  C   UNL     1       1.440   4.355  20.034  0.00  0.00    +0.000 C 
ATOM     23  C   UNL     1       2.575   3.402  20.451  0.00  0.00    +0.000 C 
ATOM     24  O   UNL     1       3.028   2.636  19.329  0.00  0.00    +0.000 OA
ATOM     25  C   UNL     1       3.482   3.501  18.285  0.00  0.00    +0.000 C 
ATOM     26  C   UNL     1       2.382   4.501  17.852  0.00  0.00    +0.000 C 
ENDBRANCH  18  21
ENDBRANCH   6  15
BRANCH   4  27
ATOM     27  C   UNL     1       0.206  14.775  20.538  0.00  0.00    +0.000 C 
BRANCH  27  28
ATOM     28  C   UNL     1       0.120  14.738  22.075  0.00  0.00    +0.000 C 
BRANCH  28  29
ATOM     29  C   UNL     1      -1.334  14.545  22.547  0.00  0.00    +0.000 C 
BRANCH  29  30
ATOM     30  N   UNL     1      -2.154  13.677  21.683  0.00  0.00    +0.000 NA
ATOM     31  C   UNL     1      -3.586  14.050  21.636  0.00  0.00    +0.000 C 
ATOM     32  C   UNL     1      -4.394  13.709  22.902  0.00  0.00    +0.000 C 
ATOM     33  O   UNL     1      -4.250  12.334  23.276  0.00  0.00    +0.000 OA
ATOM     34  C   UNL     1      -2.868  11.996  23.444  0.00  0.00    +0.000 C 
ATOM     35  C   UNL     1      -2.076  12.269  22.152  0.00  0.00    +0.000 C 
ENDBRANCH  29  30
ENDBRANCH  28  29
ENDBRANCH  27  28
ENDBRANCH   4  27
TORSDOF 7
ENDMDL
MODEL 4
REMARK VINA RESULT:      -7.4      0.681      1.097
REMARK  Name = 
REMARK  7 active torsions:
REMARK  status: ('A' for Active; 'I' for Inactive)
REMARK    1  A    between atoms: C_3  and  C_4
REMARK    2  A    between atoms: N_7  and  C_8
REMARK    3  A    between atoms: C_8  and  C_9
REMARK    4  A    between atoms: C_9  and  C_10
REMARK    5  A    between atoms: C_10  and  N_11
REMARK    6  A    between atoms: C_18  and  N_19
REMARK    7  A    between atoms: C_22  and  N_23
REMARK                            x       y       z     vdW  Elec       q    Type
REMARK                         _______ _______ _______ _____ _____    ______ ____
ROOT
ATOM      1  C   UNL     1      -1.144  10.532  19.094  0.00  0.00    +0.000 A 
ATOM      2  N   UNL     1      -1.286  11.064  20.322  0.00  0.00    +0.000 NA
ATOM      3  C   UNL     1      -0.326  10.770  21.206  0.00  0.00    +0.000 A 
ATOM      4  N   UNL     1      -0.433  11.159  22.542  0.00  0.00    +0.000 N 
ATOM      5  C   UNL     1       0.770   9.994  20.866  0.00  0.00    +0.000 A 
ATOM      6  C   UNL     1       0.814   9.448  19.600  0.00  0.00    +0.000 A 
ATOM      7  N   UNL     1      -0.144   9.722  18.708  0.00  0.00    +0.000 NA
ATOM      8  H   UNL     1       0.349  11.738  22.827  0.00  0.00    +0.000 HD
ENDROOT
BRANCH   1  11
ATOM      9  C   UNL     1      -3.103  10.578  15.887  0.00  0.00    +0.000 A 
ATOM     10  C   UNL     1      -2.076  10.315  16.779  0.00  0.00    +0.000 A 
ATOM     11  C   UNL     1      -2.179  10.795  18.087  0.00  0.00    +0.000 A 
ATOM     12  C   UNL     1      -3.333  11.523  18.424  0.00  0.00    +0.000 A 
ATOM     13  C   UNL     1      -4.303  11.739  17.461  0.00  0.00    +0.000 A 
ATOM     14  N   UNL     1      -4.213  11.281  16.198  0.00  0.00    +0.000 NA
ENDBRANCH   1  11
BRANCH   6  15
ATOM     15  N   UNL     1       1.779   8.479  19.303  0.00  0.00    +0.000 N 
ATOM     16  C   UNL     1       1.579   7.204  19.997  0.00  0.00    +0.000 C 
ATOM     17  C   UNL     1       2.922   6.484  19.996  0.00  0.00    +0.000 C 
ATOM     18  C   UNL     1       3.454   6.205  18.569  0.00  0.00    +0.000 C 
ATOM     19  C   UNL     1       3.383   7.529  17.748  0.00  0.00    +0.000 C 
ATOM     20  C   UNL     1       2.054   8.286  17.877  0.00  0.00    +0.000 C 
BRANCH  18  21
ATOM     21  N   UNL     1       2.805   5.093  17.825  0.00  0.00    +0.000 NA
ATOM     22  C   UNL     1       2.116   4.070  18.651  0.00  0.00    +0.000 C 
ATOM     23  C   UNL     1       3.054   3.107  19.401  0.00  0.00    +0.000 C 
ATOM     24  O   UNL     1       3.909   2.416  18.483  0.00  0.00    +0.000 OA
ATOM     25  C   UNL     1       4.681   3.349  17.722  0.00  0.00    +0.000 C 
ATOM     26  C   UNL     1       3.780   4.359  16.972  0.00  0.00    +0.000 C 
ENDBRANCH  18  21
ENDBRANCH   6  15
BRANCH   4  27
ATOM     27  C   UNL     1      -1.729  11.587  23.046  0.00  0.00    +0.000 C 
BRANCH  27  28
ATOM     28  C   UNL     1      -1.733  13.125  23.114  0.00  0.00    +0.000 C 
BRANCH  28  29
ATOM     29  C   UNL     1      -3.170  13.679  23.126  0.00  0.00    +0.000 C 
BRANCH  29  30
ATOM     30  N   UNL     1      -4.225  12.666  22.937  0.00  0.00    +0.000 NA
ATOM     31  C   UNL     1      -4.867  12.703  21.604  0.00  0.00    +0.000 C 
ATOM     32  C   UNL     1      -5.831  13.882  21.374  0.00  0.00    +0.000 C 
ATOM     33  O   UNL     1      -6.820  13.977  22.407  0.00  0.00    +0.000 OA
ATOM     34  C   UNL     1      -6.200  14.065  23.695  0.00  0.00    +0.000 C 
ATOM     35  C   UNL     1      -5.294  12.847  23.953  0.00  0.00    +0.000 C 
ENDBRANCH  29  30
ENDBRANCH  28  29
ENDBRANCH  27  28
ENDBRANCH   4  27
TORSDOF 7
ENDMDL
MODEL 5
REMARK VINA RESULT:      -7.4      1.047      1.608
REMARK  Name = 
REMARK  7 active torsions:
REMARK  status: ('A' for Active; 'I' for Inactive)
REMARK    1  A    between atoms: C_3  and  C_4
REMARK    2  A    between atoms: N_7  and  C_8
REMARK    3  A    between atoms: C_8  and  C_9
REMARK    4  A    between atoms: C_9  and  C_10
REMARK    5  A    between atoms: C_10  and  N_11
REMARK    6  A    between atoms: C_18  and  N_19
REMARK    7  A    between atoms: C_22  and  N_23
REMARK                            x       y       z     vdW  Elec       q    Type
REMARK                         _______ _______ _______ _____ _____    ______ ____
ROOT
ATOM      1  C   UNL     1      -1.028  10.390  18.994  0.00  0.00    +0.000 A 
ATOM      2  N   UNL     1      -1.141  10.951  20.212  0.00  0.00    +0.000 NA
ATOM      3  C   UNL     1      -0.160  10.679  21.080  0.00  0.00    +0.000 A 
ATOM      4  N   UNL     1      -0.235  11.100  22.409  0.00  0.00    +0.000 N 
ATOM      5  C   UNL     1       0.928   9.896  20.732  0.00  0.00    +0.000 A 
ATOM      6  C   UNL     1       0.943   9.320  19.479  0.00  0.00    +0.000 A 
ATOM      7  N   UNL     1      -0.036   9.572  18.604  0.00  0.00    +0.000 NA
ATOM      8  H   UNL     1       0.553  11.687  22.660  0.00  0.00    +0.000 HD
ENDROOT
BRANCH   1  11
ATOM      9  C   UNL     1      -3.077  10.336  15.844  0.00  0.00    +0.000 A 
ATOM     10  C   UNL     1      -2.028  10.094  16.717  0.00  0.00    +0.000 A 
ATOM     11  C   UNL     1      -2.087  10.629  18.007  0.00  0.00    +0.000 A 
ATOM     12  C   UNL     1      -3.220  11.388  18.345  0.00  0.00    +0.000 A 
ATOM     13  C   UNL     1      -4.214  11.581  17.402  0.00  0.00    +0.000 A 
ATOM     14  N   UNL     1      -4.167  11.070  16.157  0.00  0.00    +0.000 NA
ENDBRANCH   1  11
BRANCH   6  15
ATOM     15  N   UNL     1       1.902   8.345  19.182  0.00  0.00    +0.000 N 
ATOM     16  C   UNL     1       1.661   7.054  19.831  0.00  0.00    +0.000 C 
ATOM     17  C   UNL     1       2.992   6.312  19.849  0.00  0.00    +0.000 C 
ATOM     18  C   UNL     1       3.563   6.066  18.431  0.00  0.00    +0.000 C 
ATOM     19  C   UNL     1       3.537   7.415  17.649  0.00  0.00    +0.000 C 
ATOM     20  C   UNL     1       2.216   8.189  17.760  0.00  0.00    +0.000 C 
BRANCH  18  21
ATOM     21  N   UNL     1       2.920   4.988  17.636  0.00  0.00    +0.000 NA
ATOM     22  C   UNL     1       1.971   4.112  18.369  0.00  0.00    +0.000 C 
ATOM     23  C   UNL     1       2.631   3.103  19.326  0.00  0.00    +0.000 C 
ATOM     24  O   UNL     1       3.540   2.254  18.615  0.00  0.00    +0.000 OA
ATOM     25  C   UNL     1       4.547   3.034  17.966  0.00  0.00    +0.000 C 
ATOM     26  C   UNL     1       3.929   4.087  17.014  0.00  0.00    +0.000 C 
ENDBRANCH  18  21
ENDBRANCH   6  15
BRANCH   4  27
ATOM     27  C   UNL     1      -1.519  11.540  22.933  0.00  0.00    +0.000 C 
BRANCH  27  28
ATOM     28  C   UNL     1      -1.467  13.068  23.108  0.00  0.00    +0.000 C 
BRANCH  28  29
ATOM     29  C   UNL     1      -2.636  13.753  22.376  0.00  0.00    +0.000 C 
BRANCH  29  30
ATOM     30  N   UNL     1      -3.614  14.418  23.256  0.00  0.00    +0.000 NA
ATOM     31  C   UNL     1      -3.721  13.815  24.604  0.00  0.00    +0.000 C 
ATOM     32  C   UNL     1      -4.455  12.462  24.659  0.00  0.00    +0.000 C 
ATOM     33  O   UNL     1      -5.744  12.524  24.036  0.00  0.00    +0.000 OA
ATOM     34  C   UNL     1      -5.632  12.992  22.686  0.00  0.00    +0.000 C 
ATOM     35  C   UNL     1      -4.965  14.380  22.640  0.00  0.00    +0.000 C 
ENDBRANCH  29  30
ENDBRANCH  28  29
ENDBRANCH  27  28
ENDBRANCH   4  27
TORSDOF 7
ENDMDL
MODEL 6
REMARK VINA RESULT:      -7.2      1.599      2.090
REMARK  Name = 
REMARK  7 active torsions:
REMARK  status: ('A' for Active; 'I' for Inactive)
REMARK    1  A    between atoms: C_3  and  C_4
REMARK    2  A    between atoms: N_7  and  C_8
REMARK    3  A    between atoms: C_8  and  C_9
REMARK    4  A    between atoms: C_9  and  C_10
REMARK    5  A    between atoms: C_10  and  N_11
REMARK    6  A    between atoms: C_18  and  N_19
REMARK    7  A    between atoms: C_22  and  N_23
REMARK                            x       y       z     vdW  Elec       q    Type
REMARK                         _______ _______ _______ _____ _____    ______ ____
ROOT
ATOM      1  C   UNL     1      -0.945  11.493  18.183  0.00  0.00    +0.000 A 
ATOM      2  N   UNL     1      -0.446  12.695  18.527  0.00  0.00    +0.000 NA
ATOM      3  C   UNL     1       0.824  12.705  18.951  0.00  0.00    +0.000 A 
ATOM      4  N   UNL     1       1.406  13.870  19.453  0.00  0.00    +0.000 N 
ATOM      5  C   UNL     1       1.590  11.553  18.997  0.00  0.00    +0.000 A 
ATOM      6  C   UNL     1       0.985  10.356  18.673  0.00  0.00    +0.000 A 
ATOM      7  N   UNL     1      -0.285  10.325  18.259  0.00  0.00    +0.000 NA
ATOM      8  H   UNL     1       2.234  14.130  18.929  0.00  0.00    +0.000 HD
ENDROOT
BRANCH   1  11
ATOM      9  C   UNL     1      -4.698  11.681  18.082  0.00  0.00    +0.000 A 
ATOM     10  C   UNL     1      -3.405  11.755  18.577  0.00  0.00    +0.000 A 
ATOM     11  C   UNL     1      -2.341  11.412  17.737  0.00  0.00    +0.000 A 
ATOM     12  C   UNL     1      -2.650  11.009  16.428  0.00  0.00    +0.000 A 
ATOM     13  C   UNL     1      -3.973  10.960  16.027  0.00  0.00    +0.000 A 
ATOM     14  N   UNL     1      -5.005  11.289  16.827  0.00  0.00    +0.000 NA
ENDBRANCH   1  11
BRANCH   6  15
ATOM     15  N   UNL     1       1.657   9.155  18.932  0.00  0.00    +0.000 N 
ATOM     16  C   UNL     1       1.066   8.360  20.011  0.00  0.00    +0.000 C 
ATOM     17  C   UNL     1       2.151   7.413  20.509  0.00  0.00    +0.000 C 
ATOM     18  C   UNL     1       2.670   6.460  19.405  0.00  0.00    +0.000 C 
ATOM     19  C   UNL     1       3.024   7.310  18.146  0.00  0.00    +0.000 C 
ATOM     20  C   UNL     1       1.954   8.338  17.753  0.00  0.00    +0.000 C 
BRANCH  18  21
ATOM     21  N   UNL     1       1.783   5.325  19.038  0.00  0.00    +0.000 NA
ATOM     22  C   UNL     1       1.413   4.402  20.140  0.00  0.00    +0.000 C 
ATOM     23  C   UNL     1       2.539   3.458  20.599  0.00  0.00    +0.000 C 
ATOM     24  O   UNL     1       3.004   2.658  19.506  0.00  0.00    +0.000 OA
ATOM     25  C   UNL     1       3.475   3.492  18.443  0.00  0.00    +0.000 C 
ATOM     26  C   UNL     1       2.384   4.482  17.967  0.00  0.00    +0.000 C 
ENDBRANCH  18  21
ENDBRANCH   6  15
BRANCH   4  27
ATOM     27  C   UNL     1       0.543  14.981  19.826  0.00  0.00    +0.000 C 
BRANCH  27  28
ATOM     28  C   UNL     1       0.019  14.724  21.251  0.00  0.00    +0.000 C 
BRANCH  28  29
ATOM     29  C   UNL     1      -1.521  14.730  21.287  0.00  0.00    +0.000 C 
BRANCH  29  30
ATOM     30  N   UNL     1      -2.107  14.658  22.638  0.00  0.00    +0.000 NA
ATOM     31  C   UNL     1      -1.585  13.546  23.465  0.00  0.00    +0.000 C 
ATOM     32  C   UNL     1      -2.089  12.145  23.072  0.00  0.00    +0.000 C 
ATOM     33  O   UNL     1      -3.519  12.087  23.005  0.00  0.00    +0.000 OA
ATOM     34  C   UNL     1      -4.025  13.084  22.109  0.00  0.00    +0.000 C 
ATOM     35  C   UNL     1      -3.581  14.492  22.547  0.00  0.00    +0.000 C 
ENDBRANCH  29  30
ENDBRANCH  28  29
ENDBRANCH  27  28
ENDBRANCH   4  27
TORSDOF 7
ENDMDL
MODEL 7
REMARK VINA RESULT:      -7.2      2.803      3.884
REMARK  Name = 
REMARK  7 active torsions:
REMARK  status: ('A' for Active; 'I' for Inactive)
REMARK    1  A    between atoms: C_3  and  C_4
REMARK    2  A    between atoms: N_7  and  C_8
REMARK    3  A    between atoms: C_8  and  C_9
REMARK    4  A    between atoms: C_9  and  C_10
REMARK    5  A    between atoms: C_10  and  N_11
REMARK    6  A    between atoms: C_18  and  N_19
REMARK    7  A    between atoms: C_22  and  N_23
REMARK                            x       y       z     vdW  Elec       q    Type
REMARK                         _______ _______ _______ _____ _____    ______ ____
ROOT
ATOM      1  C   UNL     1      -1.011  11.179  18.646  0.00  0.00    +0.000 A 
ATOM      2  N   UNL     1      -0.771  12.197  19.493  0.00  0.00    +0.000 NA
ATOM      3  C   UNL     1       0.358  12.116  20.206  0.00  0.00    +0.000 A 
ATOM      4  N   UNL     1       0.647  13.047  21.206  0.00  0.00    +0.000 N 
ATOM      5  C   UNL     1       1.246  11.065  20.055  0.00  0.00    +0.000 A 
ATOM      6  C   UNL     1       0.900  10.038  19.200  0.00  0.00    +0.000 A 
ATOM      7  N   UNL     1      -0.230  10.097  18.489  0.00  0.00    +0.000 NA
ATOM      8  H   UNL     1       1.528  13.520  21.033  0.00  0.00    +0.000 HD
ENDROOT
BRANCH   1  11
ATOM      9  C   UNL     1      -3.484  10.803  15.841  0.00  0.00    +0.000 A 
ATOM     10  C   UNL     1      -2.276  10.787  16.520  0.00  0.00    +0.000 A 
ATOM     11  C   UNL     1      -2.248  11.196  17.856  0.00  0.00    +0.000 A 
ATOM     12  C   UNL     1      -3.460  11.604  18.437  0.00  0.00    +0.000 A 
ATOM     13  C   UNL     1      -4.615  11.592  17.676  0.00  0.00    +0.000 A 
ATOM     14  N   UNL     1      -4.653  11.199  16.388  0.00  0.00    +0.000 NA
ENDBRANCH   1  11
BRANCH   6  15
ATOM     15  N   UNL     1       1.657   8.860  19.200  0.00  0.00    +0.000 N 
ATOM     16  C   UNL     1       1.189   7.850  20.152  0.00  0.00    +0.000 C 
ATOM     17  C   UNL     1       2.358   6.907  20.408  0.00  0.00    +0.000 C 
ATOM     18  C   UNL     1       2.855   6.200  19.123  0.00  0.00    +0.000 C 
ATOM     19  C   UNL     1       3.071   7.280  18.019  0.00  0.00    +0.000 C 
ATOM     20  C   UNL     1       1.919   8.285  17.879  0.00  0.00    +0.000 C 
BRANCH  18  21
ATOM     21  N   UNL     1       2.012   5.089  18.611  0.00  0.00    +0.000 NA
ATOM     22  C   UNL     1       1.543   4.106  19.619  0.00  0.00    +0.000 C 
ATOM     23  C   UNL     1       2.625   3.136  20.129  0.00  0.00    +0.000 C 
ATOM     24  O   UNL     1       3.196   2.399  19.041  0.00  0.00    +0.000 OA
ATOM     25  C   UNL     1       3.760   3.291  18.076  0.00  0.00    +0.000 C 
ATOM     26  C   UNL     1       2.715   4.307  17.556  0.00  0.00    +0.000 C 
ENDBRANCH  18  21
ENDBRANCH   6  15
BRANCH   4  27
ATOM     27  C   UNL     1      -0.422  13.902  21.698  0.00  0.00    +0.000 C 
BRANCH  27  28
ATOM     28  C   UNL     1       0.198  15.241  22.135  0.00  0.00    +0.000 C 
BRANCH  28  29
ATOM     29  C   UNL     1       1.218  15.748  21.099  0.00  0.00    +0.000 C 
BRANCH  29  30
ATOM     30  N   UNL     1       0.756  15.699  19.700  0.00  0.00    +0.000 NA
ATOM     31  C   UNL     1       1.827  15.415  18.719  0.00  0.00    +0.000 C 
ATOM     32  C   UNL     1       2.797  16.581  18.453  0.00  0.00    +0.000 C 
ATOM     33  O   UNL     1       2.106  17.786  18.101  0.00  0.00    +0.000 OA
ATOM     34  C   UNL     1       1.150  18.134  19.110  0.00  0.00    +0.000 C 
ATOM     35  C   UNL     1       0.135  16.995  19.322  0.00  0.00    +0.000 C 
ENDBRANCH  29  30
ENDBRANCH  28  29
ENDBRANCH  27  28
ENDBRANCH   4  27
TORSDOF 7
ENDMDL
MODEL 8
REMARK VINA RESULT:      -7.2      4.235      6.641
REMARK  Name = 
REMARK  7 active torsions:
REMARK  status: ('A' for Active; 'I' for Inactive)
REMARK    1  A    between atoms: C_3  and  C_4
REMARK    2  A    between atoms: N_7  and  C_8
REMARK    3  A    between atoms: C_8  and  C_9
REMARK    4  A    between atoms: C_9  and  C_10
REMARK    5  A    between atoms: C_10  and  N_11
REMARK    6  A    between atoms: C_18  and  N_19
REMARK    7  A    between atoms: C_22  and  N_23
REMARK                            x       y       z     vdW  Elec       q    Type
REMARK                         _______ _______ _______ _____ _____    ______ ____
ROOT
ATOM      1  C   UNL     1       0.370  11.084  20.046  0.00  0.00    +0.000 A 
ATOM      2  N   UNL     1       0.877  12.091  19.310  0.00  0.00    +0.000 NA
ATOM      3  C   UNL     1       1.805  11.752  18.408  0.00  0.00    +0.000 A 
ATOM      4  N   UNL     1       2.491  12.726  17.680  0.00  0.00    +0.000 N 
ATOM      5  C   UNL     1       2.194  10.437  18.217  0.00  0.00    +0.000 A 
ATOM      6  C   UNL     1       1.661   9.473  19.046  0.00  0.00    +0.000 A 
ATOM      7  N   UNL     1       0.741   9.795  19.961  0.00  0.00    +0.000 NA
ATOM      8  H   UNL     1       2.370  12.599  16.680  0.00  0.00    +0.000 HD
ENDROOT
BRANCH   1  11
ATOM      9  C   UNL     1      -1.559  11.167  23.270  0.00  0.00    +0.000 A 
ATOM     10  C   UNL     1      -0.597  10.807  22.340  0.00  0.00    +0.000 A 
ATOM     11  C   UNL     1      -0.631  11.396  21.072  0.00  0.00    +0.000 A 
ATOM     12  C   UNL     1      -1.650  12.328  20.815  0.00  0.00    +0.000 A 
ATOM     13  C   UNL     1      -2.570  12.618  21.807  0.00  0.00    +0.000 A 
ATOM     14  N   UNL     1      -2.546  12.058  23.032  0.00  0.00    +0.000 NA
ENDBRANCH   1  11
BRANCH   6  15
ATOM     15  N   UNL     1       2.202   8.182  19.035  0.00  0.00    +0.000 N 
ATOM     16  C   UNL     1       1.531   7.245  19.939  0.00  0.00    +0.000 C 
ATOM     17  C   UNL     1       2.510   6.107  20.205  0.00  0.00    +0.000 C 
ATOM     18  C   UNL     1       2.925   5.357  18.917  0.00  0.00    +0.000 C 
ATOM     19  C   UNL     1       3.365   6.410  17.853  0.00  0.00    +0.000 C 
ATOM     20  C   UNL     1       2.410   7.602  17.706  0.00  0.00    +0.000 C 
BRANCH  18  21
ATOM     21  N   UNL     1       1.922   4.421  18.342  0.00  0.00    +0.000 NA
ATOM     22  C   UNL     1       1.205   3.557  19.313  0.00  0.00    +0.000 C 
ATOM     23  C   UNL     1       2.044   2.404  19.895  0.00  0.00    +0.000 C 
ATOM     24  O   UNL     1       2.537   1.560  18.848  0.00  0.00    +0.000 OA
ATOM     25  C   UNL     1       3.327   2.317  17.928  0.00  0.00    +0.000 C 
ATOM     26  C   UNL     1       2.535   3.508  17.338  0.00  0.00    +0.000 C 
ENDBRANCH  18  21
ENDBRANCH   6  15
BRANCH   4  27
ATOM     27  C   UNL     1       2.439  14.107  18.133  0.00  0.00    +0.000 C 
BRANCH  27  28
ATOM     28  C   UNL     1       3.776  14.780  17.776  0.00  0.00    +0.000 C 
BRANCH  28  29
ATOM     29  C   UNL     1       4.695  14.882  19.008  0.00  0.00    +0.000 C 
BRANCH  29  30
ATOM     30  N   UNL     1       5.875  15.747  18.830  0.00  0.00    +0.000 NA
ATOM     31  C   UNL     1       6.841  15.251  17.823  0.00  0.00    +0.000 C 
ATOM     32  C   UNL     1       7.682  14.039  18.265  0.00  0.00    +0.000 C 
ATOM     33  O   UNL     1       8.340  14.269  19.516  0.00  0.00    +0.000 OA
ATOM     34  C   UNL     1       7.393  14.632  20.528  0.00  0.00    +0.000 C 
ATOM     35  C   UNL     1       6.604  15.889  20.117  0.00  0.00    +0.000 C 
ENDBRANCH  29  30
ENDBRANCH  28  29
ENDBRANCH  27  28
ENDBRANCH   4  27
TORSDOF 7
ENDMDL
MODEL 9
REMARK VINA RESULT:      -7.2      3.741      5.154
REMARK  Name = 
REMARK  7 active torsions:
REMARK  status: ('A' for Active; 'I' for Inactive)
REMARK    1  A    between atoms: C_3  and  C_4
REMARK    2  A    between atoms: N_7  and  C_8
REMARK    3  A    between atoms: C_8  and  C_9
REMARK    4  A    between atoms: C_9  and  C_10
REMARK    5  A    between atoms: C_10  and  N_11
REMARK    6  A    between atoms: C_18  and  N_19
REMARK    7  A    between atoms: C_22  and  N_23
REMARK                            x       y       z     vdW  Elec       q    Type
REMARK                         _______ _______ _______ _____ _____    ______ ____
ROOT
ATOM      1  C   UNL     1      -1.121  11.655  18.336  0.00  0.00    +0.000 A 
ATOM      2  N   UNL     1      -0.637  12.863  18.681  0.00  0.00    +0.000 NA
ATOM      3  C   UNL     1       0.637  12.893  19.087  0.00  0.00    +0.000 A 
ATOM      4  N   UNL     1       1.206  14.064  19.590  0.00  0.00    +0.000 N 
ATOM      5  C   UNL     1       1.424  11.753  19.115  0.00  0.00    +0.000 A 
ATOM      6  C   UNL     1       0.836  10.548  18.791  0.00  0.00    +0.000 A 
ATOM      7  N   UNL     1      -0.440  10.498  18.395  0.00  0.00    +0.000 NA
ATOM      8  H   UNL     1       2.023  14.342  19.056  0.00  0.00    +0.000 HD
ENDROOT
BRANCH   1  11
ATOM      9  C   UNL     1      -4.215  11.027  16.297  0.00  0.00    +0.000 A 
ATOM     10  C   UNL     1      -2.872  11.126  16.625  0.00  0.00    +0.000 A 
ATOM     11  C   UNL     1      -2.521  11.553  17.909  0.00  0.00    +0.000 A 
ATOM     12  C   UNL     1      -3.563  11.859  18.801  0.00  0.00    +0.000 A 
ATOM     13  C   UNL     1      -4.875  11.735  18.379  0.00  0.00    +0.000 A 
ATOM     14  N   UNL     1      -5.224  11.324  17.144  0.00  0.00    +0.000 NA
ENDBRANCH   1  11
BRANCH   6  15
ATOM     15  N   UNL     1       1.532   9.358  19.032  0.00  0.00    +0.000 N 
ATOM     16  C   UNL     1       0.961   8.538  20.103  0.00  0.00    +0.000 C 
ATOM     17  C   UNL     1       2.066   7.606  20.585  0.00  0.00    +0.000 C 
ATOM     18  C   UNL     1       2.600   6.677  19.467  0.00  0.00    +0.000 C 
ATOM     19  C   UNL     1       2.932   7.550  18.217  0.00  0.00    +0.000 C 
ATOM     20  C   UNL     1       1.840   8.562  17.842  0.00  0.00    +0.000 C 
BRANCH  18  21
ATOM     21  N   UNL     1       1.734   5.530  19.089  0.00  0.00    +0.000 NA
ATOM     22  C   UNL     1       1.367   4.599  20.186  0.00  0.00    +0.000 C 
ATOM     23  C   UNL     1       2.504   3.671  20.653  0.00  0.00    +0.000 C 
ATOM     24  O   UNL     1       2.991   2.881  19.563  0.00  0.00    +0.000 OA
ATOM     25  C   UNL     1       3.458   3.724  18.506  0.00  0.00    +0.000 C 
ATOM     26  C   UNL     1       2.357   4.698  18.022  0.00  0.00    +0.000 C 
ENDBRANCH  18  21
ENDBRANCH   6  15
BRANCH   4  27
ATOM     27  C   UNL     1       0.330  15.157  19.983  0.00  0.00    +0.000 C 
BRANCH  27  28
ATOM     28  C   UNL     1       0.999  16.480  19.572  0.00  0.00    +0.000 C 
BRANCH  28  29
ATOM     29  C   UNL     1       2.483  16.505  19.983  0.00  0.00    +0.000 C 
BRANCH  29  30
ATOM     30  N   UNL     1       3.385  17.140  19.005  0.00  0.00    +0.000 NA
ATOM     31  C   UNL     1       3.196  16.669  17.614  0.00  0.00    +0.000 C 
ATOM     32  C   UNL     1       3.728  15.253  17.324  0.00  0.00    +0.000 C 
ATOM     33  O   UNL     1       5.097  15.102  17.720  0.00  0.00    +0.000 OA
ATOM     34  C   UNL     1       5.265  15.440  19.102  0.00  0.00    +0.000 C 
ATOM     35  C   UNL     1       4.801  16.883  19.375  0.00  0.00    +0.000 C 
ENDBRANCH  29  30
ENDBRANCH  28  29
ENDBRANCH  27  28
ENDBRANCH   4  27
TORSDOF 7
ENDMDL
