MODEL 1
REMARK VINA RESULT:      -8.1      0.000      0.000
REMARK  Name = 
REMARK  7 active torsions:
REMARK  status: ('A' for Active; 'I' for Inactive)
REMARK    1  A    between atoms: C_1  and  C_2
REMARK    2  A    between atoms: C_2  and  C_3
REMARK    3  A    between atoms: C_3  and  C_4
REMARK    4  A    between atoms: N_6  and  C_7
REMARK    5  A    between atoms: C_7  and  C_8
REMARK    6  A    between atoms: C_7  and  C_14
REMARK    7  A    between atoms: C_23  and  O_24
REMARK                            x       y       z     vdW  Elec       q    Type
REMARK                         _______ _______ _______ _____ _____    ______ ____
ROOT
ATOM      1  C   UNL     1       3.414   6.090  17.907  0.00  0.00    +0.000 C 
ENDROOT
BRANCH   1   2
ATOM      2  C   UNL     1       2.542   6.974  18.795  0.00  0.00    +0.000 A 
ATOM      3  C   UNL     1       2.133   6.580  20.077  0.00  0.00    +0.000 A 
ATOM      4  C   UNL     1       1.415   7.450  20.903  0.00  0.00    +0.000 A 
ATOM      5  C   UNL     1       1.072   8.736  20.460  0.00  0.00    +0.000 A 
ATOM      6  C   UNL     1       0.379   9.646  21.273  0.00  0.00    +0.000 A 
ATOM      7  C   UNL     1       0.030  10.894  20.772  0.00  0.00    +0.000 A 
ATOM      8  C   UNL     1       0.387  11.194  19.470  0.00  0.00    +0.000 A 
ATOM      9  N   UNL     1       1.094  10.363  18.671  0.00  0.00    +0.000 NA
ATOM     10  C   UNL     1       1.431   9.151  19.166  0.00  0.00    +0.000 A 
ATOM     11  C   UNL     1       2.182   8.269  18.381  0.00  0.00    +0.000 A 
BRANCH  11  12
ATOM     12  O   UNL     1       2.600   8.725  17.150  0.00  0.00    +0.000 OA
ATOM     13  H   UNL     1       3.229   8.039  16.837  0.00  0.00    +0.000 HD
ENDBRANCH  11  12
ENDBRANCH   1   2
BRANCH   1  14
ATOM     14  C   UNL     1       3.260   4.583  18.153  0.00  0.00    +0.000 A 
ATOM     15  C   UNL     1       2.181   3.841  17.637  0.00  0.00    +0.000 A 
ATOM     16  C   UNL     1       2.051   2.477  17.906  0.00  0.00    +0.000 A 
ATOM     17  C   UNL     1       2.999   1.829  18.691  0.00  0.00    +0.000 A 
ATOM     18  C   UNL     1       4.084   2.541  19.200  0.00  0.00    +0.000 A 
ATOM     19  C   UNL     1       4.217   3.906  18.929  0.00  0.00    +0.000 A 
ENDBRANCH   1  14
BRANCH   1  22
ATOM     20  C   UNL     1       5.602   6.756  16.957  0.00  0.00    +0.000 C 
ATOM     21  O   UNL     1       5.198   6.780  15.803  0.00  0.00    +0.000 OA
ATOM     22  N   UNL     1       4.807   6.492  18.050  0.00  0.00    +0.000 N 
ATOM     23  H   UNL     1       5.219   6.425  18.966  0.00  0.00    +0.000 HD
BRANCH  20  24
ATOM     24  C   UNL     1       7.054   7.029  17.301  0.00  0.00    +0.000 C 
BRANCH  24  26
ATOM     25  C   UNL     1       7.692   4.611  17.754  0.00  0.00    +0.000 C 
ATOM     26  C   UNL     1       7.641   6.033  18.298  0.00  0.00    +0.000 C 
ENDBRANCH  24  26
ENDBRANCH  20  24
ENDBRANCH   1  22
TORSDOF 6
ENDMDL
MODEL 2
REMARK VINA RESULT:      -7.9      3.870      5.748
REMARK  Name = 
REMARK  7 active torsions:
REMARK  status: ('A' for Active; 'I' for Inactive)
REMARK    1  A    between atoms: C_1  and  C_2
REMARK    2  A    between atoms: C_2  and  C_3
REMARK    3  A    between atoms: C_3  and  C_4
REMARK    4  A    between atoms: N_6  and  C_7
REMARK    5  A    between atoms: C_7  and  C_8
REMARK    6  A    between atoms: C_7  and  C_14
REMARK    7  A    between atoms: C_23  and  O_24
REMARK                            x       y       z     vdW  Elec       q    Type
REMARK                         _______ _______ _______ _____ _____    ______ ____
ROOT
ATOM      1  C   UNL     1       5.847   4.637  17.238  0.00  0.00    +0.000 C 
ENDROOT
BRANCH   1   2
ATOM      2  C   UNL     1       4.510   4.478  17.956  0.00  0.00    +0.000 A 
ATOM      3  C   UNL     1       3.325   5.050  17.470  0.00  0.00    +0.000 A 
ATOM      4  C   UNL     1       2.098   4.807  18.098  0.00  0.00    +0.000 A 
ATOM      5  C   UNL     1       2.028   3.997  19.240  0.00  0.00    +0.000 A 
ATOM      6  C   UNL     1       0.812   3.707  19.877  0.00  0.00    +0.000 A 
ATOM      7  C   UNL     1       0.802   2.930  21.029  0.00  0.00    +0.000 A 
ATOM      8  C   UNL     1       2.013   2.464  21.508  0.00  0.00    +0.000 A 
ATOM      9  N   UNL     1       3.200   2.682  20.898  0.00  0.00    +0.000 NA
ATOM     10  C   UNL     1       3.201   3.439  19.777  0.00  0.00    +0.000 A 
ATOM     11  C   UNL     1       4.405   3.672  19.103  0.00  0.00    +0.000 A 
BRANCH  11  12
ATOM     12  O   UNL     1       5.530   3.046  19.593  0.00  0.00    +0.000 OA
ATOM     13  H   UNL     1       6.264   3.664  19.383  0.00  0.00    +0.000 HD
ENDBRANCH  11  12
ENDBRANCH   1   2
BRANCH   1  14
ATOM     14  C   UNL     1       6.641   5.891  17.630  0.00  0.00    +0.000 A 
ATOM     15  C   UNL     1       6.406   7.147  17.040  0.00  0.00    +0.000 A 
ATOM     16  C   UNL     1       7.168   8.263  17.394  0.00  0.00    +0.000 A 
ATOM     17  C   UNL     1       8.175   8.143  18.347  0.00  0.00    +0.000 A 
ATOM     18  C   UNL     1       8.415   6.912  18.954  0.00  0.00    +0.000 A 
ATOM     19  C   UNL     1       7.651   5.795  18.603  0.00  0.00    +0.000 A 
ENDBRANCH   1  14
BRANCH   1  22
ATOM     20  C   UNL     1       6.673   4.592  14.903  0.00  0.00    +0.000 C 
ATOM     21  O   UNL     1       7.851   4.509  15.224  0.00  0.00    +0.000 OA
ATOM     22  N   UNL     1       5.626   4.601  15.798  0.00  0.00    +0.000 N 
ATOM     23  H   UNL     1       4.685   4.736  15.468  0.00  0.00    +0.000 HD
BRANCH  20  24
ATOM     24  C   UNL     1       6.245   4.688  13.452  0.00  0.00    +0.000 C 
BRANCH  24  26
ATOM     25  C   UNL     1       4.785   3.356  11.854  0.00  0.00    +0.000 C 
ATOM     26  C   UNL     1       5.972   3.330  12.807  0.00  0.00    +0.000 C 
ENDBRANCH  24  26
ENDBRANCH  20  24
ENDBRANCH   1  22
TORSDOF 6
ENDMDL
MODEL 3
REMARK VINA RESULT:      -7.9      2.224      4.140
REMARK  Name = 
REMARK  7 active torsions:
REMARK  status: ('A' for Active; 'I' for Inactive)
REMARK    1  A    between atoms: C_1  and  C_2
REMARK    2  A    between atoms: C_2  and  C_3
REMARK    3  A    between atoms: C_3  and  C_4
REMARK    4  A    between atoms: N_6  and  C_7
REMARK    5  A    between atoms: C_7  and  C_8
REMARK    6  A    between atoms: C_7  and  C_14
REMARK    7  A    between atoms: C_23  and  O_24
REMARK                            x       y       z     vdW  Elec       q    Type
REMARK                         _______ _______ _______ _____ _____    ______ ____
ROOT
ATOM      1  C   UNL     1       3.010   6.156  19.132  0.00  0.00    +0.000 C 
ENDROOT
BRANCH   1   2
ATOM      2  C   UNL     1       2.310   7.510  19.053  0.00  0.00    +0.000 A 
ATOM      3  C   UNL     1       2.139   8.197  17.843  0.00  0.00    +0.000 A 
ATOM      4  C   UNL     1       1.409   9.389  17.789  0.00  0.00    +0.000 A 
ATOM      5  C   UNL     1       0.844   9.934  18.951  0.00  0.00    +0.000 A 
ATOM      6  C   UNL     1       0.080  11.112  18.929  0.00  0.00    +0.000 A 
ATOM      7  C   UNL     1      -0.425  11.631  20.114  0.00  0.00    +0.000 A 
ATOM      8  C   UNL     1      -0.151  10.954  21.288  0.00  0.00    +0.000 A 
ATOM      9  N   UNL     1       0.541   9.793  21.346  0.00  0.00    +0.000 NA
ATOM     10  C   UNL     1       1.029   9.294  20.188  0.00  0.00    +0.000 A 
ATOM     11  C   UNL     1       1.731   8.084  20.199  0.00  0.00    +0.000 A 
BRANCH  11  12
ATOM     12  O   UNL     1       1.827   7.425  21.406  0.00  0.00    +0.000 OA
ATOM     13  H   UNL     1       1.497   6.520  21.216  0.00  0.00    +0.000 HD
ENDBRANCH  11  12
ENDBRANCH   1   2
BRANCH   1  14
ATOM     14  C   UNL     1       4.043   5.902  18.025  0.00  0.00    +0.000 A 
ATOM     15  C   UNL     1       5.105   6.789  17.766  0.00  0.00    +0.000 A 
ATOM     16  C   UNL     1       6.009   6.547  16.730  0.00  0.00    +0.000 A 
ATOM     17  C   UNL     1       5.871   5.413  15.937  0.00  0.00    +0.000 A 
ATOM     18  C   UNL     1       4.836   4.514  16.185  0.00  0.00    +0.000 A 
ATOM     19  C   UNL     1       3.931   4.752  17.224  0.00  0.00    +0.000 A 
ENDBRANCH   1  14
BRANCH   1  22
ATOM     20  C   UNL     1       1.803   4.313  20.263  0.00  0.00    +0.000 C 
ATOM     21  O   UNL     1       2.350   4.494  21.343  0.00  0.00    +0.000 OA
ATOM     22  N   UNL     1       2.009   5.098  19.150  0.00  0.00    +0.000 N 
ATOM     23  H   UNL     1       1.574   4.853  18.276  0.00  0.00    +0.000 HD
BRANCH  20  24
ATOM     24  C   UNL     1       0.816   3.183  20.047  0.00  0.00    +0.000 C 
BRANCH  24  26
ATOM     25  C   UNL     1       2.538   1.778  18.815  0.00  0.00    +0.000 C 
ATOM     26  C   UNL     1       1.121   2.335  18.814  0.00  0.00    +0.000 C 
ENDBRANCH  24  26
ENDBRANCH  20  24
ENDBRANCH   1  22
TORSDOF 6
ENDMDL
MODEL 4
REMARK VINA RESULT:      -7.9      1.309      1.794
REMARK  Name = 
REMARK  7 active torsions:
REMARK  status: ('A' for Active; 'I' for Inactive)
REMARK    1  A    between atoms: C_1  and  C_2
REMARK    2  A    between atoms: C_2  and  C_3
REMARK    3  A    between atoms: C_3  and  C_4
REMARK    4  A    between atoms: N_6  and  C_7
REMARK    5  A    between atoms: C_7  and  C_8
REMARK    6  A    between atoms: C_7  and  C_14
REMARK    7  A    between atoms: C_23  and  O_24
REMARK                            x       y       z     vdW  Elec       q    Type
REMARK                         _______ _______ _______ _____ _____    ______ ____
ROOT
ATOM      1  C   UNL     1       3.491   6.435  17.580  0.00  0.00    +0.000 C 
ENDROOT
BRANCH   1   2
ATOM      2  C   UNL     1       2.622   7.495  18.251  0.00  0.00    +0.000 A 
ATOM      3  C   UNL     1       2.000   8.523  17.528  0.00  0.00    +0.000 A 
ATOM      4  C   UNL     1       1.133   9.423  18.157  0.00  0.00    +0.000 A 
ATOM      5  C   UNL     1       0.879   9.327  19.533  0.00  0.00    +0.000 A 
ATOM      6  C   UNL     1      -0.008  10.193  20.191  0.00  0.00    +0.000 A 
ATOM      7  C   UNL     1      -0.195  10.079  21.563  0.00  0.00    +0.000 A 
ATOM      8  C   UNL     1       0.511   9.100  22.236  0.00  0.00    +0.000 A 
ATOM      9  N   UNL     1       1.339   8.217  21.632  0.00  0.00    +0.000 NA
ATOM     10  C   UNL     1       1.516   8.333  20.296  0.00  0.00    +0.000 A 
ATOM     11  C   UNL     1       2.347   7.427  19.628  0.00  0.00    +0.000 A 
BRANCH  11  12
ATOM     12  O   UNL     1       2.893   6.407  20.376  0.00  0.00    +0.000 OA
ATOM     13  H   UNL     1       3.679   6.812  20.804  0.00  0.00    +0.000 HD
ENDBRANCH  11  12
ENDBRANCH   1   2
BRANCH   1  14
ATOM     14  C   UNL     1       3.070   4.987  17.862  0.00  0.00    +0.000 A 
ATOM     15  C   UNL     1       1.727   4.569  17.815  0.00  0.00    +0.000 A 
ATOM     16  C   UNL     1       1.372   3.251  18.110  0.00  0.00    +0.000 A 
ATOM     17  C   UNL     1       2.353   2.326  18.453  0.00  0.00    +0.000 A 
ATOM     18  C   UNL     1       3.691   2.715  18.492  0.00  0.00    +0.000 A 
ATOM     19  C   UNL     1       4.048   4.033  18.194  0.00  0.00    +0.000 A 
ENDBRANCH   1  14
BRANCH   1  22
ATOM     20  C   UNL     1       5.862   6.876  17.015  0.00  0.00    +0.000 C 
ATOM     21  O   UNL     1       5.646   7.025  15.820  0.00  0.00    +0.000 OA
ATOM     22  N   UNL     1       4.882   6.647  17.956  0.00  0.00    +0.000 N 
ATOM     23  H   UNL     1       5.138   6.469  18.913  0.00  0.00    +0.000 HD
BRANCH  20  24
ATOM     24  C   UNL     1       7.265   6.939  17.587  0.00  0.00    +0.000 C 
BRANCH  24  26
ATOM     25  C   UNL     1       7.700   4.436  17.644  0.00  0.00    +0.000 C 
ATOM     26  C   UNL     1       7.628   5.729  18.445  0.00  0.00    +0.000 C 
ENDBRANCH  24  26
ENDBRANCH  20  24
ENDBRANCH   1  22
TORSDOF 6
ENDMDL
MODEL 5
REMARK VINA RESULT:      -7.9      3.807      5.846
REMARK  Name = 
REMARK  7 active torsions:
REMARK  status: ('A' for Active; 'I' for Inactive)
REMARK    1  A    between atoms: C_1  and  C_2
REMARK    2  A    between atoms: C_2  and  C_3
REMARK    3  A    between atoms: C_3  and  C_4
REMARK    4  A    between atoms: N_6  and  C_7
REMARK    5  A    between atoms: C_7  and  C_8
REMARK    6  A    between atoms: C_7  and  C_14
REMARK    7  A    between atoms: C_23  and  O_24
REMARK                            x       y       z     vdW  Elec       q    Type
REMARK                         _______ _______ _______ _____ _____    ______ ____
ROOT
ATOM      1  C   UNL     1       5.509   4.513  17.089  0.00  0.00    +0.000 C 
ENDROOT
BRANCH   1   2
ATOM      2  C   UNL     1       4.261   4.381  17.957  0.00  0.00    +0.000 A 
ATOM      3  C   UNL     1       3.048   5.002  17.627  0.00  0.00    +0.000 A 
ATOM      4  C   UNL     1       1.896   4.785  18.391  0.00  0.00    +0.000 A 
ATOM      5  C   UNL     1       1.933   3.950  19.518  0.00  0.00    +0.000 A 
ATOM      6  C   UNL     1       0.791   3.686  20.289  0.00  0.00    +0.000 A 
ATOM      7  C   UNL     1       0.890   2.882  21.418  0.00  0.00    +0.000 A 
ATOM      8  C   UNL     1       2.132   2.366  21.742  0.00  0.00    +0.000 A 
ATOM      9  N   UNL     1       3.246   2.560  20.999  0.00  0.00    +0.000 NA
ATOM     10  C   UNL     1       3.141   3.343  19.901  0.00  0.00    +0.000 A 
ATOM     11  C   UNL     1       4.264   3.552  19.093  0.00  0.00    +0.000 A 
BRANCH  11  12
ATOM     12  O   UNL     1       5.417   2.878  19.434  0.00  0.00    +0.000 OA
ATOM     13  H   UNL     1       5.446   2.116  18.814  0.00  0.00    +0.000 HD
ENDBRANCH  11  12
ENDBRANCH   1   2
BRANCH   1  14
ATOM     14  C   UNL     1       6.432   5.680  17.465  0.00  0.00    +0.000 A 
ATOM     15  C   UNL     1       7.447   5.557  18.432  0.00  0.00    +0.000 A 
ATOM     16  C   UNL     1       8.250   6.646  18.776  0.00  0.00    +0.000 A 
ATOM     17  C   UNL     1       8.055   7.877  18.157  0.00  0.00    +0.000 A 
ATOM     18  C   UNL     1       7.066   8.017  17.186  0.00  0.00    +0.000 A 
ATOM     19  C   UNL     1       6.264   6.927  16.837  0.00  0.00    +0.000 A 
ENDBRANCH   1  14
BRANCH   1  22
ATOM     20  C   UNL     1       5.950   4.208  14.671  0.00  0.00    +0.000 C 
ATOM     21  O   UNL     1       7.031   3.660  14.843  0.00  0.00    +0.000 OA
ATOM     22  N   UNL     1       5.113   4.604  15.690  0.00  0.00    +0.000 N 
ATOM     23  H   UNL     1       4.267   5.107  15.478  0.00  0.00    +0.000 HD
BRANCH  20  24
ATOM     24  C   UNL     1       5.416   4.502  13.283  0.00  0.00    +0.000 C 
BRANCH  24  26
ATOM     25  C   UNL     1       4.345   3.181  11.394  0.00  0.00    +0.000 C 
ATOM     26  C   UNL     1       5.547   3.326  12.318  0.00  0.00    +0.000 C 
ENDBRANCH  24  26
ENDBRANCH  20  24
ENDBRANCH   1  22
TORSDOF 6
ENDMDL
MODEL 6
REMARK VINA RESULT:      -7.9      2.283      4.214
REMARK  Name = 
REMARK  7 active torsions:
REMARK  status: ('A' for Active; 'I' for Inactive)
REMARK    1  A    between atoms: C_1  and  C_2
REMARK    2  A    between atoms: C_2  and  C_3
REMARK    3  A    between atoms: C_3  and  C_4
REMARK    4  A    between atoms: N_6  and  C_7
REMARK    5  A    between atoms: C_7  and  C_8
REMARK    6  A    between atoms: C_7  and  C_14
REMARK    7  A    between atoms: C_23  and  O_24
REMARK                            x       y       z     vdW  Elec       q    Type
REMARK                         _______ _______ _______ _____ _____    ______ ____
ROOT
ATOM      1  C   UNL     1       4.253   5.152  18.507  0.00  0.00    +0.000 C 
ENDROOT
BRANCH   1   2
ATOM      2  C   UNL     1       3.437   6.437  18.620  0.00  0.00    +0.000 A 
ATOM      3  C   UNL     1       3.362   7.372  17.578  0.00  0.00    +0.000 A 
ATOM      4  C   UNL     1       2.530   8.492  17.674  0.00  0.00    +0.000 A 
ATOM      5  C   UNL     1       1.761   8.714  18.826  0.00  0.00    +0.000 A 
ATOM      6  C   UNL     1       0.893   9.811  18.944  0.00  0.00    +0.000 A 
ATOM      7  C   UNL     1       0.182  10.006  20.122  0.00  0.00    +0.000 A 
ATOM      8  C   UNL     1       0.362   9.096  21.148  0.00  0.00    +0.000 A 
ATOM      9  N   UNL     1       1.153   8.003  21.056  0.00  0.00    +0.000 NA
ATOM     10  C   UNL     1       1.841   7.819  19.906  0.00  0.00    +0.000 A 
ATOM     11  C   UNL     1       2.654   6.690  19.760  0.00  0.00    +0.000 A 
BRANCH  11  12
ATOM     12  O   UNL     1       2.652   5.777  20.794  0.00  0.00    +0.000 OA
ATOM     13  H   UNL     1       3.113   4.992  20.426  0.00  0.00    +0.000 HD
ENDBRANCH  11  12
ENDBRANCH   1   2
BRANCH   1  14
ATOM     14  C   UNL     1       5.164   5.076  17.274  0.00  0.00    +0.000 A 
ATOM     15  C   UNL     1       4.791   4.389  16.104  0.00  0.00    +0.000 A 
ATOM     16  C   UNL     1       5.656   4.309  15.010  0.00  0.00    +0.000 A 
ATOM     17  C   UNL     1       6.906   4.918  15.065  0.00  0.00    +0.000 A 
ATOM     18  C   UNL     1       7.288   5.616  16.209  0.00  0.00    +0.000 A 
ATOM     19  C   UNL     1       6.423   5.700  17.303  0.00  0.00    +0.000 A 
ENDBRANCH   1  14
BRANCH   1  22
ATOM     20  C   UNL     1       3.703   2.834  19.183  0.00  0.00    +0.000 C 
ATOM     21  O   UNL     1       4.726   2.683  19.837  0.00  0.00    +0.000 OA
ATOM     22  N   UNL     1       3.354   4.007  18.551  0.00  0.00    +0.000 N 
ATOM     23  H   UNL     1       2.528   4.041  17.976  0.00  0.00    +0.000 HD
BRANCH  20  24
ATOM     24  C   UNL     1       2.695   1.715  19.008  0.00  0.00    +0.000 C 
BRANCH  24  26
ATOM     25  C   UNL     1       0.726   2.937  20.052  0.00  0.00    +0.000 C 
ATOM     26  C   UNL     1       1.261   2.210  18.826  0.00  0.00    +0.000 C 
ENDBRANCH  24  26
ENDBRANCH  20  24
ENDBRANCH   1  22
TORSDOF 6
ENDMDL
MODEL 7
REMARK VINA RESULT:      -7.7      1.428      2.020
REMARK  Name = 
REMARK  7 active torsions:
REMARK  status: ('A' for Active; 'I' for Inactive)
REMARK    1  A    between atoms: C_1  and  C_2
REMARK    2  A    between atoms: C_2  and  C_3
REMARK    3  A    between atoms: C_3  and  C_4
REMARK    4  A    between atoms: N_6  and  C_7
REMARK    5  A    between atoms: C_7  and  C_8
REMARK    6  A    between atoms: C_7  and  C_14
REMARK    7  A    between atoms: C_23  and  O_24
REMARK                            x       y       z     vdW  Elec       q    Type
REMARK                         _______ _______ _______ _____ _____    ______ ____
ROOT
ATOM      1  C   UNL     1       3.622   5.710  17.667  0.00  0.00    +0.000 C 
ENDROOT
BRANCH   1   2
ATOM      2  C   UNL     1       2.899   6.938  18.212  0.00  0.00    +0.000 A 
ATOM      3  C   UNL     1       2.481   7.991  17.386  0.00  0.00    +0.000 A 
ATOM      4  C   UNL     1       1.737   9.058  17.900  0.00  0.00    +0.000 A 
ATOM      5  C   UNL     1       1.405   9.107  19.262  0.00  0.00    +0.000 A 
ATOM      6  C   UNL     1       0.635  10.146  19.807  0.00  0.00    +0.000 A 
ATOM      7  C   UNL     1       0.367  10.167  21.170  0.00  0.00    +0.000 A 
ATOM      8  C   UNL     1       0.879   9.146  21.948  0.00  0.00    +0.000 A 
ATOM      9  N   UNL     1       1.586   8.103  21.455  0.00  0.00    +0.000 NA
ATOM     10  C   UNL     1       1.842   8.089  20.127  0.00  0.00    +0.000 A 
ATOM     11  C   UNL     1       2.551   7.018  19.572  0.00  0.00    +0.000 A 
BRANCH  11  12
ATOM     12  O   UNL     1       2.894   5.987  20.419  0.00  0.00    +0.000 OA
ATOM     13  H   UNL     1       3.529   6.391  21.051  0.00  0.00    +0.000 HD
ENDBRANCH  11  12
ENDBRANCH   1   2
BRANCH   1  14
ATOM     14  C   UNL     1       2.995   4.366  18.064  0.00  0.00    +0.000 A 
ATOM     15  C   UNL     1       1.613   4.120  17.963  0.00  0.00    +0.000 A 
ATOM     16  C   UNL     1       1.068   2.898  18.364  0.00  0.00    +0.000 A 
ATOM     17  C   UNL     1       1.896   1.900  18.870  0.00  0.00    +0.000 A 
ATOM     18  C   UNL     1       3.269   2.118  18.965  0.00  0.00    +0.000 A 
ATOM     19  C   UNL     1       3.816   3.339  18.561  0.00  0.00    +0.000 A 
ENDBRANCH   1  14
BRANCH   1  22
ATOM     20  C   UNL     1       6.033   5.945  17.150  0.00  0.00    +0.000 C 
ATOM     21  O   UNL     1       5.850   6.184  15.964  0.00  0.00    +0.000 OA
ATOM     22  N   UNL     1       5.022   5.760  18.067  0.00  0.00    +0.000 N 
ATOM     23  H   UNL     1       5.245   5.503  19.014  0.00  0.00    +0.000 HD
BRANCH  20  24
ATOM     24  C   UNL     1       7.426   5.836  17.736  0.00  0.00    +0.000 C 
BRANCH  24  26
ATOM     25  C   UNL     1       7.832   8.341  17.612  0.00  0.00    +0.000 C 
ATOM     26  C   UNL     1       7.874   7.092  18.481  0.00  0.00    +0.000 C 
ENDBRANCH  24  26
ENDBRANCH  20  24
ENDBRANCH   1  22
TORSDOF 6
ENDMDL
MODEL 8
REMARK VINA RESULT:      -7.7      0.703      1.460
REMARK  Name = 
REMARK  7 active torsions:
REMARK  status: ('A' for Active; 'I' for Inactive)
REMARK    1  A    between atoms: C_1  and  C_2
REMARK    2  A    between atoms: C_2  and  C_3
REMARK    3  A    between atoms: C_3  and  C_4
REMARK    4  A    between atoms: N_6  and  C_7
REMARK    5  A    between atoms: C_7  and  C_8
REMARK    6  A    between atoms: C_7  and  C_14
REMARK    7  A    between atoms: C_23  and  O_24
REMARK                            x       y       z     vdW  Elec       q    Type
REMARK                         _______ _______ _______ _____ _____    ______ ____
ROOT
ATOM      1  C   UNL     1       3.660   5.967  17.946  0.00  0.00    +0.000 C 
ENDROOT
BRANCH   1   2
ATOM      2  C   UNL     1       2.728   6.863  18.759  0.00  0.00    +0.000 A 
ATOM      3  C   UNL     1       2.283   6.515  20.042  0.00  0.00    +0.000 A 
ATOM      4  C   UNL     1       1.508   7.398  20.800  0.00  0.00    +0.000 A 
ATOM      5  C   UNL     1       1.144   8.651  20.285  0.00  0.00    +0.000 A 
ATOM      6  C   UNL     1       0.393   9.574  21.028  0.00  0.00    +0.000 A 
ATOM      7  C   UNL     1       0.025  10.786  20.457  0.00  0.00    +0.000 A 
ATOM      8  C   UNL     1       0.421  11.038  19.157  0.00  0.00    +0.000 A 
ATOM      9  N   UNL     1       1.183  10.195  18.424  0.00  0.00    +0.000 NA
ATOM     10  C   UNL     1       1.538   9.017  18.987  0.00  0.00    +0.000 A 
ATOM     11  C   UNL     1       2.344   8.125  18.272  0.00  0.00    +0.000 A 
BRANCH  11  12
ATOM     12  O   UNL     1       2.794   8.538  17.036  0.00  0.00    +0.000 OA
ATOM     13  H   UNL     1       1.977   8.769  16.544  0.00  0.00    +0.000 HD
ENDBRANCH  11  12
ENDBRANCH   1   2
BRANCH   1  14
ATOM     14  C   UNL     1       3.488   4.464  18.200  0.00  0.00    +0.000 A 
ATOM     15  C   UNL     1       4.313   3.751  19.091  0.00  0.00    +0.000 A 
ATOM     16  C   UNL     1       4.154   2.376  19.276  0.00  0.00    +0.000 A 
ATOM     17  C   UNL     1       3.165   1.690  18.578  0.00  0.00    +0.000 A 
ATOM     18  C   UNL     1       2.328   2.379  17.703  0.00  0.00    +0.000 A 
ATOM     19  C   UNL     1       2.483   3.756  17.519  0.00  0.00    +0.000 A 
ENDBRANCH   1  14
BRANCH   1  22
ATOM     20  C   UNL     1       5.883   6.707  17.145  0.00  0.00    +0.000 C 
ATOM     21  O   UNL     1       5.535   6.796  15.975  0.00  0.00    +0.000 OA
ATOM     22  N   UNL     1       5.039   6.372  18.180  0.00  0.00    +0.000 N 
ATOM     23  H   UNL     1       5.407   6.255  19.110  0.00  0.00    +0.000 HD
BRANCH  20  24
ATOM     24  C   UNL     1       7.313   6.972  17.575  0.00  0.00    +0.000 C 
BRANCH  24  26
ATOM     25  C   UNL     1       8.629   8.886  18.605  0.00  0.00    +0.000 C 
ATOM     26  C   UNL     1       7.718   8.440  17.469  0.00  0.00    +0.000 C 
ENDBRANCH  24  26
ENDBRANCH  20  24
ENDBRANCH   1  22
TORSDOF 6
ENDMDL
MODEL 9
REMARK VINA RESULT:      -7.7      0.636      1.012
REMARK  Name = 
REMARK  7 active torsions:
REMARK  status: ('A' for Active; 'I' for Inactive)
REMARK    1  A    between atoms: C_1  and  C_2
REMARK    2  A    between atoms: C_2  and  C_3
REMARK    3  A    between atoms: C_3  and  C_4
REMARK    4  A    between atoms: N_6  and  C_7
REMARK    5  A    between atoms: C_7  and  C_8
REMARK    6  A    between atoms: C_7  and  C_14
REMARK    7  A    between atoms: C_23  and  O_24
REMARK                            x       y       z     vdW  Elec       q    Type
REMARK                         _______ _______ _______ _____ _____    ______ ____
ROOT
ATOM      1  C   UNL     1       3.401   5.978  17.961  0.00  0.00    +0.000 C 
ENDROOT
BRANCH   1   2
ATOM      2  C   UNL     1       2.559   6.946  18.788  0.00  0.00    +0.000 A 
ATOM      3  C   UNL     1       2.124   6.642  20.086  0.00  0.00    +0.000 A 
ATOM      4  C   UNL     1       1.436   7.587  20.855  0.00  0.00    +0.000 A 
ATOM      5  C   UNL     1       1.150   8.858  20.336  0.00  0.00    +0.000 A 
ATOM      6  C   UNL     1       0.488   9.840  21.089  0.00  0.00    +0.000 A 
ATOM      7  C   UNL     1       0.194  11.071  20.515  0.00  0.00    +0.000 A 
ATOM      8  C   UNL     1       0.573  11.282  19.202  0.00  0.00    +0.000 A 
ATOM      9  N   UNL     1       1.252  10.379  18.459  0.00  0.00    +0.000 NA
ATOM     10  C   UNL     1       1.535   9.184  19.025  0.00  0.00    +0.000 A 
ATOM     11  C   UNL     1       2.255   8.229  18.298  0.00  0.00    +0.000 A 
BRANCH  11  12
ATOM     12  O   UNL     1       2.702   8.597  17.048  0.00  0.00    +0.000 OA
ATOM     13  H   UNL     1       3.678   8.502  17.100  0.00  0.00    +0.000 HD
ENDBRANCH  11  12
ENDBRANCH   1   2
BRANCH   1  14
ATOM     14  C   UNL     1       3.122   4.493  18.230  0.00  0.00    +0.000 A 
ATOM     15  C   UNL     1       1.881   3.896  17.941  0.00  0.00    +0.000 A 
ATOM     16  C   UNL     1       1.647   2.549  18.228  0.00  0.00    +0.000 A 
ATOM     17  C   UNL     1       2.650   1.775  18.803  0.00  0.00    +0.000 A 
ATOM     18  C   UNL     1       3.891   2.343  19.083  0.00  0.00    +0.000 A 
ATOM     19  C   UNL     1       4.128   3.690  18.794  0.00  0.00    +0.000 A 
ENDBRANCH   1  14
BRANCH   1  22
ATOM     20  C   UNL     1       5.623   6.684  17.126  0.00  0.00    +0.000 C 
ATOM     21  O   UNL     1       5.224   6.926  15.994  0.00  0.00    +0.000 OA
ATOM     22  N   UNL     1       4.813   6.278  18.162  0.00  0.00    +0.000 N 
ATOM     23  H   UNL     1       5.219   6.035  19.051  0.00  0.00    +0.000 HD
BRANCH  20  24
ATOM     24  C   UNL     1       7.086   6.820  17.502  0.00  0.00    +0.000 C 
BRANCH  24  26
ATOM     25  C   UNL     1       8.566   8.596  18.555  0.00  0.00    +0.000 C 
ATOM     26  C   UNL     1       7.603   8.255  17.427  0.00  0.00    +0.000 C 
ENDBRANCH  24  26
ENDBRANCH  20  24
ENDBRANCH   1  22
TORSDOF 6
ENDMDL
