MODEL 1
REMARK VINA RESULT:      -6.7      0.000      0.000
REMARK  Name = 
REMARK  12 active torsions:
REMARK  status: ('A' for Active; 'I' for Inactive)
REMARK    1  A    between atoms: C_1  and  N_2
REMARK    2  A    between atoms: N_2  and  C_3
REMARK    3  A    between atoms: N_2  and  C_4
REMARK    4  A    between atoms: C_4  and  C_5
REMARK    5  A    between atoms: C_5  and  N_6
REMARK    6  A    between atoms: N_6  and  C_7
REMARK    7  A    between atoms: C_8  and  C_10
REMARK    8  A    between atoms: C_10  and  N_11
REMARK    9  A    between atoms: C_12  and  C_13
REMARK   10  A    between atoms: C_18  and  C_19
REMARK   11  A    between atoms: C_28  and  C_29
REMARK   12  A    between atoms: C_29  and  O_31
REMARK                            x       y       z     vdW  Elec       q    Type
REMARK                         _______ _______ _______ _____ _____    ______ ____
ROOT
ATOM      1  N   UNL     1      -1.719  12.159  19.061  0.00  0.00    +0.000 N 
ATOM      2  C   UNL     1      -2.330  12.701  20.178  0.00  0.00    +0.000 A 
ATOM      3  C   UNL     1      -3.714  12.711  19.945  0.00  0.00    +0.000 A 
ATOM      4  C   UNL     1      -3.912  12.104  18.640  0.00  0.00    +0.000 A 
ATOM      5  C   UNL     1      -5.028  11.790  17.829  0.00  0.00    +0.000 A 
ATOM      6  C   UNL     1      -4.895  11.190  16.573  0.00  0.00    +0.000 A 
ATOM      7  C   UNL     1      -3.634  10.878  16.090  0.00  0.00    +0.000 A 
ATOM      8  C   UNL     1      -2.499  11.149  16.867  0.00  0.00    +0.000 A 
ATOM      9  C   UNL     1      -2.659  11.768  18.126  0.00  0.00    +0.000 A 
ENDROOT
BRANCH   3  10
ATOM     10  C   UNL     1      -4.761  13.305  20.886  0.00  0.00    +0.000 C 
ATOM     11  C   UNL     1      -5.477  14.571  20.403  0.00  0.00    +0.000 C 
ATOM     12  C   UNL     1      -6.693  14.345  19.521  0.00  0.00    +0.000 C 
ATOM     13  C   UNL     1      -7.603  13.204  19.981  0.00  0.00    +0.000 C 
ATOM     14  C   UNL     1      -6.906  11.959  20.536  0.00  0.00    +0.000 C 
ATOM     15  C   UNL     1      -5.743  12.277  21.462  0.00  0.00    +0.000 C 
ENDBRANCH   3  10
BRANCH   2  16
ATOM     16  C   UNL     1      -1.606  13.194  21.402  0.00  0.00    +0.000 A 
ATOM     17  C   UNL     1      -1.164  14.512  21.706  0.00  0.00    +0.000 A 
ATOM     18  C   UNL     1      -0.554  14.447  22.937  0.00  0.00    +0.000 A 
ATOM     19  O   UNL     1      -0.573  13.176  23.410  0.00  0.00    +0.000 OA
ATOM     20  C   UNL     1      -1.208  12.427  22.475  0.00  0.00    +0.000 A 
ENDBRANCH   2  16
BRANCH   7  21
ATOM     21  C   UNL     1      -3.454  10.192  14.786  0.00  0.00    +0.000 C 
ATOM     22  O   UNL     1      -2.353   9.960  14.315  0.00  0.00    +0.000 OA
BRANCH  21  23
ATOM     23  O   UNL     1      -4.604   9.878  14.157  0.00  0.00    +0.000 OA
ATOM     24  H   UNL     1      -4.783   8.923  14.076  0.00  0.00    +0.000 HD
ENDBRANCH  21  23
ENDBRANCH   7  21
BRANCH   1  25
ATOM     25  C   UNL     1      -0.289  11.918  18.897  0.00  0.00    +0.000 C 
BRANCH  25  28
ATOM     26  N   UNL     1       1.280  10.002  18.749  0.00  0.00    +0.000 N 
ATOM     27  C   UNL     1       2.215  10.819  17.992  0.00  0.00    +0.000 C 
ATOM     28  C   UNL     1       0.093  10.499  19.285  0.00  0.00    +0.000 C 
ATOM     29  O   UNL     1      -0.603   9.811  20.036  0.00  0.00    +0.000 OA
BRANCH  26  30
ATOM     30  C   UNL     1       1.665   8.629  19.090  0.00  0.00    +0.000 C 
BRANCH  30  31
ATOM     31  C   UNL     1       2.551   7.927  18.029  0.00  0.00    +0.000 C 
BRANCH  31  33
ATOM     32  C   UNL     1       4.104   6.060  17.824  0.00  0.00    +0.000 C 
ATOM     33  N   UNL     1       2.755   6.471  18.211  0.00  0.00    +0.000 NA
ATOM     34  C   UNL     1       2.525   6.126  19.621  0.00  0.00    +0.000 C 
ENDBRANCH  31  33
ENDBRANCH  30  31
ENDBRANCH  26  30
ENDBRANCH  25  28
ENDBRANCH   1  25
TORSDOF 9
ENDMDL
MODEL 2
REMARK VINA RESULT:      -6.5      3.075      8.628
REMARK  Name = 
REMARK  12 active torsions:
REMARK  status: ('A' for Active; 'I' for Inactive)
REMARK    1  A    between atoms: C_1  and  N_2
REMARK    2  A    between atoms: N_2  and  C_3
REMARK    3  A    between atoms: N_2  and  C_4
REMARK    4  A    between atoms: C_4  and  C_5
REMARK    5  A    between atoms: C_5  and  N_6
REMARK    6  A    between atoms: N_6  and  C_7
REMARK    7  A    between atoms: C_8  and  C_10
REMARK    8  A    between atoms: C_10  and  N_11
REMARK    9  A    between atoms: C_12  and  C_13
REMARK   10  A    between atoms: C_18  and  C_19
REMARK   11  A    between atoms: C_28  and  C_29
REMARK   12  A    between atoms: C_29  and  O_31
REMARK                            x       y       z     vdW  Elec       q    Type
REMARK                         _______ _______ _______ _____ _____    ______ ____
ROOT
ATOM      1  N   UNL     1       2.499   7.908  18.953  0.00  0.00    +0.000 N 
ATOM      2  C   UNL     1       1.866   7.308  20.026  0.00  0.00    +0.000 A 
ATOM      3  C   UNL     1       2.131   5.932  19.965  0.00  0.00    +0.000 A 
ATOM      4  C   UNL     1       2.998   5.735  18.815  0.00  0.00    +0.000 A 
ATOM      5  C   UNL     1       3.641   4.630  18.210  0.00  0.00    +0.000 A 
ATOM      6  C   UNL     1       4.436   4.760  17.068  0.00  0.00    +0.000 A 
ATOM      7  C   UNL     1       4.619   6.009  16.496  0.00  0.00    +0.000 A 
ATOM      8  C   UNL     1       4.021   7.138  17.072  0.00  0.00    +0.000 A 
ATOM      9  C   UNL     1       3.210   6.979  18.218  0.00  0.00    +0.000 A 
ENDROOT
BRANCH   3  10
ATOM     10  C   UNL     1       1.554   4.880  20.911  0.00  0.00    +0.000 C 
ATOM     11  C   UNL     1       0.430   4.001  20.354  0.00  0.00    +0.000 C 
ATOM     12  C   UNL     1       0.875   2.769  19.583  0.00  0.00    +0.000 C 
ATOM     13  C   UNL     1       2.050   2.020  20.216  0.00  0.00    +0.000 C 
ATOM     14  C   UNL     1       3.148   2.883  20.844  0.00  0.00    +0.000 C 
ATOM     15  C   UNL     1       2.612   4.053  21.651  0.00  0.00    +0.000 C 
ENDBRANCH   3  10
BRANCH   2  16
ATOM     16  C   UNL     1       1.036   8.034  21.052  0.00  0.00    +0.000 A 
ATOM     17  C   UNL     1      -0.379   8.079  21.185  0.00  0.00    +0.000 A 
ATOM     18  C   UNL     1      -0.647   8.876  22.273  0.00  0.00    +0.000 A 
ATOM     19  O   UNL     1       0.506   9.341  22.815  0.00  0.00    +0.000 OA
ATOM     20  C   UNL     1       1.516   8.828  22.070  0.00  0.00    +0.000 A 
ENDBRANCH   2  16
BRANCH   7  21
ATOM     21  C   UNL     1       5.498   6.198  15.314  0.00  0.00    +0.000 C 
ATOM     22  O   UNL     1       6.548   5.593  15.177  0.00  0.00    +0.000 OA
BRANCH  21  23
ATOM     23  O   UNL     1       5.053   7.110  14.428  0.00  0.00    +0.000 OA
ATOM     24  H   UNL     1       5.703   7.382  13.754  0.00  0.00    +0.000 HD
ENDBRANCH  21  23
ENDBRANCH   7  21
BRANCH   1  25
ATOM     25  C   UNL     1       2.524   9.337  18.660  0.00  0.00    +0.000 C 
BRANCH  25  28
ATOM     26  N   UNL     1       0.728  11.027  18.934  0.00  0.00    +0.000 N 
ATOM     27  C   UNL     1       1.596  11.819  19.791  0.00  0.00    +0.000 C 
ATOM     28  C   UNL     1       1.146   9.862  18.291  0.00  0.00    +0.000 C 
ATOM     29  O   UNL     1       0.425   9.297  17.466  0.00  0.00    +0.000 OA
BRANCH  26  30
ATOM     30  C   UNL     1      -0.606  11.547  18.614  0.00  0.00    +0.000 C 
BRANCH  30  31
ATOM     31  C   UNL     1      -1.116  12.646  19.579  0.00  0.00    +0.000 C 
BRANCH  31  33
ATOM     32  C   UNL     1      -1.427  12.562  21.995  0.00  0.00    +0.000 C 
ATOM     33  N   UNL     1      -1.978  12.186  20.693  0.00  0.00    +0.000 NA
ATOM     34  C   UNL     1      -3.316  12.775  20.541  0.00  0.00    +0.000 C 
ENDBRANCH  31  33
ENDBRANCH  30  31
ENDBRANCH  26  30
ENDBRANCH  25  28
ENDBRANCH   1  25
TORSDOF 9
ENDMDL
MODEL 3
REMARK VINA RESULT:      -6.5      3.150      8.605
REMARK  Name = 
REMARK  12 active torsions:
REMARK  status: ('A' for Active; 'I' for Inactive)
REMARK    1  A    between atoms: C_1  and  N_2
REMARK    2  A    between atoms: N_2  and  C_3
REMARK    3  A    between atoms: N_2  and  C_4
REMARK    4  A    between atoms: C_4  and  C_5
REMARK    5  A    between atoms: C_5  and  N_6
REMARK    6  A    between atoms: N_6  and  C_7
REMARK    7  A    between atoms: C_8  and  C_10
REMARK    8  A    between atoms: C_10  and  N_11
REMARK    9  A    between atoms: C_12  and  C_13
REMARK   10  A    between atoms: C_18  and  C_19
REMARK   11  A    between atoms: C_28  and  C_29
REMARK   12  A    between atoms: C_29  and  O_31
REMARK                            x       y       z     vdW  Elec       q    Type
REMARK                         _______ _______ _______ _____ _____    ______ ____
ROOT
ATOM      1  N   UNL     1       2.497   7.866  18.994  0.00  0.00    +0.000 N 
ATOM      2  C   UNL     1       1.849   7.252  20.050  0.00  0.00    +0.000 A 
ATOM      3  C   UNL     1       2.123   5.878  19.981  0.00  0.00    +0.000 A 
ATOM      4  C   UNL     1       3.011   5.697  18.845  0.00  0.00    +0.000 A 
ATOM      5  C   UNL     1       3.671   4.601  18.241  0.00  0.00    +0.000 A 
ATOM      6  C   UNL     1       4.485   4.746  17.114  0.00  0.00    +0.000 A 
ATOM      7  C   UNL     1       4.671   6.001  16.557  0.00  0.00    +0.000 A 
ATOM      8  C   UNL     1       4.056   7.122  17.133  0.00  0.00    +0.000 A 
ATOM      9  C   UNL     1       3.227   6.947  18.263  0.00  0.00    +0.000 A 
ENDROOT
BRANCH   3  10
ATOM     10  C   UNL     1       1.536   4.814  20.907  0.00  0.00    +0.000 C 
ATOM     11  C   UNL     1       0.431   3.929  20.320  0.00  0.00    +0.000 C 
ATOM     12  C   UNL     1       0.904   2.707  19.551  0.00  0.00    +0.000 C 
ATOM     13  C   UNL     1       2.073   1.964  20.204  0.00  0.00    +0.000 C 
ATOM     14  C   UNL     1       3.149   2.832  20.860  0.00  0.00    +0.000 C 
ATOM     15  C   UNL     1       2.585   3.992  21.664  0.00  0.00    +0.000 C 
ENDBRANCH   3  10
BRANCH   2  16
ATOM     16  C   UNL     1       0.997   7.964  21.068  0.00  0.00    +0.000 A 
ATOM     17  C   UNL     1      -0.421   8.011  21.168  0.00  0.00    +0.000 A 
ATOM     18  C   UNL     1      -0.712   8.791  22.263  0.00  0.00    +0.000 A 
ATOM     19  O   UNL     1       0.429   9.245  22.839  0.00  0.00    +0.000 OA
ATOM     20  C   UNL     1       1.456   8.741  22.109  0.00  0.00    +0.000 A 
ENDBRANCH   2  16
BRANCH   7  21
ATOM     21  C   UNL     1       5.569   6.205  15.393  0.00  0.00    +0.000 C 
ATOM     22  O   UNL     1       5.217   6.805  14.391  0.00  0.00    +0.000 OA
BRANCH  21  23
ATOM     23  O   UNL     1       6.790   5.650  15.526  0.00  0.00    +0.000 OA
ATOM     24  H   UNL     1       6.917   4.810  15.046  0.00  0.00    +0.000 HD
ENDBRANCH  21  23
ENDBRANCH   7  21
BRANCH   1  25
ATOM     25  C   UNL     1       2.519   9.298  18.714  0.00  0.00    +0.000 C 
BRANCH  25  28
ATOM     26  N   UNL     1       0.607  10.878  18.679  0.00  0.00    +0.000 N 
ATOM     27  C   UNL     1       1.234  11.668  19.728  0.00  0.00    +0.000 C 
ATOM     28  C   UNL     1       1.216   9.771  18.090  0.00  0.00    +0.000 C 
ATOM     29  O   UNL     1       0.713   9.214  17.113  0.00  0.00    +0.000 OA
BRANCH  26  30
ATOM     30  C   UNL     1      -0.661  11.347  18.112  0.00  0.00    +0.000 C 
BRANCH  30  31
ATOM     31  C   UNL     1      -1.920  10.650  18.689  0.00  0.00    +0.000 C 
BRANCH  31  33
ATOM     32  C   UNL     1      -4.236  10.553  17.935  0.00  0.00    +0.000 C 
ATOM     33  N   UNL     1      -2.868  10.092  17.696  0.00  0.00    +0.000 NA
ATOM     34  C   UNL     1      -2.446  10.497  16.348  0.00  0.00    +0.000 C 
ENDBRANCH  31  33
ENDBRANCH  30  31
ENDBRANCH  26  30
ENDBRANCH  25  28
ENDBRANCH   1  25
TORSDOF 9
ENDMDL
MODEL 4
REMARK VINA RESULT:      -6.3      1.219      5.145
REMARK  Name = 
REMARK  12 active torsions:
REMARK  status: ('A' for Active; 'I' for Inactive)
REMARK    1  A    between atoms: C_1  and  N_2
REMARK    2  A    between atoms: N_2  and  C_3
REMARK    3  A    between atoms: N_2  and  C_4
REMARK    4  A    between atoms: C_4  and  C_5
REMARK    5  A    between atoms: C_5  and  N_6
REMARK    6  A    between atoms: N_6  and  C_7
REMARK    7  A    between atoms: C_8  and  C_10
REMARK    8  A    between atoms: C_10  and  N_11
REMARK    9  A    between atoms: C_12  and  C_13
REMARK   10  A    between atoms: C_18  and  C_19
REMARK   11  A    between atoms: C_28  and  C_29
REMARK   12  A    between atoms: C_29  and  O_31
REMARK                            x       y       z     vdW  Elec       q    Type
REMARK                         _______ _______ _______ _____ _____    ______ ____
ROOT
ATOM      1  N   UNL     1      -2.288  12.081  19.349  0.00  0.00    +0.000 N 
ATOM      2  C   UNL     1      -3.362  11.726  18.554  0.00  0.00    +0.000 A 
ATOM      3  C   UNL     1      -4.536  12.061  19.246  0.00  0.00    +0.000 A 
ATOM      4  C   UNL     1      -4.112  12.679  20.491  0.00  0.00    +0.000 A 
ATOM      5  C   UNL     1      -4.762  13.252  21.609  0.00  0.00    +0.000 A 
ATOM      6  C   UNL     1      -4.058  13.781  22.694  0.00  0.00    +0.000 A 
ATOM      7  C   UNL     1      -2.673  13.759  22.692  0.00  0.00    +0.000 A 
ATOM      8  C   UNL     1      -1.982  13.223  21.596  0.00  0.00    +0.000 A 
ATOM      9  C   UNL     1      -2.717  12.682  20.517  0.00  0.00    +0.000 A 
ENDROOT
BRANCH   3  10
ATOM     10  C   UNL     1      -5.956  11.763  18.768  0.00  0.00    +0.000 C 
ATOM     11  C   UNL     1      -6.332  10.286  18.615  0.00  0.00    +0.000 C 
ATOM     12  C   UNL     1      -6.830   9.597  19.874  0.00  0.00    +0.000 C 
ATOM     13  C   UNL     1      -7.789  10.442  20.717  0.00  0.00    +0.000 C 
ATOM     14  C   UNL     1      -7.470  11.935  20.820  0.00  0.00    +0.000 C 
ATOM     15  C   UNL     1      -7.045  12.557  19.500  0.00  0.00    +0.000 C 
ENDBRANCH   3  10
BRANCH   2  16
ATOM     16  C   UNL     1      -3.254  11.084  17.196  0.00  0.00    +0.000 A 
ATOM     17  C   UNL     1      -2.904   9.745  16.868  0.00  0.00    +0.000 A 
ATOM     18  C   UNL     1      -2.943   9.653  15.497  0.00  0.00    +0.000 A 
ATOM     19  O   UNL     1      -3.277  10.848  14.951  0.00  0.00    +0.000 OA
ATOM     20  C   UNL     1      -3.461  11.706  15.985  0.00  0.00    +0.000 A 
ENDBRANCH   2  16
BRANCH   7  21
ATOM     21  C   UNL     1      -1.888  14.359  23.800  0.00  0.00    +0.000 C 
ATOM     22  O   UNL     1      -0.688  14.561  23.717  0.00  0.00    +0.000 OA
BRANCH  21  23
ATOM     23  O   UNL     1      -2.605  14.630  24.908  0.00  0.00    +0.000 OA
ATOM     24  H   UNL     1      -2.885  15.560  25.002  0.00  0.00    +0.000 HD
ENDBRANCH  21  23
ENDBRANCH   7  21
BRANCH   1  25
ATOM     25  C   UNL     1      -0.878  11.952  18.996  0.00  0.00    +0.000 C 
BRANCH  25  28
ATOM     26  N   UNL     1       0.953  10.281  18.887  0.00  0.00    +0.000 N 
ATOM     27  C   UNL     1       1.827  11.271  18.276  0.00  0.00    +0.000 C 
ATOM     28  C   UNL     1      -0.335  10.572  19.333  0.00  0.00    +0.000 C 
ATOM     29  O   UNL     1      -0.991   9.744  19.969  0.00  0.00    +0.000 OA
BRANCH  26  30
ATOM     30  C   UNL     1       1.497   8.951  19.179  0.00  0.00    +0.000 C 
BRANCH  30  31
ATOM     31  C   UNL     1       2.232   8.281  17.991  0.00  0.00    +0.000 C 
BRANCH  31  33
ATOM     32  C   UNL     1       3.979   6.603  17.720  0.00  0.00    +0.000 C 
ATOM     33  N   UNL     1       2.615   6.862  18.179  0.00  0.00    +0.000 NA
ATOM     34  C   UNL     1       2.507   6.520  19.605  0.00  0.00    +0.000 C 
ENDBRANCH  31  33
ENDBRANCH  30  31
ENDBRANCH  26  30
ENDBRANCH  25  28
ENDBRANCH   1  25
TORSDOF 9
ENDMDL
MODEL 5
REMARK VINA RESULT:      -6.1      1.372      5.187
REMARK  Name = 
REMARK  12 active torsions:
REMARK  status: ('A' for Active; 'I' for Inactive)
REMARK    1  A    between atoms: C_1  and  N_2
REMARK    2  A    between atoms: N_2  and  C_3
REMARK    3  A    between atoms: N_2  and  C_4
REMARK    4  A    between atoms: C_4  and  C_5
REMARK    5  A    between atoms: C_5  and  N_6
REMARK    6  A    between atoms: N_6  and  C_7
REMARK    7  A    between atoms: C_8  and  C_10
REMARK    8  A    between atoms: C_10  and  N_11
REMARK    9  A    between atoms: C_12  and  C_13
REMARK   10  A    between atoms: C_18  and  C_19
REMARK   11  A    between atoms: C_28  and  C_29
REMARK   12  A    between atoms: C_29  and  O_31
REMARK                            x       y       z     vdW  Elec       q    Type
REMARK                         _______ _______ _______ _____ _____    ______ ____
ROOT
ATOM      1  N   UNL     1      -2.063  12.143  19.868  0.00  0.00    +0.000 N 
ATOM      2  C   UNL     1      -3.082  11.777  19.008  0.00  0.00    +0.000 A 
ATOM      3  C   UNL     1      -4.296  12.176  19.587  0.00  0.00    +0.000 A 
ATOM      4  C   UNL     1      -3.952  12.845  20.831  0.00  0.00    +0.000 A 
ATOM      5  C   UNL     1      -4.670  13.489  21.865  0.00  0.00    +0.000 A 
ATOM      6  C   UNL     1      -4.038  14.053  22.977  0.00  0.00    +0.000 A 
ATOM      7  C   UNL     1      -2.658  13.995  23.086  0.00  0.00    +0.000 A 
ATOM      8  C   UNL     1      -1.900  13.387  22.076  0.00  0.00    +0.000 A 
ATOM      9  C   UNL     1      -2.564  12.812  20.969  0.00  0.00    +0.000 A 
ENDROOT
BRANCH   3  10
ATOM     10  C   UNL     1      -5.682  11.893  19.012  0.00  0.00    +0.000 C 
ATOM     11  C   UNL     1      -6.773  11.501  20.015  0.00  0.00    +0.000 C 
ATOM     12  C   UNL     1      -7.507  12.656  20.676  0.00  0.00    +0.000 C 
ATOM     13  C   UNL     1      -7.859  13.805  19.727  0.00  0.00    +0.000 C 
ATOM     14  C   UNL     1      -6.810  14.161  18.670  0.00  0.00    +0.000 C 
ATOM     15  C   UNL     1      -6.175  12.946  18.013  0.00  0.00    +0.000 C 
ENDBRANCH   3  10
BRANCH   2  16
ATOM     16  C   UNL     1      -2.886  11.065  17.695  0.00  0.00    +0.000 A 
ATOM     17  C   UNL     1      -2.681   9.678  17.454  0.00  0.00    +0.000 A 
ATOM     18  C   UNL     1      -2.555   9.530  16.093  0.00  0.00    +0.000 A 
ATOM     19  O   UNL     1      -2.651  10.732  15.474  0.00  0.00    +0.000 OA
ATOM     20  C   UNL     1      -2.850  11.653  16.450  0.00  0.00    +0.000 A 
ENDBRANCH   2  16
BRANCH   7  21
ATOM     21  C   UNL     1      -1.945  14.628  24.224  0.00  0.00    +0.000 C 
ATOM     22  O   UNL     1      -0.744  14.842  24.206  0.00  0.00    +0.000 OA
BRANCH  21  23
ATOM     23  O   UNL     1      -2.728  14.917  25.282  0.00  0.00    +0.000 OA
ATOM     24  H   UNL     1      -3.560  15.378  25.067  0.00  0.00    +0.000 HD
ENDBRANCH  21  23
ENDBRANCH   7  21
BRANCH   1  25
ATOM     25  C   UNL     1      -0.634  11.959  19.635  0.00  0.00    +0.000 C 
BRANCH  25  28
ATOM     26  N   UNL     1       0.712   9.885  19.424  0.00  0.00    +0.000 N 
ATOM     27  C   UNL     1       1.234  10.347  18.148  0.00  0.00    +0.000 C 
ATOM     28  C   UNL     1      -0.128  10.654  20.229  0.00  0.00    +0.000 C 
ATOM     29  O   UNL     1      -0.436  10.284  21.364  0.00  0.00    +0.000 OA
BRANCH  26  30
ATOM     30  C   UNL     1       1.200   8.611  19.962  0.00  0.00    +0.000 C 
BRANCH  30  31
ATOM     31  C   UNL     1       2.220   7.878  19.054  0.00  0.00    +0.000 C 
BRANCH  31  33
ATOM     32  C   UNL     1       1.863   6.079  20.660  0.00  0.00    +0.000 C 
ATOM     33  N   UNL     1       2.626   6.523  19.494  0.00  0.00    +0.000 NA
ATOM     34  C   UNL     1       2.421   5.577  18.388  0.00  0.00    +0.000 C 
ENDBRANCH  31  33
ENDBRANCH  30  31
ENDBRANCH  26  30
ENDBRANCH  25  28
ENDBRANCH   1  25
TORSDOF 9
ENDMDL
MODEL 6
REMARK VINA RESULT:      -6.1      2.738      6.785
REMARK  Name = 
REMARK  12 active torsions:
REMARK  status: ('A' for Active; 'I' for Inactive)
REMARK    1  A    between atoms: C_1  and  N_2
REMARK    2  A    between atoms: N_2  and  C_3
REMARK    3  A    between atoms: N_2  and  C_4
REMARK    4  A    between atoms: C_4  and  C_5
REMARK    5  A    between atoms: C_5  and  N_6
REMARK    6  A    between atoms: N_6  and  C_7
REMARK    7  A    between atoms: C_8  and  C_10
REMARK    8  A    between atoms: C_10  and  N_11
REMARK    9  A    between atoms: C_12  and  C_13
REMARK   10  A    between atoms: C_18  and  C_19
REMARK   11  A    between atoms: C_28  and  C_29
REMARK   12  A    between atoms: C_29  and  O_31
REMARK                            x       y       z     vdW  Elec       q    Type
REMARK                         _______ _______ _______ _____ _____    ______ ____
ROOT
ATOM      1  N   UNL     1      -3.017  12.790  20.079  0.00  0.00    +0.000 N 
ATOM      2  C   UNL     1      -2.156  12.657  21.153  0.00  0.00    +0.000 A 
ATOM      3  C   UNL     1      -1.251  11.629  20.851  0.00  0.00    +0.000 A 
ATOM      4  C   UNL     1      -1.585  11.172  19.513  0.00  0.00    +0.000 A 
ATOM      5  C   UNL     1      -1.074  10.204  18.616  0.00  0.00    +0.000 A 
ATOM      6  C   UNL     1      -1.631   9.985  17.353  0.00  0.00    +0.000 A 
ATOM      7  C   UNL     1      -2.721  10.737  16.943  0.00  0.00    +0.000 A 
ATOM      8  C   UNL     1      -3.249  11.724  17.786  0.00  0.00    +0.000 A 
ATOM      9  C   UNL     1      -2.677  11.916  19.063  0.00  0.00    +0.000 A 
ENDROOT
BRANCH   3  10
ATOM     10  C   UNL     1      -0.178  11.093  21.798  0.00  0.00    +0.000 C 
ATOM     11  C   UNL     1      -0.607   9.980  22.759  0.00  0.00    +0.000 C 
ATOM     12  C   UNL     1      -0.536   8.566  22.206  0.00  0.00    +0.000 C 
ATOM     13  C   UNL     1       0.715   8.277  21.373  0.00  0.00    +0.000 C 
ATOM     14  C   UNL     1       1.201   9.406  20.461  0.00  0.00    +0.000 C 
ATOM     15  C   UNL     1       1.159  10.776  21.117  0.00  0.00    +0.000 C 
ENDBRANCH   3  10
BRANCH   2  16
ATOM     16  C   UNL     1      -2.217  13.480  22.413  0.00  0.00    +0.000 A 
ATOM     17  C   UNL     1      -1.466  14.637  22.760  0.00  0.00    +0.000 A 
ATOM     18  C   UNL     1      -1.885  15.016  24.014  0.00  0.00    +0.000 A 
ATOM     19  O   UNL     1      -2.833  14.163  24.475  0.00  0.00    +0.000 OA
ATOM     20  C   UNL     1      -3.026  13.238  23.502  0.00  0.00    +0.000 A 
ENDBRANCH   2  16
BRANCH   7  21
ATOM     21  C   UNL     1      -3.308  10.572  15.590  0.00  0.00    +0.000 C 
ATOM     22  O   UNL     1      -2.630  10.321  14.608  0.00  0.00    +0.000 OA
BRANCH  21  23
ATOM     23  O   UNL     1      -4.643  10.751  15.535  0.00  0.00    +0.000 OA
ATOM     24  H   UNL     1      -4.932  11.573  15.098  0.00  0.00    +0.000 HD
ENDBRANCH  21  23
ENDBRANCH   7  21
BRANCH   1  25
ATOM     25  C   UNL     1      -4.087  13.774  19.952  0.00  0.00    +0.000 C 
BRANCH  25  28
ATOM     26  N   UNL     1      -6.182  13.907  21.273  0.00  0.00    +0.000 N 
ATOM     27  C   UNL     1      -5.800  15.223  21.758  0.00  0.00    +0.000 C 
ATOM     28  C   UNL     1      -5.438  13.193  20.335  0.00  0.00    +0.000 C 
ATOM     29  O   UNL     1      -5.866  12.145  19.847  0.00  0.00    +0.000 OA
BRANCH  26  30
ATOM     30  C   UNL     1      -7.482  13.360  21.678  0.00  0.00    +0.000 C 
BRANCH  30  31
ATOM     31  C   UNL     1      -7.399  12.141  22.631  0.00  0.00    +0.000 C 
BRANCH  31  33
ATOM     32  C   UNL     1      -6.044  12.357  24.645  0.00  0.00    +0.000 C 
ATOM     33  N   UNL     1      -7.390  12.447  24.080  0.00  0.00    +0.000 NA
ATOM     34  C   UNL     1      -7.916  13.803  24.288  0.00  0.00    +0.000 C 
ENDBRANCH  31  33
ENDBRANCH  30  31
ENDBRANCH  26  30
ENDBRANCH  25  28
ENDBRANCH   1  25
TORSDOF 9
ENDMDL
MODEL 7
REMARK VINA RESULT:      -6.0      1.789      5.325
REMARK  Name = 
REMARK  12 active torsions:
REMARK  status: ('A' for Active; 'I' for Inactive)
REMARK    1  A    between atoms: C_1  and  N_2
REMARK    2  A    between atoms: N_2  and  C_3
REMARK    3  A    between atoms: N_2  and  C_4
REMARK    4  A    between atoms: C_4  and  C_5
REMARK    5  A    between atoms: C_5  and  N_6
REMARK    6  A    between atoms: N_6  and  C_7
REMARK    7  A    between atoms: C_8  and  C_10
REMARK    8  A    between atoms: C_10  and  N_11
REMARK    9  A    between atoms: C_12  and  C_13
REMARK   10  A    between atoms: C_18  and  C_19
REMARK   11  A    between atoms: C_28  and  C_29
REMARK   12  A    between atoms: C_29  and  O_31
REMARK                            x       y       z     vdW  Elec       q    Type
REMARK                         _______ _______ _______ _____ _____    ______ ____
ROOT
ATOM      1  N   UNL     1      -2.764  12.340  20.034  0.00  0.00    +0.000 N 
ATOM      2  C   UNL     1      -3.736  11.864  19.172  0.00  0.00    +0.000 A 
ATOM      3  C   UNL     1      -4.988  12.151  19.738  0.00  0.00    +0.000 A 
ATOM      4  C   UNL     1      -4.721  12.869  20.973  0.00  0.00    +0.000 A 
ATOM      5  C   UNL     1      -5.507  13.455  21.993  0.00  0.00    +0.000 A 
ATOM      6  C   UNL     1      -4.941  14.095  23.100  0.00  0.00    +0.000 A 
ATOM      7  C   UNL     1      -3.563  14.173  23.219  0.00  0.00    +0.000 A 
ATOM      8  C   UNL     1      -2.741  13.626  22.223  0.00  0.00    +0.000 A 
ATOM      9  C   UNL     1      -3.337  12.973  21.121  0.00  0.00    +0.000 A 
ENDROOT
BRANCH   3  10
ATOM     10  C   UNL     1      -6.336  11.726  19.158  0.00  0.00    +0.000 C 
ATOM     11  C   UNL     1      -6.451  10.271  18.690  0.00  0.00    +0.000 C 
ATOM     12  C   UNL     1      -6.823   9.261  19.763  0.00  0.00    +0.000 C 
ATOM     13  C   UNL     1      -7.913   9.737  20.726  0.00  0.00    +0.000 C 
ATOM     14  C   UNL     1      -7.856  11.208  21.146  0.00  0.00    +0.000 C 
ATOM     15  C   UNL     1      -7.544  12.154  19.999  0.00  0.00    +0.000 C 
ENDBRANCH   3  10
BRANCH   2  16
ATOM     16  C   UNL     1      -3.462  11.155  17.873  0.00  0.00    +0.000 A 
ATOM     17  C   UNL     1      -3.774  11.569  16.548  0.00  0.00    +0.000 A 
ATOM     18  C   UNL     1      -3.323  10.576  15.710  0.00  0.00    +0.000 A 
ATOM     19  O   UNL     1      -2.767   9.567  16.425  0.00  0.00    +0.000 OA
ATOM     20  C   UNL     1      -2.857   9.925  17.730  0.00  0.00    +0.000 A 
ENDBRANCH   2  16
BRANCH   7  21
ATOM     21  C   UNL     1      -2.923  14.889  24.351  0.00  0.00    +0.000 C 
ATOM     22  O   UNL     1      -2.049  15.723  24.188  0.00  0.00    +0.000 OA
BRANCH  21  23
ATOM     23  O   UNL     1      -3.369  14.519  25.568  0.00  0.00    +0.000 OA
ATOM     24  H   UNL     1      -2.673  14.336  26.225  0.00  0.00    +0.000 HD
ENDBRANCH  21  23
ENDBRANCH   7  21
BRANCH   1  25
ATOM     25  C   UNL     1      -1.323  12.293  19.813  0.00  0.00    +0.000 C 
BRANCH  25  28
ATOM     26  N   UNL     1       0.276  10.404  19.627  0.00  0.00    +0.000 N 
ATOM     27  C   UNL     1       0.822  10.980  18.408  0.00  0.00    +0.000 C 
ATOM     28  C   UNL     1      -0.703  11.032  20.395  0.00  0.00    +0.000 C 
ATOM     29  O   UNL     1      -1.039  10.579  21.491  0.00  0.00    +0.000 OA
BRANCH  26  30
ATOM     30  C   UNL     1       0.878   9.175  20.153  0.00  0.00    +0.000 C 
BRANCH  30  31
ATOM     31  C   UNL     1       1.767   8.409  19.140  0.00  0.00    +0.000 C 
BRANCH  31  33
ATOM     32  C   UNL     1       1.646   6.464  20.604  0.00  0.00    +0.000 C 
ATOM     33  N   UNL     1       2.476   7.219  19.666  0.00  0.00    +0.000 NA
ATOM     34  C   UNL     1       2.857   6.352  18.543  0.00  0.00    +0.000 C 
ENDBRANCH  31  33
ENDBRANCH  30  31
ENDBRANCH  26  30
ENDBRANCH  25  28
ENDBRANCH   1  25
TORSDOF 9
ENDMDL
MODEL 8
REMARK VINA RESULT:      -6.0      2.952      6.252
REMARK  Name = 
REMARK  12 active torsions:
REMARK  status: ('A' for Active; 'I' for Inactive)
REMARK    1  A    between atoms: C_1  and  N_2
REMARK    2  A    between atoms: N_2  and  C_3
REMARK    3  A    between atoms: N_2  and  C_4
REMARK    4  A    between atoms: C_4  and  C_5
REMARK    5  A    between atoms: C_5  and  N_6
REMARK    6  A    between atoms: N_6  and  C_7
REMARK    7  A    between atoms: C_8  and  C_10
REMARK    8  A    between atoms: C_10  and  N_11
REMARK    9  A    between atoms: C_12  and  C_13
REMARK   10  A    between atoms: C_18  and  C_19
REMARK   11  A    between atoms: C_28  and  C_29
REMARK   12  A    between atoms: C_29  and  O_31
REMARK                            x       y       z     vdW  Elec       q    Type
REMARK                         _______ _______ _______ _____ _____    ______ ____
ROOT
ATOM      1  N   UNL     1      -2.051  12.170  19.919  0.00  0.00    +0.000 N 
ATOM      2  C   UNL     1      -3.103  11.849  19.080  0.00  0.00    +0.000 A 
ATOM      3  C   UNL     1      -4.285  12.308  19.682  0.00  0.00    +0.000 A 
ATOM      4  C   UNL     1      -3.885  12.964  20.916  0.00  0.00    +0.000 A 
ATOM      5  C   UNL     1      -4.551  13.646  21.961  0.00  0.00    +0.000 A 
ATOM      6  C   UNL     1      -3.870  14.184  23.057  0.00  0.00    +0.000 A 
ATOM      7  C   UNL     1      -2.492  14.061  23.139  0.00  0.00    +0.000 A 
ATOM      8  C   UNL     1      -1.785  13.414  22.116  0.00  0.00    +0.000 A 
ATOM      9  C   UNL     1      -2.497  12.867  21.026  0.00  0.00    +0.000 A 
ENDROOT
BRANCH   3  10
ATOM     10  C   UNL     1      -5.695  12.088  19.137  0.00  0.00    +0.000 C 
ATOM     11  C   UNL     1      -6.672  11.338  20.048  0.00  0.00    +0.000 C 
ATOM     12  C   UNL     1      -7.417  12.191  21.061  0.00  0.00    +0.000 C 
ATOM     13  C   UNL     1      -7.916  13.530  20.512  0.00  0.00    +0.000 C 
ATOM     14  C   UNL     1      -6.983  14.258  19.541  0.00  0.00    +0.000 C 
ATOM     15  C   UNL     1      -6.332  13.339  18.521  0.00  0.00    +0.000 C 
ENDBRANCH   3  10
BRANCH   2  16
ATOM     16  C   UNL     1      -2.968  11.124  17.768  0.00  0.00    +0.000 A 
ATOM     17  C   UNL     1      -3.441  11.510  16.483  0.00  0.00    +0.000 A 
ATOM     18  C   UNL     1      -3.070  10.512  15.612  0.00  0.00    +0.000 A 
ATOM     19  O   UNL     1      -2.415   9.525  16.272  0.00  0.00    +0.000 OA
ATOM     20  C   UNL     1      -2.360   9.903  17.574  0.00  0.00    +0.000 A 
ENDBRANCH   2  16
BRANCH   7  21
ATOM     21  C   UNL     1      -1.727  14.664  24.259  0.00  0.00    +0.000 C 
ATOM     22  O   UNL     1      -0.528  14.878  24.192  0.00  0.00    +0.000 OA
BRANCH  21  23
ATOM     23  O   UNL     1      -2.461  14.926  25.358  0.00  0.00    +0.000 OA
ATOM     24  H   UNL     1      -2.384  14.268  26.073  0.00  0.00    +0.000 HD
ENDBRANCH  21  23
ENDBRANCH   7  21
BRANCH   1  25
ATOM     25  C   UNL     1      -0.637  11.919  19.658  0.00  0.00    +0.000 C 
BRANCH  25  28
ATOM     26  N   UNL     1       1.152  13.632  19.524  0.00  0.00    +0.000 N 
ATOM     27  C   UNL     1       1.802  13.052  20.688  0.00  0.00    +0.000 C 
ATOM     28  C   UNL     1       0.018  13.081  18.929  0.00  0.00    +0.000 C 
ATOM     29  O   UNL     1      -0.420  13.522  17.865  0.00  0.00    +0.000 OA
BRANCH  26  30
ATOM     30  C   UNL     1       1.795  14.768  18.855  0.00  0.00    +0.000 C 
BRANCH  30  31
ATOM     31  C   UNL     1       3.056  14.400  18.032  0.00  0.00    +0.000 C 
BRANCH  31  33
ATOM     32  C   UNL     1       3.059  16.761  17.427  0.00  0.00    +0.000 C 
ATOM     33  N   UNL     1       3.856  15.538  17.522  0.00  0.00    +0.000 NA
ATOM     34  C   UNL     1       4.994  15.768  18.424  0.00  0.00    +0.000 C 
ENDBRANCH  31  33
ENDBRANCH  30  31
ENDBRANCH  26  30
ENDBRANCH  25  28
ENDBRANCH   1  25
TORSDOF 9
ENDMDL
MODEL 9
REMARK VINA RESULT:      -5.9      2.962      6.621
REMARK  Name = 
REMARK  12 active torsions:
REMARK  status: ('A' for Active; 'I' for Inactive)
REMARK    1  A    between atoms: C_1  and  N_2
REMARK    2  A    between atoms: N_2  and  C_3
REMARK    3  A    between atoms: N_2  and  C_4
REMARK    4  A    between atoms: C_4  and  C_5
REMARK    5  A    between atoms: C_5  and  N_6
REMARK    6  A    between atoms: N_6  and  C_7
REMARK    7  A    between atoms: C_8  and  C_10
REMARK    8  A    between atoms: C_10  and  N_11
REMARK    9  A    between atoms: C_12  and  C_13
REMARK   10  A    between atoms: C_18  and  C_19
REMARK   11  A    between atoms: C_28  and  C_29
REMARK   12  A    between atoms: C_29  and  O_31
REMARK                            x       y       z     vdW  Elec       q    Type
REMARK                         _______ _______ _______ _____ _____    ______ ____
ROOT
ATOM      1  N   UNL     1      -2.046  12.197  19.922  0.00  0.00    +0.000 N 
ATOM      2  C   UNL     1      -3.093  11.856  19.085  0.00  0.00    +0.000 A 
ATOM      3  C   UNL     1      -4.283  12.288  19.690  0.00  0.00    +0.000 A 
ATOM      4  C   UNL     1      -3.895  12.950  20.924  0.00  0.00    +0.000 A 
ATOM      5  C   UNL     1      -4.573  13.615  21.972  0.00  0.00    +0.000 A 
ATOM      6  C   UNL     1      -3.902  14.165  23.068  0.00  0.00    +0.000 A 
ATOM      7  C   UNL     1      -2.522  14.071  23.147  0.00  0.00    +0.000 A 
ATOM      8  C   UNL     1      -1.802  13.441  22.122  0.00  0.00    +0.000 A 
ATOM      9  C   UNL     1      -2.505  12.882  21.031  0.00  0.00    +0.000 A 
ENDROOT
BRANCH   3  10
ATOM     10  C   UNL     1      -5.689  12.039  19.146  0.00  0.00    +0.000 C 
ATOM     11  C   UNL     1      -6.677  11.350  20.092  0.00  0.00    +0.000 C 
ATOM     12  C   UNL     1      -7.428  12.266  21.045  0.00  0.00    +0.000 C 
ATOM     13  C   UNL     1      -7.917  13.570  20.410  0.00  0.00    +0.000 C 
ATOM     14  C   UNL     1      -6.972  14.235  19.405  0.00  0.00    +0.000 C 
ATOM     15  C   UNL     1      -6.316  13.252  18.449  0.00  0.00    +0.000 C 
ENDBRANCH   3  10
BRANCH   2  16
ATOM     16  C   UNL     1      -2.945  11.137  17.770  0.00  0.00    +0.000 A 
ATOM     17  C   UNL     1      -3.500  11.470  16.504  0.00  0.00    +0.000 A 
ATOM     18  C   UNL     1      -3.076  10.503  15.622  0.00  0.00    +0.000 A 
ATOM     19  O   UNL     1      -2.309   9.584  16.259  0.00  0.00    +0.000 OA
ATOM     20  C   UNL     1      -2.237   9.975  17.556  0.00  0.00    +0.000 A 
ENDBRANCH   2  16
BRANCH   7  21
ATOM     21  C   UNL     1      -1.768  14.687  24.267  0.00  0.00    +0.000 C 
ATOM     22  O   UNL     1      -2.293  14.977  25.329  0.00  0.00    +0.000 OA
BRANCH  21  23
ATOM     23  O   UNL     1      -0.468  14.924  24.001  0.00  0.00    +0.000 OA
ATOM     24  H   UNL     1      -0.213  15.865  23.991  0.00  0.00    +0.000 HD
ENDBRANCH  21  23
ENDBRANCH   7  21
BRANCH   1  25
ATOM     25  C   UNL     1      -0.628  11.977  19.658  0.00  0.00    +0.000 C 
BRANCH  25  28
ATOM     26  N   UNL     1       1.067  13.783  19.521  0.00  0.00    +0.000 N 
ATOM     27  C   UNL     1       1.694  13.294  20.738  0.00  0.00    +0.000 C 
ATOM     28  C   UNL     1      -0.006  13.141  18.904  0.00  0.00    +0.000 C 
ATOM     29  O   UNL     1      -0.419  13.509  17.802  0.00  0.00    +0.000 OA
BRANCH  26  30
ATOM     30  C   UNL     1       1.676  14.923  18.828  0.00  0.00    +0.000 C 
BRANCH  30  31
ATOM     31  C   UNL     1       1.079  16.302  19.209  0.00  0.00    +0.000 C 
BRANCH  31  33
ATOM     32  C   UNL     1      -1.226  17.090  19.128  0.00  0.00    +0.000 C 
ATOM     33  N   UNL     1      -0.023  16.795  18.350  0.00  0.00    +0.000 NA
ATOM     34  C   UNL     1       0.418  18.012  17.654  0.00  0.00    +0.000 C 
ENDBRANCH  31  33
ENDBRANCH  30  31
ENDBRANCH  26  30
ENDBRANCH  25  28
ENDBRANCH   1  25
TORSDOF 9
ENDMDL
