MODEL 1
REMARK VINA RESULT:      -8.0      0.000      0.000
REMARK  Name = 
REMARK  10 active torsions:
REMARK  status: ('A' for Active; 'I' for Inactive)
REMARK    1  A    between atoms: C_1  and  C_2
REMARK    2  A    between atoms: C_5  and  C_6
REMARK    3  A    between atoms: C_7  and  N_8
REMARK    4  A    between atoms: N_8  and  S_9
REMARK    5  A    between atoms: S_9  and  C_12
REMARK    6  A    between atoms: C_15  and  O_16
REMARK    7  A    between atoms: O_16  and  C_17
REMARK    8  A    between atoms: C_17  and  C_18
REMARK    9  A    between atoms: N_20  and  C_21
REMARK   10  A    between atoms: C_21  and  C_22
REMARK                            x       y       z     vdW  Elec       q    Type
REMARK                         _______ _______ _______ _____ _____    ______ ____
ROOT
ATOM      1  C   UNL     1       1.565   7.511  20.455  0.00  0.00    +0.000 A 
ATOM      2  C   UNL     1       2.203   7.732  19.235  0.00  0.00    +0.000 A 
ATOM      3  C   UNL     1       2.778   6.656  18.558  0.00  0.00    +0.000 A 
ATOM      4  C   UNL     1       2.723   5.366  19.092  0.00  0.00    +0.000 A 
ATOM      5  C   UNL     1       2.089   5.149  20.314  0.00  0.00    +0.000 A 
ATOM      6  C   UNL     1       1.543   6.229  21.015  0.00  0.00    +0.000 A 
ENDROOT
BRANCH   1   7
ATOM      7  S   UNL     1       0.842   8.879  21.334  0.00  0.00    +0.000 S 
ATOM      8  O   UNL     1       1.771   9.265  22.376  0.00  0.00    +0.000 OA
ATOM      9  O   UNL     1      -0.520   8.510  21.651  0.00  0.00    +0.000 OA
BRANCH   7  10
ATOM     10  N   UNL     1       0.872  10.150  20.235  0.00  0.00    +0.000 N 
ATOM     11  H   UNL     1       1.735  10.686  20.189  0.00  0.00    +0.000 HD
BRANCH  10  18
ATOM     12  C   UNL     1      -2.367   9.947  16.554  0.00  0.00    +0.000 C 
ATOM     13  C   UNL     1      -1.909  10.585  17.831  0.00  0.00    +0.000 A 
ATOM     14  C   UNL     1      -2.671  11.571  18.461  0.00  0.00    +0.000 A 
ATOM     15  C   UNL     1      -2.241  12.128  19.669  0.00  0.00    +0.000 A 
ATOM     16  C   UNL     1      -1.059  11.693  20.288  0.00  0.00    +0.000 A 
ATOM     17  C   UNL     1      -0.633  12.343  21.576  0.00  0.00    +0.000 C 
ATOM     18  C   UNL     1      -0.316  10.677  19.670  0.00  0.00    +0.000 A 
ATOM     19  C   UNL     1      -0.717  10.168  18.429  0.00  0.00    +0.000 A 
ENDBRANCH  10  18
ENDBRANCH   7  10
ENDBRANCH   1   7
BRANCH   4  20
ATOM     20  O   UNL     1       3.313   4.405  18.322  0.00  0.00    +0.000 OA
BRANCH  20  21
ATOM     21  C   UNL     1       4.423   3.719  18.898  0.00  0.00    +0.000 C 
BRANCH  21  22
ATOM     22  C   UNL     1       5.738   4.294  18.370  0.00  0.00    +0.000 C 
ATOM     23  O   UNL     1       6.552   4.843  19.112  0.00  0.00    +0.000 OA
ATOM     24  N   UNL     1       5.933   4.144  17.019  0.00  0.00    +0.000 N 
ATOM     25  H   UNL     1       5.147   3.821  16.463  0.00  0.00    +0.000 HD
BRANCH  24  26
ATOM     26  C   UNL     1       7.048   4.748  16.333  0.00  0.00    +0.000 C 
BRANCH  26  27
ATOM     27  C   UNL     1       6.893   4.522  14.876  0.00  0.00    +0.000 A 
ATOM     28  C   UNL     1       7.532   5.038  13.767  0.00  0.00    +0.000 A 
ATOM     29  C   UNL     1       6.929   4.434  12.637  0.00  0.00    +0.000 A 
ATOM     30  C   UNL     1       5.965   3.585  13.128  0.00  0.00    +0.000 A 
ATOM     31  O   UNL     1       5.934   3.629  14.486  0.00  0.00    +0.000 OA
ENDBRANCH  26  27
ENDBRANCH  24  26
ENDBRANCH  21  22
ENDBRANCH  20  21
ENDBRANCH   4  20
TORSDOF 8
ENDMDL
MODEL 2
REMARK VINA RESULT:      -8.0      2.256      4.005
REMARK  Name = 
REMARK  10 active torsions:
REMARK  status: ('A' for Active; 'I' for Inactive)
REMARK    1  A    between atoms: C_1  and  C_2
REMARK    2  A    between atoms: C_5  and  C_6
REMARK    3  A    between atoms: C_7  and  N_8
REMARK    4  A    between atoms: N_8  and  S_9
REMARK    5  A    between atoms: S_9  and  C_12
REMARK    6  A    between atoms: C_15  and  O_16
REMARK    7  A    between atoms: O_16  and  C_17
REMARK    8  A    between atoms: C_17  and  C_18
REMARK    9  A    between atoms: N_20  and  C_21
REMARK   10  A    between atoms: C_21  and  C_22
REMARK                            x       y       z     vdW  Elec       q    Type
REMARK                         _______ _______ _______ _____ _____    ______ ____
ROOT
ATOM      1  C   UNL     1       1.659   8.498  19.638  0.00  0.00    +0.000 A 
ATOM      2  C   UNL     1       2.086   8.978  18.401  0.00  0.00    +0.000 A 
ATOM      3  C   UNL     1       2.918   8.185  17.610  0.00  0.00    +0.000 A 
ATOM      4  C   UNL     1       3.328   6.923  18.046  0.00  0.00    +0.000 A 
ATOM      5  C   UNL     1       2.903   6.449  19.286  0.00  0.00    +0.000 A 
ATOM      6  C   UNL     1       2.099   7.254  20.100  0.00  0.00    +0.000 A 
ENDROOT
BRANCH   1   7
ATOM      7  S   UNL     1       0.609   9.507  20.662  0.00  0.00    +0.000 S 
ATOM      8  O   UNL     1       1.424  10.023  21.743  0.00  0.00    +0.000 OA
ATOM      9  O   UNL     1      -0.587   8.741  20.932  0.00  0.00    +0.000 OA
BRANCH   7  10
ATOM     10  N   UNL     1       0.254  10.846  19.711  0.00  0.00    +0.000 N 
ATOM     11  H   UNL     1       0.899  11.630  19.777  0.00  0.00    +0.000 HD
BRANCH  10  18
ATOM     12  C   UNL     1      -2.789   9.753  16.021  0.00  0.00    +0.000 C 
ATOM     13  C   UNL     1      -2.526  10.504  17.291  0.00  0.00    +0.000 A 
ATOM     14  C   UNL     1      -3.525  11.262  17.905  0.00  0.00    +0.000 A 
ATOM     15  C   UNL     1      -3.266  11.926  19.107  0.00  0.00    +0.000 A 
ATOM     16  C   UNL     1      -2.016  11.826  19.736  0.00  0.00    +0.000 A 
ATOM     17  C   UNL     1      -1.785  12.580  21.017  0.00  0.00    +0.000 C 
ATOM     18  C   UNL     1      -1.027  11.034  19.135  0.00  0.00    +0.000 A 
ATOM     19  C   UNL     1      -1.270  10.424  17.899  0.00  0.00    +0.000 A 
ENDBRANCH  10  18
ENDBRANCH   7  10
ENDBRANCH   1   7
BRANCH   4  20
ATOM     20  O   UNL     1       4.129   6.249  17.170  0.00  0.00    +0.000 OA
BRANCH  20  21
ATOM     21  C   UNL     1       5.184   5.473  17.739  0.00  0.00    +0.000 C 
BRANCH  21  22
ATOM     22  C   UNL     1       4.716   4.040  17.992  0.00  0.00    +0.000 C 
ATOM     23  O   UNL     1       4.137   3.382  17.128  0.00  0.00    +0.000 OA
ATOM     24  N   UNL     1       4.994   3.554  19.247  0.00  0.00    +0.000 N 
ATOM     25  H   UNL     1       5.331   4.213  19.942  0.00  0.00    +0.000 HD
BRANCH  24  26
ATOM     26  C   UNL     1       4.502   2.277  19.702  0.00  0.00    +0.000 C 
BRANCH  26  27
ATOM     27  C   UNL     1       3.152   2.463  20.285  0.00  0.00    +0.000 A 
ATOM     28  C   UNL     1       1.888   2.535  19.737  0.00  0.00    +0.000 A 
ATOM     29  C   UNL     1       0.992   2.730  20.815  0.00  0.00    +0.000 A 
ATOM     30  C   UNL     1       1.765   2.759  21.952  0.00  0.00    +0.000 A 
ATOM     31  O   UNL     1       3.078   2.599  21.644  0.00  0.00    +0.000 OA
ENDBRANCH  26  27
ENDBRANCH  24  26
ENDBRANCH  21  22
ENDBRANCH  20  21
ENDBRANCH   4  20
TORSDOF 8
ENDMDL
MODEL 3
REMARK VINA RESULT:      -8.0      2.251      9.068
REMARK  Name = 
REMARK  10 active torsions:
REMARK  status: ('A' for Active; 'I' for Inactive)
REMARK    1  A    between atoms: C_1  and  C_2
REMARK    2  A    between atoms: C_5  and  C_6
REMARK    3  A    between atoms: C_7  and  N_8
REMARK    4  A    between atoms: N_8  and  S_9
REMARK    5  A    between atoms: S_9  and  C_12
REMARK    6  A    between atoms: C_15  and  O_16
REMARK    7  A    between atoms: O_16  and  C_17
REMARK    8  A    between atoms: C_17  and  C_18
REMARK    9  A    between atoms: N_20  and  C_21
REMARK   10  A    between atoms: C_21  and  C_22
REMARK                            x       y       z     vdW  Elec       q    Type
REMARK                         _______ _______ _______ _____ _____    ______ ____
ROOT
ATOM      1  C   UNL     1       2.466   4.924  18.871  0.00  0.00    +0.000 A 
ATOM      2  C   UNL     1       2.673   6.055  18.082  0.00  0.00    +0.000 A 
ATOM      3  C   UNL     1       2.421   7.319  18.617  0.00  0.00    +0.000 A 
ATOM      4  C   UNL     1       1.962   7.460  19.929  0.00  0.00    +0.000 A 
ATOM      5  C   UNL     1       1.751   6.327  20.713  0.00  0.00    +0.000 A 
ATOM      6  C   UNL     1       1.967   5.056  20.171  0.00  0.00    +0.000 A 
ENDROOT
BRANCH   1   7
ATOM      7  S   UNL     1       2.770   3.307  18.194  0.00  0.00    +0.000 S 
ATOM      8  O   UNL     1       2.428   3.355  16.787  0.00  0.00    +0.000 OA
ATOM      9  O   UNL     1       2.145   2.349  19.080  0.00  0.00    +0.000 OA
BRANCH   7  10
ATOM     10  N   UNL     1       4.442   3.143  18.228  0.00  0.00    +0.000 N 
ATOM     11  H   UNL     1       4.834   2.682  19.045  0.00  0.00    +0.000 HD
BRANCH  10  18
ATOM     12  C   UNL     1       6.030   3.901  13.647  0.00  0.00    +0.000 C 
ATOM     13  C   UNL     1       6.082   4.258  15.102  0.00  0.00    +0.000 A 
ATOM     14  C   UNL     1       6.846   5.335  15.556  0.00  0.00    +0.000 A 
ATOM     15  C   UNL     1       6.853   5.670  16.914  0.00  0.00    +0.000 A 
ATOM     16  C   UNL     1       6.077   4.957  17.841  0.00  0.00    +0.000 A 
ATOM     17  C   UNL     1       6.139   5.348  19.292  0.00  0.00    +0.000 C 
ATOM     18  C   UNL     1       5.283   3.899  17.374  0.00  0.00    +0.000 A 
ATOM     19  C   UNL     1       5.329   3.527  16.026  0.00  0.00    +0.000 A 
ENDBRANCH  10  18
ENDBRANCH   7  10
ENDBRANCH   1   7
BRANCH   4  20
ATOM     20  O   UNL     1       1.769   8.751  20.330  0.00  0.00    +0.000 OA
BRANCH  20  21
ATOM     21  C   UNL     1       0.415   9.165  20.513  0.00  0.00    +0.000 C 
BRANCH  21  22
ATOM     22  C   UNL     1       0.024  10.195  19.453  0.00  0.00    +0.000 C 
ATOM     23  O   UNL     1       0.618  10.280  18.379  0.00  0.00    +0.000 OA
ATOM     24  N   UNL     1      -1.034  11.002  19.793  0.00  0.00    +0.000 N 
ATOM     25  H   UNL     1      -1.362  10.967  20.754  0.00  0.00    +0.000 HD
BRANCH  24  26
ATOM     26  C   UNL     1      -1.445  12.115  18.974  0.00  0.00    +0.000 C 
BRANCH  26  27
ATOM     27  C   UNL     1      -2.550  11.676  18.089  0.00  0.00    +0.000 A 
ATOM     28  C   UNL     1      -3.908  11.521  18.278  0.00  0.00    +0.000 A 
ATOM     29  C   UNL     1      -4.437  11.061  17.048  0.00  0.00    +0.000 A 
ATOM     30  C   UNL     1      -3.370  10.969  16.185  0.00  0.00    +0.000 A 
ATOM     31  O   UNL     1      -2.220  11.340  16.805  0.00  0.00    +0.000 OA
ENDBRANCH  26  27
ENDBRANCH  24  26
ENDBRANCH  21  22
ENDBRANCH  20  21
ENDBRANCH   4  20
TORSDOF 8
ENDMDL
MODEL 4
REMARK VINA RESULT:      -7.9      2.882      3.519
REMARK  Name = 
REMARK  10 active torsions:
REMARK  status: ('A' for Active; 'I' for Inactive)
REMARK    1  A    between atoms: C_1  and  C_2
REMARK    2  A    between atoms: C_5  and  C_6
REMARK    3  A    between atoms: C_7  and  N_8
REMARK    4  A    between atoms: N_8  and  S_9
REMARK    5  A    between atoms: S_9  and  C_12
REMARK    6  A    between atoms: C_15  and  O_16
REMARK    7  A    between atoms: O_16  and  C_17
REMARK    8  A    between atoms: C_17  and  C_18
REMARK    9  A    between atoms: N_20  and  C_21
REMARK   10  A    between atoms: C_21  and  C_22
REMARK                            x       y       z     vdW  Elec       q    Type
REMARK                         _______ _______ _______ _____ _____    ______ ____
ROOT
ATOM      1  C   UNL     1       1.315   9.458  19.494  0.00  0.00    +0.000 A 
ATOM      2  C   UNL     1       1.349   8.458  20.465  0.00  0.00    +0.000 A 
ATOM      3  C   UNL     1       1.945   7.233  20.167  0.00  0.00    +0.000 A 
ATOM      4  C   UNL     1       2.504   7.000  18.907  0.00  0.00    +0.000 A 
ATOM      5  C   UNL     1       2.464   8.000  17.937  0.00  0.00    +0.000 A 
ATOM      6  C   UNL     1       1.835   9.216  18.218  0.00  0.00    +0.000 A 
ENDROOT
BRANCH   1   7
ATOM      7  S   UNL     1       0.543  11.019  19.860  0.00  0.00    +0.000 S 
ATOM      8  O   UNL     1       1.302  11.639  20.928  0.00  0.00    +0.000 OA
ATOM      9  O   UNL     1      -0.875  10.771  20.002  0.00  0.00    +0.000 OA
BRANCH   7  10
ATOM     10  N   UNL     1       0.847  11.967  18.507  0.00  0.00    +0.000 N 
ATOM     11  H   UNL     1       0.800  11.497  17.606  0.00  0.00    +0.000 HD
BRANCH  10  18
ATOM     12  C   UNL     1       4.975  14.561  17.952  0.00  0.00    +0.000 C 
ATOM     13  C   UNL     1       3.531  14.512  18.350  0.00  0.00    +0.000 A 
ATOM     14  C   UNL     1       2.838  15.671  18.705  0.00  0.00    +0.000 A 
ATOM     15  C   UNL     1       1.482  15.606  19.040  0.00  0.00    +0.000 A 
ATOM     16  C   UNL     1       0.783  14.389  19.001  0.00  0.00    +0.000 A 
ATOM     17  C   UNL     1      -0.669  14.374  19.392  0.00  0.00    +0.000 C 
ATOM     18  C   UNL     1       1.475  13.234  18.608  0.00  0.00    +0.000 A 
ATOM     19  C   UNL     1       2.846  13.293  18.337  0.00  0.00    +0.000 A 
ENDBRANCH  10  18
ENDBRANCH   7  10
ENDBRANCH   1   7
BRANCH   4  20
ATOM     20  O   UNL     1       3.067   5.765  18.753  0.00  0.00    +0.000 OA
BRANCH  20  21
ATOM     21  C   UNL     1       4.087   5.409  19.685  0.00  0.00    +0.000 C 
BRANCH  21  22
ATOM     22  C   UNL     1       5.237   4.698  18.971  0.00  0.00    +0.000 C 
ATOM     23  O   UNL     1       5.472   3.503  19.147  0.00  0.00    +0.000 OA
ATOM     24  N   UNL     1       5.973   5.493  18.127  0.00  0.00    +0.000 N 
ATOM     25  H   UNL     1       5.808   6.494  18.161  0.00  0.00    +0.000 HD
BRANCH  24  26
ATOM     26  C   UNL     1       7.175   5.023  17.483  0.00  0.00    +0.000 C 
BRANCH  26  27
ATOM     27  C   UNL     1       6.862   4.685  16.074  0.00  0.00    +0.000 A 
ATOM     28  C   UNL     1       5.946   3.837  15.487  0.00  0.00    +0.000 A 
ATOM     29  C   UNL     1       6.137   3.944  14.088  0.00  0.00    +0.000 A 
ATOM     30  C   UNL     1       7.153   4.853  13.910  0.00  0.00    +0.000 A 
ATOM     31  O   UNL     1       7.602   5.310  15.108  0.00  0.00    +0.000 OA
ENDBRANCH  26  27
ENDBRANCH  24  26
ENDBRANCH  21  22
ENDBRANCH  20  21
ENDBRANCH   4  20
TORSDOF 8
ENDMDL
MODEL 5
REMARK VINA RESULT:      -7.8      3.398      8.653
REMARK  Name = 
REMARK  10 active torsions:
REMARK  status: ('A' for Active; 'I' for Inactive)
REMARK    1  A    between atoms: C_1  and  C_2
REMARK    2  A    between atoms: C_5  and  C_6
REMARK    3  A    between atoms: C_7  and  N_8
REMARK    4  A    between atoms: N_8  and  S_9
REMARK    5  A    between atoms: S_9  and  C_12
REMARK    6  A    between atoms: C_15  and  O_16
REMARK    7  A    between atoms: O_16  and  C_17
REMARK    8  A    between atoms: C_17  and  C_18
REMARK    9  A    between atoms: N_20  and  C_21
REMARK   10  A    between atoms: C_21  and  C_22
REMARK                            x       y       z     vdW  Elec       q    Type
REMARK                         _______ _______ _______ _____ _____    ______ ____
ROOT
ATOM      1  C   UNL     1       5.454   4.734  17.238  0.00  0.00    +0.000 A 
ATOM      2  C   UNL     1       5.723   4.572  18.596  0.00  0.00    +0.000 A 
ATOM      3  C   UNL     1       4.856   3.810  19.380  0.00  0.00    +0.000 A 
ATOM      4  C   UNL     1       3.725   3.214  18.819  0.00  0.00    +0.000 A 
ATOM      5  C   UNL     1       3.456   3.381  17.461  0.00  0.00    +0.000 A 
ATOM      6  C   UNL     1       4.301   4.174  16.678  0.00  0.00    +0.000 A 
ENDROOT
BRANCH   1   7
ATOM      7  S   UNL     1       6.545   5.716  16.232  0.00  0.00    +0.000 S 
ATOM      8  O   UNL     1       7.564   6.263  17.105  0.00  0.00    +0.000 OA
ATOM      9  O   UNL     1       5.716   6.581  15.422  0.00  0.00    +0.000 OA
BRANCH   7  10
ATOM     10  N   UNL     1       7.353   4.599  15.272  0.00  0.00    +0.000 N 
ATOM     11  H   UNL     1       8.186   4.176  15.675  0.00  0.00    +0.000 HD
BRANCH  10  18
ATOM     12  C   UNL     1       4.527   2.792  11.691  0.00  0.00    +0.000 C 
ATOM     13  C   UNL     1       5.726   3.591  12.103  0.00  0.00    +0.000 A 
ATOM     14  C   UNL     1       6.499   4.274  11.162  0.00  0.00    +0.000 A 
ATOM     15  C   UNL     1       7.593   5.041  11.574  0.00  0.00    +0.000 A 
ATOM     16  C   UNL     1       7.922   5.165  12.933  0.00  0.00    +0.000 A 
ATOM     17  C   UNL     1       9.123   5.985  13.318  0.00  0.00    +0.000 C 
ATOM     18  C   UNL     1       7.120   4.506  13.877  0.00  0.00    +0.000 A 
ATOM     19  C   UNL     1       6.066   3.688  13.456  0.00  0.00    +0.000 A 
ENDBRANCH  10  18
ENDBRANCH   7  10
ENDBRANCH   1   7
BRANCH   4  20
ATOM     20  O   UNL     1       2.970   2.486  19.694  0.00  0.00    +0.000 OA
BRANCH  20  21
ATOM     21  C   UNL     1       2.688   3.096  20.952  0.00  0.00    +0.000 C 
BRANCH  21  22
ATOM     22  C   UNL     1       1.737   4.280  20.770  0.00  0.00    +0.000 C 
ATOM     23  O   UNL     1       0.591   4.135  20.347  0.00  0.00    +0.000 OA
ATOM     24  N   UNL     1       2.262   5.501  21.117  0.00  0.00    +0.000 N 
ATOM     25  H   UNL     1       3.259   5.548  21.307  0.00  0.00    +0.000 HD
BRANCH  24  26
ATOM     26  C   UNL     1       1.556   6.736  20.878  0.00  0.00    +0.000 C 
BRANCH  26  27
ATOM     27  C   UNL     1       2.035   7.323  19.604  0.00  0.00    +0.000 A 
ATOM     28  C   UNL     1       2.856   6.855  18.598  0.00  0.00    +0.000 A 
ATOM     29  C   UNL     1       2.943   7.890  17.636  0.00  0.00    +0.000 A 
ATOM     30  C   UNL     1       2.166   8.920  18.112  0.00  0.00    +0.000 A 
ATOM     31  O   UNL     1       1.610   8.588  19.306  0.00  0.00    +0.000 OA
ENDBRANCH  26  27
ENDBRANCH  24  26
ENDBRANCH  21  22
ENDBRANCH  20  21
ENDBRANCH   4  20
TORSDOF 8
ENDMDL
MODEL 6
REMARK VINA RESULT:      -7.8      2.639      9.793
REMARK  Name = 
REMARK  10 active torsions:
REMARK  status: ('A' for Active; 'I' for Inactive)
REMARK    1  A    between atoms: C_1  and  C_2
REMARK    2  A    between atoms: C_5  and  C_6
REMARK    3  A    between atoms: C_7  and  N_8
REMARK    4  A    between atoms: N_8  and  S_9
REMARK    5  A    between atoms: S_9  and  C_12
REMARK    6  A    between atoms: C_15  and  O_16
REMARK    7  A    between atoms: O_16  and  C_17
REMARK    8  A    between atoms: C_17  and  C_18
REMARK    9  A    between atoms: N_20  and  C_21
REMARK   10  A    between atoms: C_21  and  C_22
REMARK                            x       y       z     vdW  Elec       q    Type
REMARK                         _______ _______ _______ _____ _____    ______ ____
ROOT
ATOM      1  C   UNL     1       2.494   4.964  18.846  0.00  0.00    +0.000 A 
ATOM      2  C   UNL     1       2.016   5.175  20.138  0.00  0.00    +0.000 A 
ATOM      3  C   UNL     1       1.756   6.476  20.568  0.00  0.00    +0.000 A 
ATOM      4  C   UNL     1       1.973   7.565  19.720  0.00  0.00    +0.000 A 
ATOM      5  C   UNL     1       2.456   7.351  18.430  0.00  0.00    +0.000 A 
ATOM      6  C   UNL     1       2.753   6.052  18.006  0.00  0.00    +0.000 A 
ENDROOT
BRANCH   1   7
ATOM      7  S   UNL     1       2.843   3.309  18.292  0.00  0.00    +0.000 S 
ATOM      8  O   UNL     1       2.491   3.238  16.888  0.00  0.00    +0.000 OA
ATOM      9  O   UNL     1       2.252   2.404  19.253  0.00  0.00    +0.000 OA
BRANCH   7  10
ATOM     10  N   UNL     1       4.519   3.198  18.324  0.00  0.00    +0.000 N 
ATOM     11  H   UNL     1       4.927   2.775  19.154  0.00  0.00    +0.000 HD
BRANCH  10  18
ATOM     12  C   UNL     1       6.009   3.909  13.703  0.00  0.00    +0.000 C 
ATOM     13  C   UNL     1       6.085   4.288  15.152  0.00  0.00    +0.000 A 
ATOM     14  C   UNL     1       6.843   5.381  15.575  0.00  0.00    +0.000 A 
ATOM     15  C   UNL     1       6.871   5.736  16.928  0.00  0.00    +0.000 A 
ATOM     16  C   UNL     1       6.123   5.026  17.879  0.00  0.00    +0.000 A 
ATOM     17  C   UNL     1       6.208   5.438  19.323  0.00  0.00    +0.000 C 
ATOM     18  C   UNL     1       5.334   3.952  17.443  0.00  0.00    +0.000 A 
ATOM     19  C   UNL     1       5.359   3.561  16.100  0.00  0.00    +0.000 A 
ENDBRANCH  10  18
ENDBRANCH   7  10
ENDBRANCH   1   7
BRANCH   4  20
ATOM     20  O   UNL     1       1.666   8.780  20.262  0.00  0.00    +0.000 OA
BRANCH  20  21
ATOM     21  C   UNL     1       0.796   8.772  21.393  0.00  0.00    +0.000 C 
BRANCH  21  22
ATOM     22  C   UNL     1       0.434  10.201  21.798  0.00  0.00    +0.000 C 
ATOM     23  O   UNL     1       1.171  11.154  21.548  0.00  0.00    +0.000 OA
ATOM     24  N   UNL     1      -0.767  10.330  22.453  0.00  0.00    +0.000 N 
ATOM     25  H   UNL     1      -1.232   9.479  22.753  0.00  0.00    +0.000 HD
BRANCH  24  26
ATOM     26  C   UNL     1      -1.197  11.580  23.028  0.00  0.00    +0.000 C 
BRANCH  26  27
ATOM     27  C   UNL     1      -2.292  12.138  22.198  0.00  0.00    +0.000 A 
ATOM     28  C   UNL     1      -2.336  12.666  20.925  0.00  0.00    +0.000 A 
ATOM     29  C   UNL     1      -3.682  13.038  20.690  0.00  0.00    +0.000 A 
ATOM     30  C   UNL     1      -4.373  12.708  21.832  0.00  0.00    +0.000 A 
ATOM     31  O   UNL     1      -3.541  12.161  22.755  0.00  0.00    +0.000 OA
ENDBRANCH  26  27
ENDBRANCH  24  26
ENDBRANCH  21  22
ENDBRANCH  20  21
ENDBRANCH   4  20
TORSDOF 8
ENDMDL
MODEL 7
REMARK VINA RESULT:      -7.8      2.890      8.787
REMARK  Name = 
REMARK  10 active torsions:
REMARK  status: ('A' for Active; 'I' for Inactive)
REMARK    1  A    between atoms: C_1  and  C_2
REMARK    2  A    between atoms: C_5  and  C_6
REMARK    3  A    between atoms: C_7  and  N_8
REMARK    4  A    between atoms: N_8  and  S_9
REMARK    5  A    between atoms: S_9  and  C_12
REMARK    6  A    between atoms: C_15  and  O_16
REMARK    7  A    between atoms: O_16  and  C_17
REMARK    8  A    between atoms: C_17  and  C_18
REMARK    9  A    between atoms: N_20  and  C_21
REMARK   10  A    between atoms: C_21  and  C_22
REMARK                            x       y       z     vdW  Elec       q    Type
REMARK                         _______ _______ _______ _____ _____    ______ ____
ROOT
ATOM      1  C   UNL     1       4.485   5.877  18.600  0.00  0.00    +0.000 A 
ATOM      2  C   UNL     1       3.648   5.980  19.711  0.00  0.00    +0.000 A 
ATOM      3  C   UNL     1       2.600   6.900  19.696  0.00  0.00    +0.000 A 
ATOM      4  C   UNL     1       2.385   7.718  18.584  0.00  0.00    +0.000 A 
ATOM      5  C   UNL     1       3.226   7.616  17.477  0.00  0.00    +0.000 A 
ATOM      6  C   UNL     1       4.301   6.722  17.501  0.00  0.00    +0.000 A 
ENDROOT
BRANCH   1   7
ATOM      7  S   UNL     1       5.834   4.717  18.615  0.00  0.00    +0.000 S 
ATOM      8  O   UNL     1       6.606   4.964  19.817  0.00  0.00    +0.000 OA
ATOM      9  O   UNL     1       6.455   4.767  17.310  0.00  0.00    +0.000 OA
BRANCH   7  10
ATOM     10  N   UNL     1       5.105   3.225  18.870  0.00  0.00    +0.000 N 
ATOM     11  H   UNL     1       5.669   2.405  18.660  0.00  0.00    +0.000 HD
BRANCH  10  18
ATOM     12  C   UNL     1       1.334   2.640  21.955  0.00  0.00    +0.000 C 
ATOM     13  C   UNL     1       1.836   2.786  20.549  0.00  0.00    +0.000 A 
ATOM     14  C   UNL     1       0.953   2.882  19.472  0.00  0.00    +0.000 A 
ATOM     15  C   UNL     1       1.443   3.052  18.173  0.00  0.00    +0.000 A 
ATOM     16  C   UNL     1       2.820   3.156  17.926  0.00  0.00    +0.000 A 
ATOM     17  C   UNL     1       3.293   3.316  16.507  0.00  0.00    +0.000 C 
ATOM     18  C   UNL     1       3.701   3.096  19.016  0.00  0.00    +0.000 A 
ATOM     19  C   UNL     1       3.210   2.862  20.305  0.00  0.00    +0.000 A 
ENDBRANCH  10  18
ENDBRANCH   7  10
ENDBRANCH   1   7
BRANCH   4  20
ATOM     20  O   UNL     1       1.318   8.563  18.695  0.00  0.00    +0.000 OA
BRANCH  20  21
ATOM     21  C   UNL     1       1.161   9.229  19.947  0.00  0.00    +0.000 C 
BRANCH  21  22
ATOM     22  C   UNL     1       0.284  10.471  19.785  0.00  0.00    +0.000 C 
ATOM     23  O   UNL     1       0.548  11.532  20.350  0.00  0.00    +0.000 OA
ATOM     24  N   UNL     1      -0.805  10.307  18.964  0.00  0.00    +0.000 N 
ATOM     25  H   UNL     1      -1.031   9.362  18.667  0.00  0.00    +0.000 HD
BRANCH  24  26
ATOM     26  C   UNL     1      -1.811  11.328  18.810  0.00  0.00    +0.000 C 
BRANCH  26  27
ATOM     27  C   UNL     1      -2.595  11.047  17.584  0.00  0.00    +0.000 A 
ATOM     28  C   UNL     1      -2.346  10.294  16.455  0.00  0.00    +0.000 A 
ATOM     29  C   UNL     1      -3.485  10.423  15.625  0.00  0.00    +0.000 A 
ATOM     30  C   UNL     1      -4.359  11.242  16.301  0.00  0.00    +0.000 A 
ATOM     31  O   UNL     1      -3.830  11.627  17.492  0.00  0.00    +0.000 OA
ENDBRANCH  26  27
ENDBRANCH  24  26
ENDBRANCH  21  22
ENDBRANCH  20  21
ENDBRANCH   4  20
TORSDOF 8
ENDMDL
MODEL 8
REMARK VINA RESULT:      -7.8      2.758      9.155
REMARK  Name = 
REMARK  10 active torsions:
REMARK  status: ('A' for Active; 'I' for Inactive)
REMARK    1  A    between atoms: C_1  and  C_2
REMARK    2  A    between atoms: C_5  and  C_6
REMARK    3  A    between atoms: C_7  and  N_8
REMARK    4  A    between atoms: N_8  and  S_9
REMARK    5  A    between atoms: S_9  and  C_12
REMARK    6  A    between atoms: C_15  and  O_16
REMARK    7  A    between atoms: O_16  and  C_17
REMARK    8  A    between atoms: C_17  and  C_18
REMARK    9  A    between atoms: N_20  and  C_21
REMARK   10  A    between atoms: C_21  and  C_22
REMARK                            x       y       z     vdW  Elec       q    Type
REMARK                         _______ _______ _______ _____ _____    ______ ____
ROOT
ATOM      1  C   UNL     1       2.464   4.839  18.817  0.00  0.00    +0.000 A 
ATOM      2  C   UNL     1       2.077   4.992  20.148  0.00  0.00    +0.000 A 
ATOM      3  C   UNL     1       1.822   6.271  20.644  0.00  0.00    +0.000 A 
ATOM      4  C   UNL     1       1.955   7.394  19.823  0.00  0.00    +0.000 A 
ATOM      5  C   UNL     1       2.347   7.238  18.495  0.00  0.00    +0.000 A 
ATOM      6  C   UNL     1       2.639   5.962  18.002  0.00  0.00    +0.000 A 
ENDROOT
BRANCH   1   7
ATOM      7  S   UNL     1       2.806   3.213  18.178  0.00  0.00    +0.000 S 
ATOM      8  O   UNL     1       2.459   3.219  16.771  0.00  0.00    +0.000 OA
ATOM      9  O   UNL     1       2.206   2.262  19.089  0.00  0.00    +0.000 OA
BRANCH   7  10
ATOM     10  N   UNL     1       4.481   3.091  18.210  0.00  0.00    +0.000 N 
ATOM     11  H   UNL     1       4.885   2.636  19.025  0.00  0.00    +0.000 HD
BRANCH  10  18
ATOM     12  C   UNL     1       6.046   3.909  13.632  0.00  0.00    +0.000 C 
ATOM     13  C   UNL     1       6.091   4.261  15.089  0.00  0.00    +0.000 A 
ATOM     14  C   UNL     1       6.829   5.354  15.548  0.00  0.00    +0.000 A 
ATOM     15  C   UNL     1       6.828   5.683  16.907  0.00  0.00    +0.000 A 
ATOM     16  C   UNL     1       6.071   4.946  17.831  0.00  0.00    +0.000 A 
ATOM     17  C   UNL     1       6.125   5.331  19.284  0.00  0.00    +0.000 C 
ATOM     18  C   UNL     1       5.303   3.872  17.359  0.00  0.00    +0.000 A 
ATOM     19  C   UNL     1       5.357   3.507  16.010  0.00  0.00    +0.000 A 
ENDBRANCH  10  18
ENDBRANCH   7  10
ENDBRANCH   1   7
BRANCH   4  20
ATOM     20  O   UNL     1       1.662   8.582  20.430  0.00  0.00    +0.000 OA
BRANCH  20  21
ATOM     21  C   UNL     1       1.165   8.509  21.766  0.00  0.00    +0.000 C 
BRANCH  21  22
ATOM     22  C   UNL     1       0.599   9.862  22.199  0.00  0.00    +0.000 C 
ATOM     23  O   UNL     1       0.171  10.054  23.337  0.00  0.00    +0.000 OA
ATOM     24  N   UNL     1       0.612  10.832  21.227  0.00  0.00    +0.000 N 
ATOM     25  H   UNL     1       0.837  10.545  20.279  0.00  0.00    +0.000 HD
BRANCH  24  26
ATOM     26  C   UNL     1      -0.009  12.119  21.419  0.00  0.00    +0.000 C 
BRANCH  26  27
ATOM     27  C   UNL     1       0.851  13.162  20.809  0.00  0.00    +0.000 A 
ATOM     28  C   UNL     1       0.749  13.918  19.660  0.00  0.00    +0.000 A 
ATOM     29  C   UNL     1       1.897  14.745  19.618  0.00  0.00    +0.000 A 
ATOM     30  C   UNL     1       2.624  14.445  20.746  0.00  0.00    +0.000 A 
ATOM     31  O   UNL     1       2.000  13.485  21.478  0.00  0.00    +0.000 OA
ENDBRANCH  26  27
ENDBRANCH  24  26
ENDBRANCH  21  22
ENDBRANCH  20  21
ENDBRANCH   4  20
TORSDOF 8
ENDMDL
MODEL 9
REMARK VINA RESULT:      -7.8      2.201      8.889
REMARK  Name = 
REMARK  10 active torsions:
REMARK  status: ('A' for Active; 'I' for Inactive)
REMARK    1  A    between atoms: C_1  and  C_2
REMARK    2  A    between atoms: C_5  and  C_6
REMARK    3  A    between atoms: C_7  and  N_8
REMARK    4  A    between atoms: N_8  and  S_9
REMARK    5  A    between atoms: S_9  and  C_12
REMARK    6  A    between atoms: C_15  and  O_16
REMARK    7  A    between atoms: O_16  and  C_17
REMARK    8  A    between atoms: C_17  and  C_18
REMARK    9  A    between atoms: N_20  and  C_21
REMARK   10  A    between atoms: C_21  and  C_22
REMARK                            x       y       z     vdW  Elec       q    Type
REMARK                         _______ _______ _______ _____ _____    ______ ____
ROOT
ATOM      1  C   UNL     1       2.952   4.779  19.221  0.00  0.00    +0.000 A 
ATOM      2  C   UNL     1       3.034   5.681  18.161  0.00  0.00    +0.000 A 
ATOM      3  C   UNL     1       2.543   6.976  18.324  0.00  0.00    +0.000 A 
ATOM      4  C   UNL     1       1.970   7.375  19.534  0.00  0.00    +0.000 A 
ATOM      5  C   UNL     1       1.886   6.470  20.591  0.00  0.00    +0.000 A 
ATOM      6  C   UNL     1       2.342   5.159  20.421  0.00  0.00    +0.000 A 
ENDROOT
BRANCH   1   7
ATOM      7  S   UNL     1       3.561   3.119  19.018  0.00  0.00    +0.000 S 
ATOM      8  O   UNL     1       3.109   2.647  17.725  0.00  0.00    +0.000 OA
ATOM      9  O   UNL     1       3.240   2.396  20.229  0.00  0.00    +0.000 OA
BRANCH   7  10
ATOM     10  N   UNL     1       5.224   3.297  18.857  0.00  0.00    +0.000 N 
ATOM     11  H   UNL     1       5.786   3.042  19.665  0.00  0.00    +0.000 HD
BRANCH  10  18
ATOM     12  C   UNL     1       5.579   4.082  14.026  0.00  0.00    +0.000 C 
ATOM     13  C   UNL     1       5.982   4.451  15.422  0.00  0.00    +0.000 A 
ATOM     14  C   UNL     1       6.794   5.559  15.672  0.00  0.00    +0.000 A 
ATOM     15  C   UNL     1       7.129   5.904  16.985  0.00  0.00    +0.000 A 
ATOM     16  C   UNL     1       6.639   5.168  18.076  0.00  0.00    +0.000 A 
ATOM     17  C   UNL     1       7.049   5.571  19.466  0.00  0.00    +0.000 C 
ATOM     18  C   UNL     1       5.794   4.078  17.821  0.00  0.00    +0.000 A 
ATOM     19  C   UNL     1       5.514   3.699  16.503  0.00  0.00    +0.000 A 
ENDBRANCH  10  18
ENDBRANCH   7  10
ENDBRANCH   1   7
BRANCH   4  20
ATOM     20  O   UNL     1       1.544   8.672  19.563  0.00  0.00    +0.000 OA
BRANCH  20  21
ATOM     21  C   UNL     1       1.004   9.137  20.800  0.00  0.00    +0.000 C 
BRANCH  21  22
ATOM     22  C   UNL     1       0.021  10.284  20.556  0.00  0.00    +0.000 C 
ATOM     23  O   UNL     1      -0.737  10.689  21.436  0.00  0.00    +0.000 OA
ATOM     24  N   UNL     1       0.058  10.817  19.291  0.00  0.00    +0.000 N 
ATOM     25  H   UNL     1       0.599  10.323  18.588  0.00  0.00    +0.000 HD
BRANCH  24  26
ATOM     26  C   UNL     1      -0.892  11.806  18.847  0.00  0.00    +0.000 C 
BRANCH  26  27
ATOM     27  C   UNL     1      -1.911  11.145  17.998  0.00  0.00    +0.000 A 
ATOM     28  C   UNL     1      -1.879  10.043  17.168  0.00  0.00    +0.000 A 
ATOM     29  C   UNL     1      -3.178   9.912  16.621  0.00  0.00    +0.000 A 
ATOM     30  C   UNL     1      -3.922  10.937  17.157  0.00  0.00    +0.000 A 
ATOM     31  O   UNL     1      -3.164  11.692  17.994  0.00  0.00    +0.000 OA
ENDBRANCH  26  27
ENDBRANCH  24  26
ENDBRANCH  21  22
ENDBRANCH  20  21
ENDBRANCH   4  20
TORSDOF 8
ENDMDL
