MODEL 1
REMARK VINA RESULT:      -7.9      0.000      0.000
REMARK  Name = 
REMARK  5 active torsions:
REMARK  status: ('A' for Active; 'I' for Inactive)
REMARK    1  A    between atoms: C_1  and  N_2
REMARK    2  A    between atoms: C_5  and  C_6
REMARK    3  A    between atoms: C_6  and  N_7
REMARK    4  A    between atoms: N_11  and  C_12
REMARK    5  A    between atoms: C_18  and  C_19
REMARK                            x       y       z     vdW  Elec       q    Type
REMARK                         _______ _______ _______ _____ _____    ______ ____
ROOT
ATOM      1  N   UNL     1      -4.154  11.979  17.793  0.00  0.00    +0.000 N 
ATOM      2  C   UNL     1      -3.267  11.945  18.822  0.00  0.00    +0.000 A 
ATOM      3  N   UNL     1      -2.103  11.235  18.613  0.00  0.00    +0.000 NA
ATOM      4  C   UNL     1      -1.268  11.061  19.602  0.00  0.00    +0.000 A 
ATOM      5  N   UNL     1      -0.120  10.293  19.550  0.00  0.00    +0.000 N 
ATOM      6  N   UNL     1      -1.544  11.712  20.814  0.00  0.00    +0.000 N 
ATOM      7  N   UNL     1      -0.729  11.716  21.899  0.00  0.00    +0.000 NA
ATOM      8  C   UNL     1      -1.357  12.565  22.730  0.00  0.00    +0.000 A 
ATOM      9  C   UNL     1      -2.544  13.102  22.178  0.00  0.00    +0.000 A 
ATOM     10  C   UNL     1      -2.652  12.492  20.946  0.00  0.00    +0.000 A 
ATOM     11  N   UNL     1      -3.557  12.552  19.939  0.00  0.00    +0.000 NA
ATOM     12  H   UNL     1      -3.757  12.289  16.913  0.00  0.00    +0.000 HD
ATOM     13  H   UNL     1       0.446  10.307  20.398  0.00  0.00    +0.000 HD
ENDROOT
BRANCH   9  14
ATOM     14  C   UNL     1      -3.460  14.044  22.734  0.00  0.00    +0.000 C 
ATOM     15  C   UNL     1      -4.698  13.773  23.183  0.00  0.00    +0.000 C 
ATOM     16  N   UNL     1      -5.348  12.572  23.166  0.00  0.00    +0.000 N 
ATOM     17  C   UNL     1      -6.564  12.675  23.814  0.00  0.00    +0.000 C 
ATOM     18  O   UNL     1      -7.335  11.760  24.042  0.00  0.00    +0.000 OA
ATOM     19  N   UNL     1      -6.722  13.983  24.181  0.00  0.00    +0.000 N 
ATOM     20  C   UNL     1      -5.626  14.736  23.851  0.00  0.00    +0.000 C 
ATOM     21  O   UNL     1      -5.422  15.905  24.080  0.00  0.00    +0.000 OA
ATOM     22  H   UNL     1      -4.933  11.694  22.884  0.00  0.00    +0.000 HD
ATOM     23  H   UNL     1      -7.509  14.317  24.706  0.00  0.00    +0.000 HD
ENDBRANCH   9  14
BRANCH   5  24
ATOM     24  C   UNL     1       0.474   9.951  18.265  0.00  0.00    +0.000 C 
ATOM     25  C   UNL     1       1.920  10.242  17.973  0.00  0.00    +0.000 C 
ATOM     26  C   UNL     1       1.464   8.824  18.157  0.00  0.00    +0.000 C 
ENDBRANCH   5  24
BRANCH   1  27
ATOM     27  C   UNL     1      -5.550  12.345  17.959  0.00  0.00    +0.000 C 
BRANCH  27  32
ATOM     28  C   UNL     1      -7.320   8.338  20.083  0.00  0.00    +0.000 C 
ATOM     29  N   UNL     1      -7.076   9.744  19.872  0.00  0.00    +0.000 N 
ATOM     30  C   UNL     1      -7.538  10.775  20.639  0.00  0.00    +0.000 A 
ATOM     31  C   UNL     1      -7.053  11.920  20.060  0.00  0.00    +0.000 A 
ATOM     32  C   UNL     1      -6.308  11.484  18.935  0.00  0.00    +0.000 A 
ATOM     33  N   UNL     1      -6.316  10.144  18.835  0.00  0.00    +0.000 NA
ENDBRANCH  27  32
ENDBRANCH   1  27
TORSDOF 4
ENDMDL
MODEL 2
REMARK VINA RESULT:      -7.4      1.961      4.796
REMARK  Name = 
REMARK  5 active torsions:
REMARK  status: ('A' for Active; 'I' for Inactive)
REMARK    1  A    between atoms: C_1  and  N_2
REMARK    2  A    between atoms: C_5  and  C_6
REMARK    3  A    between atoms: C_6  and  N_7
REMARK    4  A    between atoms: N_11  and  C_12
REMARK    5  A    between atoms: C_18  and  C_19
REMARK                            x       y       z     vdW  Elec       q    Type
REMARK                         _______ _______ _______ _____ _____    ______ ____
ROOT
ATOM      1  N   UNL     1      -0.875  12.521  21.012  0.00  0.00    +0.000 N 
ATOM      2  C   UNL     1      -1.169  11.827  19.882  0.00  0.00    +0.000 A 
ATOM      3  N   UNL     1      -0.199  10.963  19.417  0.00  0.00    +0.000 NA
ATOM      4  C   UNL     1      -0.368  10.360  18.272  0.00  0.00    +0.000 A 
ATOM      5  N   UNL     1       0.564   9.549  17.652  0.00  0.00    +0.000 N 
ATOM      6  N   UNL     1      -1.596  10.533  17.616  0.00  0.00    +0.000 N 
ATOM      7  N   UNL     1      -1.966   9.899  16.475  0.00  0.00    +0.000 NA
ATOM      8  C   UNL     1      -3.244  10.287  16.328  0.00  0.00    +0.000 A 
ATOM      9  C   UNL     1      -3.683  11.144  17.365  0.00  0.00    +0.000 A 
ATOM     10  C   UNL     1      -2.570  11.312  18.161  0.00  0.00    +0.000 A 
ATOM     11  N   UNL     1      -2.315  12.017  19.290  0.00  0.00    +0.000 NA
ATOM     12  H   UNL     1      -0.580  11.943  21.790  0.00  0.00    +0.000 HD
ATOM     13  H   UNL     1       0.250   9.115  16.785  0.00  0.00    +0.000 HD
ENDROOT
BRANCH   9  14
ATOM     14  C   UNL     1      -4.964  11.738  17.573  0.00  0.00    +0.000 C 
ATOM     15  C   UNL     1      -5.934  11.264  18.374  0.00  0.00    +0.000 C 
ATOM     16  N   UNL     1      -5.919  10.117  19.116  0.00  0.00    +0.000 N 
ATOM     17  C   UNL     1      -7.060  10.031  19.891  0.00  0.00    +0.000 C 
ATOM     18  O   UNL     1      -7.300   9.174  20.721  0.00  0.00    +0.000 OA
ATOM     19  N   UNL     1      -7.848  11.105  19.578  0.00  0.00    +0.000 N 
ATOM     20  C   UNL     1      -7.240  11.929  18.668  0.00  0.00    +0.000 C 
ATOM     21  O   UNL     1      -7.639  12.980  18.224  0.00  0.00    +0.000 OA
ATOM     22  H   UNL     1      -5.119   9.508  19.223  0.00  0.00    +0.000 HD
ATOM     23  H   UNL     1      -8.721  11.300  20.034  0.00  0.00    +0.000 HD
ENDBRANCH   9  14
BRANCH   5  24
ATOM     24  C   UNL     1       1.653   8.964  18.423  0.00  0.00    +0.000 C 
ATOM     25  C   UNL     1       1.929   7.486  18.386  0.00  0.00    +0.000 C 
ATOM     26  C   UNL     1       2.883   8.443  17.734  0.00  0.00    +0.000 C 
ENDBRANCH   5  24
BRANCH   1  27
ATOM     27  C   UNL     1      -1.597  13.715  21.420  0.00  0.00    +0.000 C 
BRANCH  27  32
ATOM     28  C   UNL     1      -5.833  14.299  23.748  0.00  0.00    +0.000 C 
ATOM     29  N   UNL     1      -4.562  13.705  23.410  0.00  0.00    +0.000 N 
ATOM     30  C   UNL     1      -4.004  12.597  23.980  0.00  0.00    +0.000 A 
ATOM     31  C   UNL     1      -2.805  12.410  23.340  0.00  0.00    +0.000 A 
ATOM     32  C   UNL     1      -2.716  13.464  22.397  0.00  0.00    +0.000 A 
ATOM     33  N   UNL     1      -3.806  14.248  22.437  0.00  0.00    +0.000 NA
ENDBRANCH  27  32
ENDBRANCH   1  27
TORSDOF 4
ENDMDL
MODEL 3
REMARK VINA RESULT:      -7.3      7.389     12.015
REMARK  Name = 
REMARK  5 active torsions:
REMARK  status: ('A' for Active; 'I' for Inactive)
REMARK    1  A    between atoms: C_1  and  N_2
REMARK    2  A    between atoms: C_5  and  C_6
REMARK    3  A    between atoms: C_6  and  N_7
REMARK    4  A    between atoms: N_11  and  C_12
REMARK    5  A    between atoms: C_18  and  C_19
REMARK                            x       y       z     vdW  Elec       q    Type
REMARK                         _______ _______ _______ _____ _____    ______ ____
ROOT
ATOM      1  N   UNL     1       1.446   4.476  21.191  0.00  0.00    +0.000 N 
ATOM      2  C   UNL     1       1.778   5.595  20.495  0.00  0.00    +0.000 A 
ATOM      3  N   UNL     1       1.365   6.799  21.025  0.00  0.00    +0.000 NA
ATOM      4  C   UNL     1       1.544   7.899  20.344  0.00  0.00    +0.000 A 
ATOM      5  N   UNL     1       1.093   9.151  20.718  0.00  0.00    +0.000 N 
ATOM      6  N   UNL     1       2.261   7.814  19.142  0.00  0.00    +0.000 N 
ATOM      7  N   UNL     1       2.618   8.873  18.372  0.00  0.00    +0.000 NA
ATOM      8  C   UNL     1       3.385   8.300  17.428  0.00  0.00    +0.000 A 
ATOM      9  C   UNL     1       3.523   6.902  17.603  0.00  0.00    +0.000 A 
ATOM     10  C   UNL     1       2.745   6.619  18.705  0.00  0.00    +0.000 A 
ATOM     11  N   UNL     1       2.437   5.483  19.376  0.00  0.00    +0.000 NA
ATOM     12  H   UNL     1       1.724   4.496  22.166  0.00  0.00    +0.000 HD
ATOM     13  H   UNL     1       1.364   9.911  20.095  0.00  0.00    +0.000 HD
ENDROOT
BRANCH   9  14
ATOM     14  C   UNL     1       4.268   5.960  16.833  0.00  0.00    +0.000 C 
ATOM     15  C   UNL     1       5.483   5.473  17.140  0.00  0.00    +0.000 C 
ATOM     16  N   UNL     1       6.267   5.797  18.211  0.00  0.00    +0.000 N 
ATOM     17  C   UNL     1       7.398   5.005  18.236  0.00  0.00    +0.000 C 
ATOM     18  O   UNL     1       8.246   4.992  19.109  0.00  0.00    +0.000 OA
ATOM     19  N   UNL     1       7.369   4.216  17.119  0.00  0.00    +0.000 N 
ATOM     20  C   UNL     1       6.227   4.417  16.388  0.00  0.00    +0.000 C 
ATOM     21  O   UNL     1       5.869   3.848  15.384  0.00  0.00    +0.000 OA
ATOM     22  H   UNL     1       5.984   6.399  18.973  0.00  0.00    +0.000 HD
ATOM     23  H   UNL     1       8.060   3.516  16.919  0.00  0.00    +0.000 HD
ENDBRANCH   9  14
BRANCH   5  24
ATOM     24  C   UNL     1       0.742   9.417  22.107  0.00  0.00    +0.000 C 
ATOM     25  C   UNL     1      -0.220  10.515  22.471  0.00  0.00    +0.000 C 
ATOM     26  C   UNL     1      -0.628   9.080  22.627  0.00  0.00    +0.000 C 
ENDBRANCH   5  24
BRANCH   1  27
ATOM     27  C   UNL     1       1.465   3.144  20.610  0.00  0.00    +0.000 C 
BRANCH  27  32
ATOM     28  C   UNL     1       5.671   0.989  21.783  0.00  0.00    +0.000 C 
ATOM     29  N   UNL     1       4.673   1.610  20.945  0.00  0.00    +0.000 N 
ATOM     30  C   UNL     1       4.757   1.825  19.600  0.00  0.00    +0.000 A 
ATOM     31  C   UNL     1       3.581   2.434  19.242  0.00  0.00    +0.000 A 
ATOM     32  C   UNL     1       2.842   2.556  20.446  0.00  0.00    +0.000 A 
ATOM     33  N   UNL     1       3.514   2.034  21.486  0.00  0.00    +0.000 NA
ENDBRANCH  27  32
ENDBRANCH   1  27
TORSDOF 4
ENDMDL
MODEL 4
REMARK VINA RESULT:      -7.2      2.207      3.530
REMARK  Name = 
REMARK  5 active torsions:
REMARK  status: ('A' for Active; 'I' for Inactive)
REMARK    1  A    between atoms: C_1  and  N_2
REMARK    2  A    between atoms: C_5  and  C_6
REMARK    3  A    between atoms: C_6  and  N_7
REMARK    4  A    between atoms: N_11  and  C_12
REMARK    5  A    between atoms: C_18  and  C_19
REMARK                            x       y       z     vdW  Elec       q    Type
REMARK                         _______ _______ _______ _____ _____    ______ ____
ROOT
ATOM      1  N   UNL     1       0.006  11.127  17.971  0.00  0.00    +0.000 N 
ATOM      2  C   UNL     1       0.085  10.646  19.239  0.00  0.00    +0.000 A 
ATOM      3  N   UNL     1       0.750   9.449  19.407  0.00  0.00    +0.000 NA
ATOM      4  C   UNL     1       0.755   8.873  20.578  0.00  0.00    +0.000 A 
ATOM      5  N   UNL     1       1.300   7.633  20.854  0.00  0.00    +0.000 N 
ATOM      6  N   UNL     1       0.173   9.564  21.650  0.00  0.00    +0.000 N 
ATOM      7  N   UNL     1       0.184   9.150  22.943  0.00  0.00    +0.000 NA
ATOM      8  C   UNL     1      -0.367  10.193  23.587  0.00  0.00    +0.000 A 
ATOM      9  C   UNL     1      -0.712  11.258  22.719  0.00  0.00    +0.000 A 
ATOM     10  C   UNL     1      -0.382  10.794  21.464  0.00  0.00    +0.000 A 
ATOM     11  N   UNL     1      -0.475  11.307  20.214  0.00  0.00    +0.000 NA
ATOM     12  H   UNL     1       0.900  11.204  17.500  0.00  0.00    +0.000 HD
ATOM     13  H   UNL     1       1.263   7.354  21.834  0.00  0.00    +0.000 HD
ENDROOT
BRANCH   9  14
ATOM     14  C   UNL     1      -1.287  12.528  23.024  0.00  0.00    +0.000 C 
ATOM     15  C   UNL     1      -2.527  12.740  23.498  0.00  0.00    +0.000 C 
ATOM     16  N   UNL     1      -3.497  11.812  23.746  0.00  0.00    +0.000 N 
ATOM     17  C   UNL     1      -4.598  12.411  24.328  0.00  0.00    +0.000 C 
ATOM     18  O   UNL     1      -5.589  11.840  24.745  0.00  0.00    +0.000 OA
ATOM     19  N   UNL     1      -4.352  13.755  24.379  0.00  0.00    +0.000 N 
ATOM     20  C   UNL     1      -3.102  14.058  23.906  0.00  0.00    +0.000 C 
ATOM     21  O   UNL     1      -2.558  15.136  23.863  0.00  0.00    +0.000 OA
ATOM     22  H   UNL     1      -3.369  10.811  23.683  0.00  0.00    +0.000 HD
ATOM     23  H   UNL     1      -4.982  14.416  24.797  0.00  0.00    +0.000 HD
ENDBRANCH   9  14
BRANCH   5  24
ATOM     24  C   UNL     1       2.284   7.049  19.953  0.00  0.00    +0.000 C 
ATOM     25  C   UNL     1       2.792   5.648  20.154  0.00  0.00    +0.000 C 
ATOM     26  C   UNL     1       1.891   5.958  18.996  0.00  0.00    +0.000 C 
ENDBRANCH   5  24
BRANCH   1  27
ATOM     27  C   UNL     1      -0.951  12.143  17.566  0.00  0.00    +0.000 C 
BRANCH  27  32
ATOM     28  C   UNL     1      -5.666  11.018  18.028  0.00  0.00    +0.000 C 
ATOM     29  N   UNL     1      -4.370  11.124  17.402  0.00  0.00    +0.000 N 
ATOM     30  C   UNL     1      -4.038  10.712  16.144  0.00  0.00    +0.000 A 
ATOM     31  C   UNL     1      -2.709  11.017  15.987  0.00  0.00    +0.000 A 
ATOM     32  C   UNL     1      -2.315  11.609  17.213  0.00  0.00    +0.000 A 
ATOM     33  N   UNL     1      -3.344  11.684  18.073  0.00  0.00    +0.000 NA
ENDBRANCH  27  32
ENDBRANCH   1  27
TORSDOF 4
ENDMDL
MODEL 5
REMARK VINA RESULT:      -7.1      7.180     11.580
REMARK  Name = 
REMARK  5 active torsions:
REMARK  status: ('A' for Active; 'I' for Inactive)
REMARK    1  A    between atoms: C_1  and  N_2
REMARK    2  A    between atoms: C_5  and  C_6
REMARK    3  A    between atoms: C_6  and  N_7
REMARK    4  A    between atoms: N_11  and  C_12
REMARK    5  A    between atoms: C_18  and  C_19
REMARK                            x       y       z     vdW  Elec       q    Type
REMARK                         _______ _______ _______ _____ _____    ______ ____
ROOT
ATOM      1  N   UNL     1       2.273   4.776  21.913  0.00  0.00    +0.000 N 
ATOM      2  C   UNL     1       2.320   5.768  20.985  0.00  0.00    +0.000 A 
ATOM      3  N   UNL     1       1.719   6.963  21.325  0.00  0.00    +0.000 NA
ATOM      4  C   UNL     1       1.622   7.912  20.434  0.00  0.00    +0.000 A 
ATOM      5  N   UNL     1       0.962   9.113  20.618  0.00  0.00    +0.000 N 
ATOM      6  N   UNL     1       2.245   7.712  19.194  0.00  0.00    +0.000 N 
ATOM      7  N   UNL     1       2.323   8.636  18.203  0.00  0.00    +0.000 NA
ATOM      8  C   UNL     1       3.111   8.027  17.300  0.00  0.00    +0.000 A 
ATOM      9  C   UNL     1       3.537   6.743  17.716  0.00  0.00    +0.000 A 
ATOM     10  C   UNL     1       2.920   6.558  18.934  0.00  0.00    +0.000 A 
ATOM     11  N   UNL     1       2.898   5.548  19.837  0.00  0.00    +0.000 NA
ATOM     12  H   UNL     1       2.618   5.046  22.827  0.00  0.00    +0.000 HD
ATOM     13  H   UNL     1       1.027   9.764  19.836  0.00  0.00    +0.000 HD
ENDROOT
BRANCH   9  14
ATOM     14  C   UNL     1       4.392   5.811  17.054  0.00  0.00    +0.000 C 
ATOM     15  C   UNL     1       5.615   5.433  17.463  0.00  0.00    +0.000 C 
ATOM     16  N   UNL     1       6.307   5.879  18.553  0.00  0.00    +0.000 N 
ATOM     17  C   UNL     1       7.486   5.173  18.695  0.00  0.00    +0.000 C 
ATOM     18  O   UNL     1       8.277   5.276  19.615  0.00  0.00    +0.000 OA
ATOM     19  N   UNL     1       7.580   4.316  17.633  0.00  0.00    +0.000 N 
ATOM     20  C   UNL     1       6.476   4.389  16.826  0.00  0.00    +0.000 C 
ATOM     21  O   UNL     1       6.220   3.735  15.842  0.00  0.00    +0.000 OA
ATOM     22  H   UNL     1       5.937   6.505  19.256  0.00  0.00    +0.000 HD
ATOM     23  H   UNL     1       8.329   3.658  17.520  0.00  0.00    +0.000 HD
ENDBRANCH   9  14
BRANCH   5  24
ATOM     24  C   UNL     1       0.676   9.593  21.963  0.00  0.00    +0.000 C 
ATOM     25  C   UNL     1      -0.354  10.660  22.207  0.00  0.00    +0.000 C 
ATOM     26  C   UNL     1      -0.623   9.248  22.637  0.00  0.00    +0.000 C 
ENDBRANCH   5  24
BRANCH   1  27
ATOM     27  C   UNL     1       2.510   3.379  21.593  0.00  0.00    +0.000 C 
BRANCH  27  32
ATOM     28  C   UNL     1       2.888   2.094  16.911  0.00  0.00    +0.000 C 
ATOM     29  N   UNL     1       2.247   2.410  18.165  0.00  0.00    +0.000 N 
ATOM     30  C   UNL     1       0.906   2.401  18.419  0.00  0.00    +0.000 A 
ATOM     31  C   UNL     1       0.771   2.762  19.736  0.00  0.00    +0.000 A 
ATOM     32  C   UNL     1       2.092   2.978  20.202  0.00  0.00    +0.000 A 
ATOM     33  N   UNL     1       2.995   2.747  19.234  0.00  0.00    +0.000 NA
ENDBRANCH  27  32
ENDBRANCH   1  27
TORSDOF 4
ENDMDL
MODEL 6
REMARK VINA RESULT:      -7.0      1.990      4.708
REMARK  Name = 
REMARK  5 active torsions:
REMARK  status: ('A' for Active; 'I' for Inactive)
REMARK    1  A    between atoms: C_1  and  N_2
REMARK    2  A    between atoms: C_5  and  C_6
REMARK    3  A    between atoms: C_6  and  N_7
REMARK    4  A    between atoms: N_11  and  C_12
REMARK    5  A    between atoms: C_18  and  C_19
REMARK                            x       y       z     vdW  Elec       q    Type
REMARK                         _______ _______ _______ _____ _____    ______ ____
ROOT
ATOM      1  N   UNL     1      -1.343  12.656  20.878  0.00  0.00    +0.000 N 
ATOM      2  C   UNL     1      -1.611  11.986  19.727  0.00  0.00    +0.000 A 
ATOM      3  N   UNL     1      -0.652  11.095  19.292  0.00  0.00    +0.000 NA
ATOM      4  C   UNL     1      -0.793  10.513  18.132  0.00  0.00    +0.000 A 
ATOM      5  N   UNL     1       0.138   9.678  17.541  0.00  0.00    +0.000 N 
ATOM      6  N   UNL     1      -1.984  10.736  17.427  0.00  0.00    +0.000 N 
ATOM      7  N   UNL     1      -2.326  10.130  16.262  0.00  0.00    +0.000 NA
ATOM      8  C   UNL     1      -3.583  10.564  16.067  0.00  0.00    +0.000 A 
ATOM      9  C   UNL     1      -4.037  11.423  17.097  0.00  0.00    +0.000 A 
ATOM     10  C   UNL     1      -2.954  11.542  17.941  0.00  0.00    +0.000 A 
ATOM     11  N   UNL     1      -2.724  12.223  19.090  0.00  0.00    +0.000 NA
ATOM     12  H   UNL     1      -1.101  12.058  21.660  0.00  0.00    +0.000 HD
ATOM     13  H   UNL     1      -0.154   9.266  16.655  0.00  0.00    +0.000 HD
ENDROOT
BRANCH   9  14
ATOM     14  C   UNL     1      -5.305  12.057  17.257  0.00  0.00    +0.000 C 
ATOM     15  C   UNL     1      -6.093  11.983  18.343  0.00  0.00    +0.000 C 
ATOM     16  N   UNL     1      -5.876  11.268  19.487  0.00  0.00    +0.000 N 
ATOM     17  C   UNL     1      -6.864  11.533  20.415  0.00  0.00    +0.000 C 
ATOM     18  O   UNL     1      -6.904  11.119  21.559  0.00  0.00    +0.000 OA
ATOM     19  N   UNL     1      -7.767  12.373  19.822  0.00  0.00    +0.000 N 
ATOM     20  C   UNL     1      -7.377  12.719  18.555  0.00  0.00    +0.000 C 
ATOM     21  O   UNL     1      -7.916  13.480  17.785  0.00  0.00    +0.000 OA
ATOM     22  H   UNL     1      -5.028  10.758  19.697  0.00  0.00    +0.000 HD
ATOM     23  H   UNL     1      -8.564  12.752  20.299  0.00  0.00    +0.000 HD
ENDBRANCH   9  14
BRANCH   5  24
ATOM     24  C   UNL     1       1.171   9.046  18.350  0.00  0.00    +0.000 C 
ATOM     25  C   UNL     1       2.088   8.005  17.769  0.00  0.00    +0.000 C 
ATOM     26  C   UNL     1       2.623   9.363  18.118  0.00  0.00    +0.000 C 
ENDBRANCH   5  24
BRANCH   1  27
ATOM     27  C   UNL     1      -2.041  13.869  21.272  0.00  0.00    +0.000 C 
BRANCH  27  32
ATOM     28  C   UNL     1      -5.288  12.346  24.564  0.00  0.00    +0.000 C 
ATOM     29  N   UNL     1      -4.186  13.103  24.023  0.00  0.00    +0.000 N 
ATOM     30  C   UNL     1      -3.435  14.033  24.682  0.00  0.00    +0.000 A 
ATOM     31  C   UNL     1      -2.509  14.481  23.773  0.00  0.00    +0.000 A 
ATOM     32  C   UNL     1      -2.781  13.766  22.580  0.00  0.00    +0.000 A 
ATOM     33  N   UNL     1      -3.804  12.911  22.745  0.00  0.00    +0.000 NA
ENDBRANCH  27  32
ENDBRANCH   1  27
TORSDOF 4
ENDMDL
MODEL 7
REMARK VINA RESULT:      -7.0      1.613      2.532
REMARK  Name = 
REMARK  5 active torsions:
REMARK  status: ('A' for Active; 'I' for Inactive)
REMARK    1  A    between atoms: C_1  and  N_2
REMARK    2  A    between atoms: C_5  and  C_6
REMARK    3  A    between atoms: C_6  and  N_7
REMARK    4  A    between atoms: N_11  and  C_12
REMARK    5  A    between atoms: C_18  and  C_19
REMARK                            x       y       z     vdW  Elec       q    Type
REMARK                         _______ _______ _______ _____ _____    ______ ____
ROOT
ATOM      1  N   UNL     1      -4.371  11.867  18.150  0.00  0.00    +0.000 N 
ATOM      2  C   UNL     1      -3.427  11.985  19.120  0.00  0.00    +0.000 A 
ATOM      3  N   UNL     1      -2.203  11.402  18.866  0.00  0.00    +0.000 NA
ATOM      4  C   UNL     1      -1.295  11.373  19.804  0.00  0.00    +0.000 A 
ATOM      5  N   UNL     1      -0.070  10.739  19.709  0.00  0.00    +0.000 N 
ATOM      6  N   UNL     1      -1.572  12.046  21.003  0.00  0.00    +0.000 N 
ATOM      7  N   UNL     1      -0.699  12.195  22.032  0.00  0.00    +0.000 NA
ATOM      8  C   UNL     1      -1.371  13.007  22.867  0.00  0.00    +0.000 A 
ATOM      9  C   UNL     1      -2.644  13.378  22.371  0.00  0.00    +0.000 A 
ATOM     10  C   UNL     1      -2.753  12.701  21.175  0.00  0.00    +0.000 A 
ATOM     11  N   UNL     1      -3.718  12.609  20.228  0.00  0.00    +0.000 NA
ATOM     12  H   UNL     1      -4.067  12.177  17.235  0.00  0.00    +0.000 HD
ATOM     13  H   UNL     1       0.540  10.858  20.517  0.00  0.00    +0.000 HD
ENDROOT
BRANCH   9  14
ATOM     14  C   UNL     1      -3.628  14.235  22.947  0.00  0.00    +0.000 C 
ATOM     15  C   UNL     1      -4.865  13.873  23.330  0.00  0.00    +0.000 C 
ATOM     16  N   UNL     1      -5.448  12.644  23.216  0.00  0.00    +0.000 N 
ATOM     17  C   UNL     1      -6.690  12.643  23.821  0.00  0.00    +0.000 C 
ATOM     18  O   UNL     1      -7.419  11.678  23.964  0.00  0.00    +0.000 OA
ATOM     19  N   UNL     1      -6.932  13.916  24.260  0.00  0.00    +0.000 N 
ATOM     20  C   UNL     1      -5.866  14.744  24.018  0.00  0.00    +0.000 C 
ATOM     21  O   UNL     1      -5.734  15.906  24.324  0.00  0.00    +0.000 OA
ATOM     22  H   UNL     1      -4.977  11.807  22.898  0.00  0.00    +0.000 HD
ATOM     23  H   UNL     1      -7.754  14.177  24.773  0.00  0.00    +0.000 HD
ENDBRANCH   9  14
BRANCH   5  24
ATOM     24  C   UNL     1       0.481  10.405  18.403  0.00  0.00    +0.000 C 
ATOM     25  C   UNL     1       1.944  10.588  18.105  0.00  0.00    +0.000 C 
ATOM     26  C   UNL     1       1.373   9.206  18.234  0.00  0.00    +0.000 C 
ENDBRANCH   5  24
BRANCH   1  27
ATOM     27  C   UNL     1      -5.789  12.080  18.392  0.00  0.00    +0.000 C 
BRANCH  27  32
ATOM     28  C   UNL     1      -7.127  16.759  18.538  0.00  0.00    +0.000 C 
ATOM     29  N   UNL     1      -6.884  15.453  17.974  0.00  0.00    +0.000 N 
ATOM     30  C   UNL     1      -7.089  15.075  16.678  0.00  0.00    +0.000 A 
ATOM     31  C   UNL     1      -6.720  13.755  16.609  0.00  0.00    +0.000 A 
ATOM     32  C   UNL     1      -6.308  13.414  17.922  0.00  0.00    +0.000 A 
ATOM     33  N   UNL     1      -6.399  14.466  18.752  0.00  0.00    +0.000 NA
ENDBRANCH  27  32
ENDBRANCH   1  27
TORSDOF 4
ENDMDL
MODEL 8
REMARK VINA RESULT:      -6.9      2.246      3.634
REMARK  Name = 
REMARK  5 active torsions:
REMARK  status: ('A' for Active; 'I' for Inactive)
REMARK    1  A    between atoms: C_1  and  N_2
REMARK    2  A    between atoms: C_5  and  C_6
REMARK    3  A    between atoms: C_6  and  N_7
REMARK    4  A    between atoms: N_11  and  C_12
REMARK    5  A    between atoms: C_18  and  C_19
REMARK                            x       y       z     vdW  Elec       q    Type
REMARK                         _______ _______ _______ _____ _____    ______ ____
ROOT
ATOM      1  N   UNL     1      -0.045  11.294  17.991  0.00  0.00    +0.000 N 
ATOM      2  C   UNL     1       0.105  10.703  19.205  0.00  0.00    +0.000 A 
ATOM      3  N   UNL     1       0.860   9.549  19.243  0.00  0.00    +0.000 NA
ATOM      4  C   UNL     1       0.940   8.868  20.354  0.00  0.00    +0.000 A 
ATOM      5  N   UNL     1       1.582   7.652  20.499  0.00  0.00    +0.000 N 
ATOM      6  N   UNL     1       0.342   9.412  21.500  0.00  0.00    +0.000 N 
ATOM      7  N   UNL     1       0.422   8.881  22.747  0.00  0.00    +0.000 NA
ATOM      8  C   UNL     1      -0.184   9.816  23.499  0.00  0.00    +0.000 A 
ATOM      9  C   UNL     1      -0.630  10.928  22.745  0.00  0.00    +0.000 A 
ATOM     10  C   UNL     1      -0.305  10.609  21.444  0.00  0.00    +0.000 A 
ATOM     11  N   UNL     1      -0.471  11.228  20.250  0.00  0.00    +0.000 NA
ATOM     12  H   UNL     1       0.826  11.480  17.508  0.00  0.00    +0.000 HD
ATOM     13  H   UNL     1       1.593   7.281  21.448  0.00  0.00    +0.000 HD
ENDROOT
BRANCH   9  14
ATOM     14  C   UNL     1      -1.286  12.118  23.182  0.00  0.00    +0.000 C 
ATOM     15  C   UNL     1      -2.459  12.587  22.723  0.00  0.00    +0.000 C 
ATOM     16  N   UNL     1      -3.240  12.062  21.733  0.00  0.00    +0.000 N 
ATOM     17  C   UNL     1      -4.420  12.772  21.624  0.00  0.00    +0.000 C 
ATOM     18  O   UNL     1      -5.357  12.498  20.896  0.00  0.00    +0.000 OA
ATOM     19  N   UNL     1      -4.354  13.813  22.509  0.00  0.00    +0.000 N 
ATOM     20  C   UNL     1      -3.196  13.781  23.241  0.00  0.00    +0.000 C 
ATOM     21  O   UNL     1      -2.852  14.518  24.135  0.00  0.00    +0.000 OA
ATOM     22  H   UNL     1      -3.068  11.180  21.268  0.00  0.00    +0.000 HD
ATOM     23  H   UNL     1      -5.106  14.461  22.656  0.00  0.00    +0.000 HD
ENDBRANCH   9  14
BRANCH   5  24
ATOM     24  C   UNL     1       2.578   7.230  19.524  0.00  0.00    +0.000 C 
ATOM     25  C   UNL     1       3.187   5.856  19.576  0.00  0.00    +0.000 C 
ATOM     26  C   UNL     1       2.234   6.211  18.473  0.00  0.00    +0.000 C 
ENDBRANCH   5  24
BRANCH   1  27
ATOM     27  C   UNL     1      -1.084  12.269  17.705  0.00  0.00    +0.000 C 
BRANCH  27  32
ATOM     28  C   UNL     1      -5.770  10.959  17.899  0.00  0.00    +0.000 C 
ATOM     29  N   UNL     1      -4.443  11.105  17.353  0.00  0.00    +0.000 N 
ATOM     30  C   UNL     1      -4.015  10.679  16.128  0.00  0.00    +0.000 A 
ATOM     31  C   UNL     1      -2.692  11.036  16.047  0.00  0.00    +0.000 A 
ATOM     32  C   UNL     1      -2.401  11.671  17.281  0.00  0.00    +0.000 A 
ATOM     33  N   UNL     1      -3.485  11.722  18.072  0.00  0.00    +0.000 NA
ENDBRANCH  27  32
ENDBRANCH   1  27
TORSDOF 4
ENDMDL
MODEL 9
REMARK VINA RESULT:      -6.9      4.117      7.613
REMARK  Name = 
REMARK  5 active torsions:
REMARK  status: ('A' for Active; 'I' for Inactive)
REMARK    1  A    between atoms: C_1  and  N_2
REMARK    2  A    between atoms: C_5  and  C_6
REMARK    3  A    between atoms: C_6  and  N_7
REMARK    4  A    between atoms: N_11  and  C_12
REMARK    5  A    between atoms: C_18  and  C_19
REMARK                            x       y       z     vdW  Elec       q    Type
REMARK                         _______ _______ _______ _____ _____    ______ ____
ROOT
ATOM      1  N   UNL     1       2.247  10.063  17.830  0.00  0.00    +0.000 N 
ATOM      2  C   UNL     1       1.687  11.195  18.329  0.00  0.00    +0.000 A 
ATOM      3  N   UNL     1       2.537  12.256  18.562  0.00  0.00    +0.000 NA
ATOM      4  C   UNL     1       2.084  13.327  19.155  0.00  0.00    +0.000 A 
ATOM      5  N   UNL     1       2.850  14.415  19.531  0.00  0.00    +0.000 N 
ATOM      6  N   UNL     1       0.710  13.393  19.426  0.00  0.00    +0.000 N 
ATOM      7  N   UNL     1       0.069  14.472  19.943  0.00  0.00    +0.000 NA
ATOM      8  C   UNL     1      -1.221  14.097  19.888  0.00  0.00    +0.000 A 
ATOM      9  C   UNL     1      -1.398  12.806  19.334  0.00  0.00    +0.000 A 
ATOM     10  C   UNL     1      -0.116  12.366  19.084  0.00  0.00    +0.000 A 
ATOM     11  N   UNL     1       0.407  11.222  18.579  0.00  0.00    +0.000 NA
ATOM     12  H   UNL     1       2.797  10.207  16.991  0.00  0.00    +0.000 HD
ATOM     13  H   UNL     1       2.328  15.190  19.938  0.00  0.00    +0.000 HD
ENDROOT
BRANCH   9  14
ATOM     14  C   UNL     1      -2.601  12.080  19.089  0.00  0.00    +0.000 C 
ATOM     15  C   UNL     1      -2.968  11.530  17.919  0.00  0.00    +0.000 C 
ATOM     16  N   UNL     1      -2.303  11.581  16.727  0.00  0.00    +0.000 N 
ATOM     17  C   UNL     1      -2.947  10.804  15.783  0.00  0.00    +0.000 C 
ATOM     18  O   UNL     1      -2.556  10.576  14.653  0.00  0.00    +0.000 OA
ATOM     19  N   UNL     1      -4.083  10.313  16.366  0.00  0.00    +0.000 N 
ATOM     20  C   UNL     1      -4.181  10.689  17.679  0.00  0.00    +0.000 C 
ATOM     21  O   UNL     1      -5.027  10.385  18.486  0.00  0.00    +0.000 OA
ATOM     22  H   UNL     1      -1.382  11.979  16.595  0.00  0.00    +0.000 HD
ATOM     23  H   UNL     1      -4.712   9.682  15.903  0.00  0.00    +0.000 HD
ENDBRANCH   9  14
BRANCH   5  24
ATOM     24  C   UNL     1       4.155  14.636  18.921  0.00  0.00    +0.000 C 
ATOM     25  C   UNL     1       4.338  15.638  17.815  0.00  0.00    +0.000 C 
ATOM     26  C   UNL     1       4.909  15.912  19.174  0.00  0.00    +0.000 C 
ENDBRANCH   5  24
BRANCH   1  27
ATOM     27  C   UNL     1       1.594   8.765  17.878  0.00  0.00    +0.000 C 
BRANCH  27  32
ATOM     28  C   UNL     1       5.393   5.724  17.713  0.00  0.00    +0.000 C 
ATOM     29  N   UNL     1       4.159   6.299  18.191  0.00  0.00    +0.000 N 
ATOM     30  C   UNL     1       3.428   5.882  19.265  0.00  0.00    +0.000 A 
ATOM     31  C   UNL     1       2.347   6.725  19.335  0.00  0.00    +0.000 A 
ATOM     32  C   UNL     1       2.503   7.623  18.249  0.00  0.00    +0.000 A 
ATOM     33  N   UNL     1       3.626   7.364  17.559  0.00  0.00    +0.000 NA
ENDBRANCH  27  32
ENDBRANCH   1  27
TORSDOF 4
ENDMDL
