MODEL 1
REMARK VINA RESULT:      -8.0      0.000      0.000
REMARK  Name = 
REMARK  6 active torsions:
REMARK  status: ('A' for Active; 'I' for Inactive)
REMARK    1  A    between atoms: C_1  and  C_2
REMARK    2  A    between atoms: C_5  and  N_6
REMARK    3  A    between atoms: N_6  and  C_7
REMARK    4  A    between atoms: C_7  and  C_8
REMARK    5  A    between atoms: C_13  and  C_15
REMARK    6  A    between atoms: C_20  and  N_21
REMARK                            x       y       z     vdW  Elec       q    Type
REMARK                         _______ _______ _______ _____ _____    ______ ____
ROOT
ATOM      1  N   UNL     1       4.306   5.685  18.742  0.00  0.00    +0.000 N 
ATOM      2  C   UNL     1       4.332   4.358  19.191  0.00  0.00    +0.000 C 
ATOM      3  O   UNL     1       5.323   3.640  19.035  0.00  0.00    +0.000 OA
ENDROOT
BRANCH   1   8
ATOM      4  C   UNL     1       0.714  10.043  19.349  0.00  0.00    +0.000 C 
ATOM      5  C   UNL     1       1.495   8.777  19.140  0.00  0.00    +0.000 A 
ATOM      6  C   UNL     1       1.710   7.879  20.195  0.00  0.00    +0.000 A 
ATOM      7  C   UNL     1       2.559   6.776  20.033  0.00  0.00    +0.000 A 
ATOM      8  C   UNL     1       3.211   6.580  18.817  0.00  0.00    +0.000 A 
ATOM      9  C   UNL     1       2.948   7.442  17.743  0.00  0.00    +0.000 A 
ATOM     10  C   UNL     1       2.060   8.509  17.891  0.00  0.00    +0.000 A 
ENDBRANCH   1   8
BRANCH   2  11
ATOM     11  C   UNL     1       3.147   3.695  19.817  0.00  0.00    +0.000 A 
ATOM     12  C   UNL     1       3.036   3.563  21.202  0.00  0.00    +0.000 A 
ATOM     13  C   UNL     1       1.875   3.052  21.801  0.00  0.00    +0.000 A 
ATOM     14  C   UNL     1       0.769   2.730  21.022  0.00  0.00    +0.000 A 
ATOM     15  C   UNL     1       0.822   2.911  19.643  0.00  0.00    +0.000 A 
ATOM     16  C   UNL     1       2.011   3.387  19.054  0.00  0.00    +0.000 A 
BRANCH  16  17
ATOM     17  N   UNL     1       2.015   3.516  17.609  0.00  0.00    +0.000 N 
ATOM     18  O   UNL     1       2.662   2.671  16.974  0.00  0.00    +0.000 OA
ATOM     19  O   UNL     1       1.282   4.389  17.117  0.00  0.00    +0.000 OA
ENDBRANCH  16  17
ENDBRANCH   2  11
BRANCH   1  20
ATOM     20  C   UNL     1       5.445   6.170  17.945  0.00  0.00    +0.000 C 
BRANCH  20  21
ATOM     21  C   UNL     1       5.689   5.352  16.705  0.00  0.00    +0.000 A 
ATOM     22  C   UNL     1       4.819   5.097  15.661  0.00  0.00    +0.000 A 
ATOM     23  C   UNL     1       5.465   4.488  14.545  0.00  0.00    +0.000 A 
ATOM     24  C   UNL     1       6.794   4.235  14.795  0.00  0.00    +0.000 A 
ATOM     25  S   UNL     1       7.254   4.727  16.368  0.00  0.00    +0.000 S 
ENDBRANCH  20  21
ENDBRANCH   1  20
TORSDOF 5
ENDMDL
MODEL 2
REMARK VINA RESULT:      -8.0      2.461      4.903
REMARK  Name = 
REMARK  6 active torsions:
REMARK  status: ('A' for Active; 'I' for Inactive)
REMARK    1  A    between atoms: C_1  and  C_2
REMARK    2  A    between atoms: C_5  and  N_6
REMARK    3  A    between atoms: N_6  and  C_7
REMARK    4  A    between atoms: C_7  and  C_8
REMARK    5  A    between atoms: C_13  and  C_15
REMARK    6  A    between atoms: C_20  and  N_21
REMARK                            x       y       z     vdW  Elec       q    Type
REMARK                         _______ _______ _______ _____ _____    ______ ____
ROOT
ATOM      1  N   UNL     1       2.786   5.370  17.870  0.00  0.00    +0.000 N 
ATOM      2  C   UNL     1       4.022   4.744  17.667  0.00  0.00    +0.000 C 
ATOM      3  O   UNL     1       4.101   3.569  17.300  0.00  0.00    +0.000 OA
ENDROOT
BRANCH   1   8
ATOM      4  C   UNL     1       0.826  10.386  19.677  0.00  0.00    +0.000 C 
ATOM      5  C   UNL     1       1.535   9.143  19.222  0.00  0.00    +0.000 A 
ATOM      6  C   UNL     1       1.861   8.949  17.872  0.00  0.00    +0.000 A 
ATOM      7  C   UNL     1       2.388   7.728  17.432  0.00  0.00    +0.000 A 
ATOM      8  C   UNL     1       2.575   6.689  18.342  0.00  0.00    +0.000 A 
ATOM      9  C   UNL     1       2.309   6.903  19.702  0.00  0.00    +0.000 A 
ATOM     10  C   UNL     1       1.834   8.138  20.146  0.00  0.00    +0.000 A 
ENDBRANCH   1   8
BRANCH   2  11
ATOM     11  C   UNL     1       5.326   5.419  17.951  0.00  0.00    +0.000 A 
ATOM     12  C   UNL     1       5.935   5.328  19.203  0.00  0.00    +0.000 A 
ATOM     13  C   UNL     1       7.212   5.856  19.440  0.00  0.00    +0.000 A 
ATOM     14  C   UNL     1       7.938   6.425  18.399  0.00  0.00    +0.000 A 
ATOM     15  C   UNL     1       7.388   6.474  17.122  0.00  0.00    +0.000 A 
ATOM     16  C   UNL     1       6.086   5.976  16.911  0.00  0.00    +0.000 A 
BRANCH  16  17
ATOM     17  N   UNL     1       5.555   6.092  15.566  0.00  0.00    +0.000 N 
ATOM     18  O   UNL     1       5.004   7.163  15.274  0.00  0.00    +0.000 OA
ATOM     19  O   UNL     1       5.792   5.160  14.782  0.00  0.00    +0.000 OA
ENDBRANCH  16  17
ENDBRANCH   2  11
BRANCH   1  20
ATOM     20  C   UNL     1       1.568   4.549  17.772  0.00  0.00    +0.000 C 
BRANCH  20  21
ATOM     21  C   UNL     1       1.416   3.579  18.914  0.00  0.00    +0.000 A 
ATOM     22  C   UNL     1       1.615   2.210  18.909  0.00  0.00    +0.000 A 
ATOM     23  C   UNL     1       1.614   1.652  20.221  0.00  0.00    +0.000 A 
ATOM     24  C   UNL     1       1.347   2.599  21.183  0.00  0.00    +0.000 A 
ATOM     25  S   UNL     1       1.097   4.148  20.504  0.00  0.00    +0.000 S 
ENDBRANCH  20  21
ENDBRANCH   1  20
TORSDOF 5
ENDMDL
MODEL 3
REMARK VINA RESULT:      -7.6      0.994      1.080
REMARK  Name = 
REMARK  6 active torsions:
REMARK  status: ('A' for Active; 'I' for Inactive)
REMARK    1  A    between atoms: C_1  and  C_2
REMARK    2  A    between atoms: C_5  and  N_6
REMARK    3  A    between atoms: N_6  and  C_7
REMARK    4  A    between atoms: C_7  and  C_8
REMARK    5  A    between atoms: C_13  and  C_15
REMARK    6  A    between atoms: C_20  and  N_21
REMARK                            x       y       z     vdW  Elec       q    Type
REMARK                         _______ _______ _______ _____ _____    ______ ____
ROOT
ATOM      1  N   UNL     1       4.649   4.963  19.158  0.00  0.00    +0.000 N 
ATOM      2  C   UNL     1       4.390   3.687  19.676  0.00  0.00    +0.000 C 
ATOM      3  O   UNL     1       5.295   2.876  19.885  0.00  0.00    +0.000 OA
ENDROOT
BRANCH   1   8
ATOM      4  C   UNL     1       1.602   9.660  18.202  0.00  0.00    +0.000 C 
ATOM      5  C   UNL     1       2.240   8.313  18.385  0.00  0.00    +0.000 A 
ATOM      6  C   UNL     1       2.097   7.602  19.585  0.00  0.00    +0.000 A 
ATOM      7  C   UNL     1       2.812   6.418  19.805  0.00  0.00    +0.000 A 
ATOM      8  C   UNL     1       3.689   5.950  18.827  0.00  0.00    +0.000 A 
ATOM      9  C   UNL     1       3.785   6.626  17.602  0.00  0.00    +0.000 A 
ATOM     10  C   UNL     1       3.031   7.776  17.366  0.00  0.00    +0.000 A 
ENDBRANCH   1   8
BRANCH   2  11
ATOM     11  C   UNL     1       3.005   3.189  19.940  0.00  0.00    +0.000 A 
ATOM     12  C   UNL     1       2.403   3.342  21.191  0.00  0.00    +0.000 A 
ATOM     13  C   UNL     1       1.065   2.987  21.411  0.00  0.00    +0.000 A 
ATOM     14  C   UNL     1       0.277   2.538  20.356  0.00  0.00    +0.000 A 
ATOM     15  C   UNL     1       0.827   2.436  19.081  0.00  0.00    +0.000 A 
ATOM     16  C   UNL     1       2.185   2.757  18.887  0.00  0.00    +0.000 A 
BRANCH  16  17
ATOM     17  N   UNL     1       2.707   2.592  17.543  0.00  0.00    +0.000 N 
ATOM     18  O   UNL     1       3.441   1.613  17.346  0.00  0.00    +0.000 OA
ATOM     19  O   UNL     1       2.290   3.373  16.675  0.00  0.00    +0.000 OA
ENDBRANCH  16  17
ENDBRANCH   2  11
BRANCH   1  20
ATOM     20  C   UNL     1       6.023   5.271  18.730  0.00  0.00    +0.000 C 
BRANCH  20  21
ATOM     21  C   UNL     1       6.292   4.901  17.295  0.00  0.00    +0.000 A 
ATOM     22  C   UNL     1       5.810   3.816  16.585  0.00  0.00    +0.000 A 
ATOM     23  C   UNL     1       6.077   3.915  15.187  0.00  0.00    +0.000 A 
ATOM     24  C   UNL     1       6.813   5.037  14.881  0.00  0.00    +0.000 A 
ATOM     25  S   UNL     1       7.180   5.959  16.274  0.00  0.00    +0.000 S 
ENDBRANCH  20  21
ENDBRANCH   1  20
TORSDOF 5
ENDMDL
MODEL 4
REMARK VINA RESULT:      -7.5      1.774      2.916
REMARK  Name = 
REMARK  6 active torsions:
REMARK  status: ('A' for Active; 'I' for Inactive)
REMARK    1  A    between atoms: C_1  and  C_2
REMARK    2  A    between atoms: C_5  and  N_6
REMARK    3  A    between atoms: N_6  and  C_7
REMARK    4  A    between atoms: C_7  and  C_8
REMARK    5  A    between atoms: C_13  and  C_15
REMARK    6  A    between atoms: C_20  and  N_21
REMARK                            x       y       z     vdW  Elec       q    Type
REMARK                         _______ _______ _______ _____ _____    ______ ____
ROOT
ATOM      1  N   UNL     1       4.143   5.894  17.493  0.00  0.00    +0.000 N 
ATOM      2  C   UNL     1       3.902   4.514  17.452  0.00  0.00    +0.000 C 
ATOM      3  O   UNL     1       4.544   3.766  16.711  0.00  0.00    +0.000 OA
ENDROOT
BRANCH   1   8
ATOM      4  C   UNL     1       0.371   9.143  20.227  0.00  0.00    +0.000 C 
ATOM      5  C   UNL     1       1.514   8.415  19.580  0.00  0.00    +0.000 A 
ATOM      6  C   UNL     1       1.965   8.769  18.301  0.00  0.00    +0.000 A 
ATOM      7  C   UNL     1       2.930   7.995  17.643  0.00  0.00    +0.000 A 
ATOM      8  C   UNL     1       3.434   6.851  18.259  0.00  0.00    +0.000 A 
ATOM      9  C   UNL     1       3.030   6.531  19.563  0.00  0.00    +0.000 A 
ATOM     10  C   UNL     1       2.108   7.334  20.237  0.00  0.00    +0.000 A 
ENDBRANCH   1   8
BRANCH   2  11
ATOM     11  C   UNL     1       2.810   3.862  18.237  0.00  0.00    +0.000 A 
ATOM     12  C   UNL     1       1.478   3.924  17.822  0.00  0.00    +0.000 A 
ATOM     13  C   UNL     1       0.467   3.215  18.485  0.00  0.00    +0.000 A 
ATOM     14  C   UNL     1       0.785   2.365  19.540  0.00  0.00    +0.000 A 
ATOM     15  C   UNL     1       2.111   2.228  19.938  0.00  0.00    +0.000 A 
ATOM     16  C   UNL     1       3.109   2.980  19.286  0.00  0.00    +0.000 A 
BRANCH  16  17
ATOM     17  N   UNL     1       4.466   2.821  19.775  0.00  0.00    +0.000 N 
ATOM     18  O   UNL     1       5.107   3.860  19.992  0.00  0.00    +0.000 OA
ATOM     19  O   UNL     1       4.839   1.669  20.044  0.00  0.00    +0.000 OA
ENDBRANCH  16  17
ENDBRANCH   2  11
BRANCH   1  20
ATOM     20  C   UNL     1       5.091   6.461  16.520  0.00  0.00    +0.000 C 
BRANCH  20  21
ATOM     21  C   UNL     1       6.385   6.907  17.148  0.00  0.00    +0.000 A 
ATOM     22  C   UNL     1       6.958   8.166  17.129  0.00  0.00    +0.000 A 
ATOM     23  C   UNL     1       8.059   8.280  18.027  0.00  0.00    +0.000 A 
ATOM     24  C   UNL     1       8.337   7.087  18.655  0.00  0.00    +0.000 A 
ATOM     25  S   UNL     1       7.276   5.841  18.158  0.00  0.00    +0.000 S 
ENDBRANCH  20  21
ENDBRANCH   1  20
TORSDOF 5
ENDMDL
MODEL 5
REMARK VINA RESULT:      -7.3      1.241      1.868
REMARK  Name = 
REMARK  6 active torsions:
REMARK  status: ('A' for Active; 'I' for Inactive)
REMARK    1  A    between atoms: C_1  and  C_2
REMARK    2  A    between atoms: C_5  and  N_6
REMARK    3  A    between atoms: N_6  and  C_7
REMARK    4  A    between atoms: C_7  and  C_8
REMARK    5  A    between atoms: C_13  and  C_15
REMARK    6  A    between atoms: C_20  and  N_21
REMARK                            x       y       z     vdW  Elec       q    Type
REMARK                         _______ _______ _______ _____ _____    ______ ____
ROOT
ATOM      1  N   UNL     1       4.177   5.502  18.063  0.00  0.00    +0.000 N 
ATOM      2  C   UNL     1       4.231   4.205  18.589  0.00  0.00    +0.000 C 
ATOM      3  O   UNL     1       5.106   3.404  18.250  0.00  0.00    +0.000 OA
ENDROOT
BRANCH   1   8
ATOM      4  C   UNL     1       1.125  10.089  19.447  0.00  0.00    +0.000 C 
ATOM      5  C   UNL     1       1.749   8.784  19.040  0.00  0.00    +0.000 A 
ATOM      6  C   UNL     1       1.968   7.765  19.977  0.00  0.00    +0.000 A 
ATOM      7  C   UNL     1       2.680   6.611  19.625  0.00  0.00    +0.000 A 
ATOM      8  C   UNL     1       3.191   6.483  18.335  0.00  0.00    +0.000 A 
ATOM      9  C   UNL     1       2.918   7.473  17.380  0.00  0.00    +0.000 A 
ATOM     10  C   UNL     1       2.164   8.596  17.719  0.00  0.00    +0.000 A 
ENDBRANCH   1   8
BRANCH   2  11
ATOM     11  C   UNL     1       3.199   3.672  19.531  0.00  0.00    +0.000 A 
ATOM     12  C   UNL     1       3.370   3.746  20.915  0.00  0.00    +0.000 A 
ATOM     13  C   UNL     1       2.356   3.359  21.802  0.00  0.00    +0.000 A 
ATOM     14  C   UNL     1       1.116   2.958  21.317  0.00  0.00    +0.000 A 
ATOM     15  C   UNL     1       0.889   2.935  19.944  0.00  0.00    +0.000 A 
ATOM     16  C   UNL     1       1.933   3.287  19.065  0.00  0.00    +0.000 A 
BRANCH  16  17
ATOM     17  N   UNL     1       1.644   3.205  17.645  0.00  0.00    +0.000 N 
ATOM     18  O   UNL     1       2.025   2.184  17.057  0.00  0.00    +0.000 OA
ATOM     19  O   UNL     1       0.943   4.106  17.158  0.00  0.00    +0.000 OA
ENDBRANCH  16  17
ENDBRANCH   2  11
BRANCH   1  20
ATOM     20  C   UNL     1       5.111   5.851  16.980  0.00  0.00    +0.000 C 
BRANCH  20  21
ATOM     21  C   UNL     1       6.374   6.504  17.477  0.00  0.00    +0.000 A 
ATOM     22  C   UNL     1       6.875   7.754  17.158  0.00  0.00    +0.000 A 
ATOM     23  C   UNL     1       7.962   8.137  17.997  0.00  0.00    +0.000 A 
ATOM     24  C   UNL     1       8.302   7.144  18.887  0.00  0.00    +0.000 A 
ATOM     25  S   UNL     1       7.317   5.758  18.704  0.00  0.00    +0.000 S 
ENDBRANCH  20  21
ENDBRANCH   1  20
TORSDOF 5
ENDMDL
MODEL 6
REMARK VINA RESULT:      -7.1      1.024      1.524
REMARK  Name = 
REMARK  6 active torsions:
REMARK  status: ('A' for Active; 'I' for Inactive)
REMARK    1  A    between atoms: C_1  and  C_2
REMARK    2  A    between atoms: C_5  and  N_6
REMARK    3  A    between atoms: N_6  and  C_7
REMARK    4  A    between atoms: C_7  and  C_8
REMARK    5  A    between atoms: C_13  and  C_15
REMARK    6  A    between atoms: C_20  and  N_21
REMARK                            x       y       z     vdW  Elec       q    Type
REMARK                         _______ _______ _______ _____ _____    ______ ____
ROOT
ATOM      1  N   UNL     1       5.054   4.580  18.997  0.00  0.00    +0.000 N 
ATOM      2  C   UNL     1       4.586   3.344  19.461  0.00  0.00    +0.000 C 
ATOM      3  O   UNL     1       5.310   2.346  19.492  0.00  0.00    +0.000 OA
ENDROOT
BRANCH   1   8
ATOM      4  C   UNL     1       1.256   8.675  17.964  0.00  0.00    +0.000 C 
ATOM      5  C   UNL     1       2.380   7.744  18.318  0.00  0.00    +0.000 A 
ATOM      6  C   UNL     1       3.428   7.500  17.420  0.00  0.00    +0.000 A 
ATOM      7  C   UNL     1       4.393   6.523  17.694  0.00  0.00    +0.000 A 
ATOM      8  C   UNL     1       4.301   5.772  18.865  0.00  0.00    +0.000 A 
ATOM      9  C   UNL     1       3.290   6.058  19.793  0.00  0.00    +0.000 A 
ATOM     10  C   UNL     1       2.361   7.068  19.541  0.00  0.00    +0.000 A 
ENDBRANCH   1   8
BRANCH   2  11
ATOM     11  C   UNL     1       3.167   3.123  19.877  0.00  0.00    +0.000 A 
ATOM     12  C   UNL     1       2.768   3.264  21.207  0.00  0.00    +0.000 A 
ATOM     13  C   UNL     1       1.421   3.178  21.584  0.00  0.00    +0.000 A 
ATOM     14  C   UNL     1       0.432   3.020  20.618  0.00  0.00    +0.000 A 
ATOM     15  C   UNL     1       0.789   2.941  19.275  0.00  0.00    +0.000 A 
ATOM     16  C   UNL     1       2.152   2.989  18.918  0.00  0.00    +0.000 A 
BRANCH  16  17
ATOM     17  N   UNL     1       2.458   2.862  17.506  0.00  0.00    +0.000 N 
ATOM     18  O   UNL     1       2.873   1.759  17.121  0.00  0.00    +0.000 OA
ATOM     19  O   UNL     1       2.176   3.826  16.777  0.00  0.00    +0.000 OA
ENDBRANCH  16  17
ENDBRANCH   2  11
BRANCH   1  20
ATOM     20  C   UNL     1       6.402   4.634  18.408  0.00  0.00    +0.000 C 
BRANCH  20  21
ATOM     21  C   UNL     1       6.402   4.450  16.913  0.00  0.00    +0.000 A 
ATOM     22  C   UNL     1       5.603   3.615  16.153  0.00  0.00    +0.000 A 
ATOM     23  C   UNL     1       5.711   3.879  14.755  0.00  0.00    +0.000 A 
ATOM     24  C   UNL     1       6.639   4.859  14.486  0.00  0.00    +0.000 A 
ATOM     25  S   UNL     1       7.374   5.452  15.912  0.00  0.00    +0.000 S 
ENDBRANCH  20  21
ENDBRANCH   1  20
TORSDOF 5
ENDMDL
MODEL 7
REMARK VINA RESULT:      -7.0      1.305      2.058
REMARK  Name = 
REMARK  6 active torsions:
REMARK  status: ('A' for Active; 'I' for Inactive)
REMARK    1  A    between atoms: C_1  and  C_2
REMARK    2  A    between atoms: C_5  and  N_6
REMARK    3  A    between atoms: N_6  and  C_7
REMARK    4  A    between atoms: C_7  and  C_8
REMARK    5  A    between atoms: C_13  and  C_15
REMARK    6  A    between atoms: C_20  and  N_21
REMARK                            x       y       z     vdW  Elec       q    Type
REMARK                         _______ _______ _______ _____ _____    ______ ____
ROOT
ATOM      1  N   UNL     1       4.102   5.539  18.279  0.00  0.00    +0.000 N 
ATOM      2  C   UNL     1       4.166   4.225  18.761  0.00  0.00    +0.000 C 
ATOM      3  O   UNL     1       5.072   3.456  18.429  0.00  0.00    +0.000 OA
ENDROOT
BRANCH   1   8
ATOM      4  C   UNL     1       0.899  10.041  19.593  0.00  0.00    +0.000 C 
ATOM      5  C   UNL     1       1.565   8.750  19.213  0.00  0.00    +0.000 A 
ATOM      6  C   UNL     1       1.853   7.774  20.178  0.00  0.00    +0.000 A 
ATOM      7  C   UNL     1       2.604   6.639  19.845  0.00  0.00    +0.000 A 
ATOM      8  C   UNL     1       3.084   6.487  18.545  0.00  0.00    +0.000 A 
ATOM      9  C   UNL     1       2.743   7.430  17.565  0.00  0.00    +0.000 A 
ATOM     10  C   UNL     1       1.951   8.533  17.888  0.00  0.00    +0.000 A 
ENDBRANCH   1   8
BRANCH   2  11
ATOM     11  C   UNL     1       3.112   3.636  19.642  0.00  0.00    +0.000 A 
ATOM     12  C   UNL     1       3.218   3.681  21.033  0.00  0.00    +0.000 A 
ATOM     13  C   UNL     1       2.178   3.240  21.865  0.00  0.00    +0.000 A 
ATOM     14  C   UNL     1       0.975   2.811  21.314  0.00  0.00    +0.000 A 
ATOM     15  C   UNL     1       0.811   2.814  19.932  0.00  0.00    +0.000 A 
ATOM     16  C   UNL     1       1.882   3.222  19.110  0.00  0.00    +0.000 A 
BRANCH  16  17
ATOM     17  N   UNL     1       1.659   3.164  17.677  0.00  0.00    +0.000 N 
ATOM     18  O   UNL     1       1.063   4.123  17.166  0.00  0.00    +0.000 OA
ATOM     19  O   UNL     1       2.180   2.221  17.061  0.00  0.00    +0.000 OA
ENDBRANCH  16  17
ENDBRANCH   2  11
BRANCH   1  20
ATOM     20  C   UNL     1       5.069   5.946  17.246  0.00  0.00    +0.000 C 
BRANCH  20  21
ATOM     21  C   UNL     1       6.290   6.621  17.814  0.00  0.00    +0.000 A 
ATOM     22  C   UNL     1       7.228   6.102  18.688  0.00  0.00    +0.000 A 
ATOM     23  C   UNL     1       8.375   6.939  18.820  0.00  0.00    +0.000 A 
ATOM     24  C   UNL     1       8.250   8.102  18.096  0.00  0.00    +0.000 A 
ATOM     25  S   UNL     1       6.756   8.182  17.268  0.00  0.00    +0.000 S 
ENDBRANCH  20  21
ENDBRANCH   1  20
TORSDOF 5
ENDMDL
MODEL 8
REMARK VINA RESULT:      -6.9      1.349      2.251
REMARK  Name = 
REMARK  6 active torsions:
REMARK  status: ('A' for Active; 'I' for Inactive)
REMARK    1  A    between atoms: C_1  and  C_2
REMARK    2  A    between atoms: C_5  and  N_6
REMARK    3  A    between atoms: N_6  and  C_7
REMARK    4  A    between atoms: C_7  and  C_8
REMARK    5  A    between atoms: C_13  and  C_15
REMARK    6  A    between atoms: C_20  and  N_21
REMARK                            x       y       z     vdW  Elec       q    Type
REMARK                         _______ _______ _______ _____ _____    ______ ____
ROOT
ATOM      1  N   UNL     1       4.561   5.152  18.114  0.00  0.00    +0.000 N 
ATOM      2  C   UNL     1       4.335   3.823  18.495  0.00  0.00    +0.000 C 
ATOM      3  O   UNL     1       5.020   2.897  18.052  0.00  0.00    +0.000 OA
ENDROOT
BRANCH   1   8
ATOM      4  C   UNL     1       0.635   9.067  19.348  0.00  0.00    +0.000 C 
ATOM      5  C   UNL     1       1.813   8.172  19.092  0.00  0.00    +0.000 A 
ATOM      6  C   UNL     1       2.497   8.208  17.868  0.00  0.00    +0.000 A 
ATOM      7  C   UNL     1       3.498   7.272  17.581  0.00  0.00    +0.000 A 
ATOM      8  C   UNL     1       3.806   6.283  18.512  0.00  0.00    +0.000 A 
ATOM      9  C   UNL     1       3.167   6.284  19.761  0.00  0.00    +0.000 A 
ATOM     10  C   UNL     1       2.207   7.250  20.065  0.00  0.00    +0.000 A 
ENDBRANCH   1   8
BRANCH   2  11
ATOM     11  C   UNL     1       3.212   3.421  19.395  0.00  0.00    +0.000 A 
ATOM     12  C   UNL     1       3.404   3.249  20.767  0.00  0.00    +0.000 A 
ATOM     13  C   UNL     1       2.333   2.991  21.633  0.00  0.00    +0.000 A 
ATOM     14  C   UNL     1       1.029   2.972  21.148  0.00  0.00    +0.000 A 
ATOM     15  C   UNL     1       0.794   3.204  19.796  0.00  0.00    +0.000 A 
ATOM     16  C   UNL     1       1.887   3.420  18.933  0.00  0.00    +0.000 A 
BRANCH  16  17
ATOM     17  N   UNL     1       1.577   3.616  17.529  0.00  0.00    +0.000 N 
ATOM     18  O   UNL     1       0.946   4.641  17.234  0.00  0.00    +0.000 OA
ATOM     19  O   UNL     1       2.064   2.807  16.724  0.00  0.00    +0.000 OA
ENDBRANCH  16  17
ENDBRANCH   2  11
BRANCH   1  20
ATOM     20  C   UNL     1       5.550   5.412  17.056  0.00  0.00    +0.000 C 
BRANCH  20  21
ATOM     21  C   UNL     1       6.692   6.280  17.515  0.00  0.00    +0.000 A 
ATOM     22  C   UNL     1       7.066   7.525  17.042  0.00  0.00    +0.000 A 
ATOM     23  C   UNL     1       8.042   8.154  17.870  0.00  0.00    +0.000 A 
ATOM     24  C   UNL     1       8.433   7.345  18.912  0.00  0.00    +0.000 A 
ATOM     25  S   UNL     1       7.628   5.836  18.885  0.00  0.00    +0.000 S 
ENDBRANCH  20  21
ENDBRANCH   1  20
TORSDOF 5
ENDMDL
MODEL 9
REMARK VINA RESULT:      -6.9      1.796      2.751
REMARK  Name = 
REMARK  6 active torsions:
REMARK  status: ('A' for Active; 'I' for Inactive)
REMARK    1  A    between atoms: C_1  and  C_2
REMARK    2  A    between atoms: C_5  and  N_6
REMARK    3  A    between atoms: N_6  and  C_7
REMARK    4  A    between atoms: C_7  and  C_8
REMARK    5  A    between atoms: C_13  and  C_15
REMARK    6  A    between atoms: C_20  and  N_21
REMARK                            x       y       z     vdW  Elec       q    Type
REMARK                         _______ _______ _______ _____ _____    ______ ____
ROOT
ATOM      1  N   UNL     1       3.941   5.861  17.467  0.00  0.00    +0.000 N 
ATOM      2  C   UNL     1       3.929   4.463  17.559  0.00  0.00    +0.000 C 
ATOM      3  O   UNL     1       4.759   3.768  16.969  0.00  0.00    +0.000 OA
ENDROOT
BRANCH   1   8
ATOM      4  C   UNL     1       1.144  10.036  20.114  0.00  0.00    +0.000 C 
ATOM      5  C   UNL     1       1.695   8.847  19.381  0.00  0.00    +0.000 A 
ATOM      6  C   UNL     1       2.023   7.666  20.061  0.00  0.00    +0.000 A 
ATOM      7  C   UNL     1       2.671   6.616  19.398  0.00  0.00    +0.000 A 
ATOM      8  C   UNL     1       3.009   6.753  18.053  0.00  0.00    +0.000 A 
ATOM      9  C   UNL     1       2.626   7.908  17.356  0.00  0.00    +0.000 A 
ATOM     10  C   UNL     1       1.933   8.931  18.006  0.00  0.00    +0.000 A 
ENDBRANCH   1   8
BRANCH   2  11
ATOM     11  C   UNL     1       2.875   3.712  18.308  0.00  0.00    +0.000 A 
ATOM     12  C   UNL     1       1.571   3.608  17.822  0.00  0.00    +0.000 A 
ATOM     13  C   UNL     1       0.611   2.807  18.456  0.00  0.00    +0.000 A 
ATOM     14  C   UNL     1       0.963   2.031  19.556  0.00  0.00    +0.000 A 
ATOM     15  C   UNL     1       2.272   2.060  20.028  0.00  0.00    +0.000 A 
ATOM     16  C   UNL     1       3.213   2.903  19.403  0.00  0.00    +0.000 A 
BRANCH  16  17
ATOM     17  N   UNL     1       4.550   2.917  19.968  0.00  0.00    +0.000 N 
ATOM     18  O   UNL     1       5.014   4.023  20.277  0.00  0.00    +0.000 OA
ATOM     19  O   UNL     1       5.076   1.818  20.202  0.00  0.00    +0.000 OA
ENDBRANCH  16  17
ENDBRANCH   2  11
BRANCH   1  20
ATOM     20  C   UNL     1       4.887   6.486  16.529  0.00  0.00    +0.000 C 
BRANCH  20  21
ATOM     21  C   UNL     1       6.208   6.833  17.164  0.00  0.00    +0.000 A 
ATOM     22  C   UNL     1       6.861   8.052  17.171  0.00  0.00    +0.000 A 
ATOM     23  C   UNL     1       7.968   8.074  18.070  0.00  0.00    +0.000 A 
ATOM     24  C   UNL     1       8.166   6.853  18.673  0.00  0.00    +0.000 A 
ATOM     25  S   UNL     1       7.026   5.690  18.151  0.00  0.00    +0.000 S 
ENDBRANCH  20  21
ENDBRANCH   1  20
TORSDOF 5
ENDMDL
