MODEL 1
REMARK VINA RESULT:      -8.0      0.000      0.000
REMARK  Name = 
REMARK  7 active torsions:
REMARK  status: ('A' for Active; 'I' for Inactive)
REMARK    1  A    between atoms: C_1  and  C_2
REMARK    2  A    between atoms: C_2  and  C_3
REMARK    3  A    between atoms: C_2  and  C_4
REMARK    4  A    between atoms: C_5  and  C_6
REMARK    5  A    between atoms: CA_16  and  C_17
REMARK    6  A    between atoms: C_17  and  OXT_19
REMARK    7  A    between atoms: C_20  and  C_21
REMARK                            x       y       z     vdW  Elec       q    Type
REMARK                         _______ _______ _______ _____ _____    ______ ____
ROOT
ATOM      1  C   UNL     1       1.654   7.888  19.330  0.00  0.00    +0.000 A 
ATOM      2  C   UNL     1       2.111   6.920  20.250  0.00  0.00    +0.000 A 
ATOM      3  N   UNL     1       1.658   7.451  21.434  0.00  0.00    +0.000 N 
ATOM      4  CA  UNL     1       1.305   8.793  21.402  0.00  0.00    +0.000 A 
ATOM      5  C   UNL     1       0.980   9.065  20.042  0.00  0.00    +0.000 A 
ATOM      6  H   UNL     1       1.782   7.026  22.332  0.00  0.00    +0.000 HD
ENDROOT
BRANCH   5   7
ATOM      7  C   UNL     1       0.297  10.361  19.504  0.00  0.00    +0.000 A 
ATOM      8  C   UNL     1       0.988  11.562  19.566  0.00  0.00    +0.000 A 
ATOM      9 CL   UNL     1       2.176  11.821  18.308  0.00  0.00    +0.000 Cl
ATOM     10  C   UNL     1       0.405  12.734  20.067  0.00  0.00    +0.000 A 
ATOM     11  C   UNL     1      -0.883  13.021  19.671  0.00  0.00    +0.000 A 
ATOM     12  C   UNL     1      -1.602  11.940  19.178  0.00  0.00    +0.000 A 
ATOM     13  N   UNL     1      -2.834  11.984  18.569  0.00  0.00    +0.000 N 
ATOM     14  C   UNL     1      -2.672  11.323  17.401  0.00  0.00    +0.000 A 
ATOM     15  C   UNL     1      -1.566  10.518  17.601  0.00  0.00    +0.000 A 
ATOM     16  C   UNL     1      -1.028  10.648  18.962  0.00  0.00    +0.000 A 
ATOM     17  H   UNL     1      -3.500  12.755  18.691  0.00  0.00    +0.000 HD
ENDBRANCH   5   7
BRANCH   2  18
ATOM     18  C   UNL     1       2.761   5.530  20.321  0.00  0.00    +0.000 A 
ATOM     19  C   UNL     1       2.186   4.598  21.230  0.00  0.00    +0.000 A 
ATOM     20  C   UNL     1       2.301   3.227  21.059  0.00  0.00    +0.000 A 
ATOM     21  N   UNL     1       3.187   2.652  20.256  0.00  0.00    +0.000 NA
ATOM     22  C   UNL     1       4.024   3.550  19.714  0.00  0.00    +0.000 A 
ATOM     23  N   UNL     1       5.206   3.168  19.157  0.00  0.00    +0.000 N 
ATOM     24  C   UNL     1       5.890   4.253  18.738  0.00  0.00    +0.000 A 
ATOM     25  C   UNL     1       5.059   5.363  18.968  0.00  0.00    +0.000 A 
ATOM     26  C   UNL     1       3.891   4.956  19.663  0.00  0.00    +0.000 A 
ATOM     27  H   UNL     1       5.533   2.199  19.177  0.00  0.00    +0.000 HD
ENDBRANCH   2  18
BRANCH   1  29
ATOM     28  C   UNL     1       3.348   8.341  17.527  0.00  0.00    +0.000 C 
ATOM     29  C   UNL     1       1.959   7.826  17.879  0.00  0.00    +0.000 C 
ATOM     30  C   UNL     1       1.602   6.455  17.327  0.00  0.00    +0.000 C 
ENDBRANCH   1  29
BRANCH   4  31
ATOM     31  C   UNL     1       1.386   9.354  22.765  0.00  0.00    +0.000 C 
ATOM     32  O   UNL     1       0.443   9.854  23.300  0.00  0.00    +0.000 OA
BRANCH  31  33
ATOM     33  OXT UNL     1       2.555   9.314  23.386  0.00  0.00    +0.000 OA
ATOM     34  HXT UNL     1       2.512   9.124  24.308  0.00  0.00    +0.000 HD
ENDBRANCH  31  33
ENDBRANCH   4  31
TORSDOF 5
ENDMDL
MODEL 2
REMARK VINA RESULT:      -7.6      1.534      2.249
REMARK  Name = 
REMARK  7 active torsions:
REMARK  status: ('A' for Active; 'I' for Inactive)
REMARK    1  A    between atoms: C_1  and  C_2
REMARK    2  A    between atoms: C_2  and  C_3
REMARK    3  A    between atoms: C_2  and  C_4
REMARK    4  A    between atoms: C_5  and  C_6
REMARK    5  A    between atoms: CA_16  and  C_17
REMARK    6  A    between atoms: C_17  and  OXT_19
REMARK    7  A    between atoms: C_20  and  C_21
REMARK                            x       y       z     vdW  Elec       q    Type
REMARK                         _______ _______ _______ _____ _____    ______ ____
ROOT
ATOM      1  C   UNL     1       1.506   8.203  19.520  0.00  0.00    +0.000 A 
ATOM      2  C   UNL     1       1.833   7.074  20.301  0.00  0.00    +0.000 A 
ATOM      3  N   UNL     1       1.505   7.522  21.558  0.00  0.00    +0.000 N 
ATOM      4  CA  UNL     1       1.367   8.896  21.695  0.00  0.00    +0.000 A 
ATOM      5  C   UNL     1       1.048   9.375  20.393  0.00  0.00    +0.000 A 
ATOM      6  H   UNL     1       1.588   6.979  22.396  0.00  0.00    +0.000 HD
ENDROOT
BRANCH   5   7
ATOM      7  C   UNL     1       0.561  10.815  20.038  0.00  0.00    +0.000 A 
ATOM      8  C   UNL     1      -0.793  11.107  20.120  0.00  0.00    +0.000 A 
ATOM      9 CL   UNL     1      -1.404  11.435  21.727  0.00  0.00    +0.000 Cl
ATOM     10  C   UNL     1      -1.478  11.765  19.090  0.00  0.00    +0.000 A 
ATOM     11  C   UNL     1      -0.858  12.850  18.508  0.00  0.00    +0.000 A 
ATOM     12  C   UNL     1       0.515  12.914  18.698  0.00  0.00    +0.000 A 
ATOM     13  N   UNL     1       1.341  13.965  18.370  0.00  0.00    +0.000 N 
ATOM     14  C   UNL     1       2.026  14.240  19.502  0.00  0.00    +0.000 A 
ATOM     15  C   UNL     1       1.960  13.076  20.247  0.00  0.00    +0.000 A 
ATOM     16  C   UNL     1       1.235  12.011  19.542  0.00  0.00    +0.000 A 
ATOM     17  H   UNL     1       1.102  14.676  17.670  0.00  0.00    +0.000 HD
ENDBRANCH   5   7
BRANCH   2  18
ATOM     18  C   UNL     1       2.258   5.602  20.182  0.00  0.00    +0.000 A 
ATOM     19  C   UNL     1       1.391   4.635  20.763  0.00  0.00    +0.000 A 
ATOM     20  C   UNL     1       1.347   3.320  20.326  0.00  0.00    +0.000 A 
ATOM     21  N   UNL     1       2.288   2.755  19.579  0.00  0.00    +0.000 NA
ATOM     22  C   UNL     1       3.332   3.577  19.390  0.00  0.00    +0.000 A 
ATOM     23  N   UNL     1       4.537   3.103  18.971  0.00  0.00    +0.000 N 
ATOM     24  C   UNL     1       5.434   4.110  18.913  0.00  0.00    +0.000 A 
ATOM     25  C   UNL     1       4.734   5.286  19.231  0.00  0.00    +0.000 A 
ATOM     26  C   UNL     1       3.406   4.970  19.617  0.00  0.00    +0.000 A 
ATOM     27  H   UNL     1       4.717   2.104  18.838  0.00  0.00    +0.000 HD
ENDBRANCH   2  18
BRANCH   1  29
ATOM     28  C   UNL     1       0.892   9.298  17.340  0.00  0.00    +0.000 C 
ATOM     29  C   UNL     1       1.754   8.269  18.058  0.00  0.00    +0.000 C 
ATOM     30  C   UNL     1       3.248   8.349  17.784  0.00  0.00    +0.000 C 
ENDBRANCH   1  29
BRANCH   4  31
ATOM     31  C   UNL     1       1.577   9.272  23.107  0.00  0.00    +0.000 C 
ATOM     32  O   UNL     1       0.671   9.584  23.820  0.00  0.00    +0.000 OA
BRANCH  31  33
ATOM     33  OXT UNL     1       2.816   9.279  23.572  0.00  0.00    +0.000 OA
ATOM     34  HXT UNL     1       3.402   9.882  23.144  0.00  0.00    +0.000 HD
ENDBRANCH  31  33
ENDBRANCH   4  31
TORSDOF 5
ENDMDL
MODEL 3
REMARK VINA RESULT:      -7.5      1.671      2.134
REMARK  Name = 
REMARK  7 active torsions:
REMARK  status: ('A' for Active; 'I' for Inactive)
REMARK    1  A    between atoms: C_1  and  C_2
REMARK    2  A    between atoms: C_2  and  C_3
REMARK    3  A    between atoms: C_2  and  C_4
REMARK    4  A    between atoms: C_5  and  C_6
REMARK    5  A    between atoms: CA_16  and  C_17
REMARK    6  A    between atoms: C_17  and  OXT_19
REMARK    7  A    between atoms: C_20  and  C_21
REMARK                            x       y       z     vdW  Elec       q    Type
REMARK                         _______ _______ _______ _____ _____    ______ ____
ROOT
ATOM      1  C   UNL     1       1.099   9.069  19.502  0.00  0.00    +0.000 A 
ATOM      2  C   UNL     1       1.772   7.914  19.954  0.00  0.00    +0.000 A 
ATOM      3  N   UNL     1       1.554   7.997  21.308  0.00  0.00    +0.000 N 
ATOM      4  CA  UNL     1       1.151   9.238  21.782  0.00  0.00    +0.000 A 
ATOM      5  C   UNL     1       0.543   9.888  20.671  0.00  0.00    +0.000 A 
ATOM      6  H   UNL     1       1.876   7.327  21.979  0.00  0.00    +0.000 HD
ENDROOT
BRANCH   5   7
ATOM      7  C   UNL     1      -0.285  11.210  20.721  0.00  0.00    +0.000 A 
ATOM      8  C   UNL     1       0.342  12.383  21.118  0.00  0.00    +0.000 A 
ATOM      9 CL   UNL     1       1.303  13.183  19.893  0.00  0.00    +0.000 Cl
ATOM     10  C   UNL     1      -0.216  13.242  22.073  0.00  0.00    +0.000 A 
ATOM     11  C   UNL     1      -1.564  13.510  21.974  0.00  0.00    +0.000 A 
ATOM     12  C   UNL     1      -2.293  12.595  21.225  0.00  0.00    +0.000 A 
ATOM     13  N   UNL     1      -3.606  12.716  20.834  0.00  0.00    +0.000 N 
ATOM     14  C   UNL     1      -3.595  12.518  19.497  0.00  0.00    +0.000 A 
ATOM     15  C   UNL     1      -2.429  11.815  19.255  0.00  0.00    +0.000 A 
ATOM     16  C   UNL     1      -1.692  11.525  20.492  0.00  0.00    +0.000 A 
ATOM     17  H   UNL     1      -4.285  13.323  21.308  0.00  0.00    +0.000 HD
ENDBRANCH   5   7
BRANCH   2  18
ATOM     18  C   UNL     1       2.475   6.646  19.445  0.00  0.00    +0.000 A 
ATOM     19  C   UNL     1       2.328   5.471  20.234  0.00  0.00    +0.000 A 
ATOM     20  C   UNL     1       2.443   4.198  19.697  0.00  0.00    +0.000 A 
ATOM     21  N   UNL     1       2.998   3.937  18.520  0.00  0.00    +0.000 NA
ATOM     22  C   UNL     1       3.527   5.038  17.964  0.00  0.00    +0.000 A 
ATOM     23  N   UNL     1       4.437   4.953  16.956  0.00  0.00    +0.000 N 
ATOM     24  C   UNL     1       4.859   6.188  16.611  0.00  0.00    +0.000 A 
ATOM     25  C   UNL     1       4.115   7.095  17.385  0.00  0.00    +0.000 A 
ATOM     26  C   UNL     1       3.310   6.390  18.316  0.00  0.00    +0.000 A 
ATOM     27  H   UNL     1       4.799   4.058  16.618  0.00  0.00    +0.000 HD
ENDBRANCH   2  18
BRANCH   1  29
ATOM     28  C   UNL     1      -0.291   9.748  17.518  0.00  0.00    +0.000 C 
ATOM     29  C   UNL     1       1.102   9.497  18.081  0.00  0.00    +0.000 C 
ATOM     30  C   UNL     1       2.111  10.615  17.873  0.00  0.00    +0.000 C 
ENDBRANCH   1  29
BRANCH   4  31
ATOM     31  C   UNL     1       1.490   9.349  23.215  0.00  0.00    +0.000 C 
ATOM     32  O   UNL     1       0.658   9.540  24.049  0.00  0.00    +0.000 OA
BRANCH  31  33
ATOM     33  OXT UNL     1       2.764   9.255  23.562  0.00  0.00    +0.000 OA
ATOM     34  HXT UNL     1       3.300   8.733  22.988  0.00  0.00    +0.000 HD
ENDBRANCH  31  33
ENDBRANCH   4  31
TORSDOF 5
ENDMDL
MODEL 4
REMARK VINA RESULT:      -7.5      1.399      2.382
REMARK  Name = 
REMARK  7 active torsions:
REMARK  status: ('A' for Active; 'I' for Inactive)
REMARK    1  A    between atoms: C_1  and  C_2
REMARK    2  A    between atoms: C_2  and  C_3
REMARK    3  A    between atoms: C_2  and  C_4
REMARK    4  A    between atoms: C_5  and  C_6
REMARK    5  A    between atoms: CA_16  and  C_17
REMARK    6  A    between atoms: C_17  and  OXT_19
REMARK    7  A    between atoms: C_20  and  C_21
REMARK                            x       y       z     vdW  Elec       q    Type
REMARK                         _______ _______ _______ _____ _____    ______ ____
ROOT
ATOM      1  C   UNL     1       1.110   8.929  19.517  0.00  0.00    +0.000 A 
ATOM      2  C   UNL     1       1.740   7.772  20.023  0.00  0.00    +0.000 A 
ATOM      3  N   UNL     1       1.519   7.921  21.371  0.00  0.00    +0.000 N 
ATOM      4  CA  UNL     1       1.158   9.194  21.789  0.00  0.00    +0.000 A 
ATOM      5  C   UNL     1       0.577   9.816  20.647  0.00  0.00    +0.000 A 
ATOM      6  H   UNL     1       1.814   7.269  22.072  0.00  0.00    +0.000 HD
ENDROOT
BRANCH   5   7
ATOM      7  C   UNL     1      -0.204  11.167  20.636  0.00  0.00    +0.000 A 
ATOM      8  C   UNL     1       0.482  12.345  20.897  0.00  0.00    +0.000 A 
ATOM      9 CL   UNL     1       1.390  13.007  19.556  0.00  0.00    +0.000 Cl
ATOM     10  C   UNL     1       0.010  13.297  21.809  0.00  0.00    +0.000 A 
ATOM     11  C   UNL     1      -1.333  13.605  21.767  0.00  0.00    +0.000 A 
ATOM     12  C   UNL     1      -2.133  12.660  21.140  0.00  0.00    +0.000 A 
ATOM     13  N   UNL     1      -3.464  12.796  20.818  0.00  0.00    +0.000 N 
ATOM     14  C   UNL     1      -3.540  12.491  19.503  0.00  0.00    +0.000 A 
ATOM     15  C   UNL     1      -2.414  11.728  19.252  0.00  0.00    +0.000 A 
ATOM     16  C   UNL     1      -1.612  11.513  20.464  0.00  0.00    +0.000 A 
ATOM     17  H   UNL     1      -4.093  13.464  21.278  0.00  0.00    +0.000 HD
ENDBRANCH   5   7
BRANCH   2  18
ATOM     18  C   UNL     1       2.401   6.459  19.573  0.00  0.00    +0.000 A 
ATOM     19  C   UNL     1       3.435   6.561  18.601  0.00  0.00    +0.000 A 
ATOM     20  C   UNL     1       4.432   5.607  18.475  0.00  0.00    +0.000 A 
ATOM     21  N   UNL     1       4.360   4.387  18.995  0.00  0.00    +0.000 NA
ATOM     22  C   UNL     1       3.166   4.158  19.563  0.00  0.00    +0.000 A 
ATOM     23  N   UNL     1       2.746   2.893  19.837  0.00  0.00    +0.000 N 
ATOM     24  C   UNL     1       1.497   2.923  20.348  0.00  0.00    +0.000 A 
ATOM     25  C   UNL     1       1.152   4.279  20.479  0.00  0.00    +0.000 A 
ATOM     26  C   UNL     1       2.167   5.093  19.914  0.00  0.00    +0.000 A 
ATOM     27  H   UNL     1       3.287   2.066  19.572  0.00  0.00    +0.000 HD
ENDBRANCH   2  18
BRANCH   1  29
ATOM     28  C   UNL     1      -0.239   9.636  17.515  0.00  0.00    +0.000 C 
ATOM     29  C   UNL     1       1.134   9.296  18.079  0.00  0.00    +0.000 C 
ATOM     30  C   UNL     1       2.229  10.318  17.818  0.00  0.00    +0.000 C 
ENDBRANCH   1  29
BRANCH   4  31
ATOM     31  C   UNL     1       1.494   9.355  23.218  0.00  0.00    +0.000 C 
ATOM     32  O   UNL     1       0.661   9.586  24.041  0.00  0.00    +0.000 OA
BRANCH  31  33
ATOM     33  OXT UNL     1       2.766   9.259  23.573  0.00  0.00    +0.000 OA
ATOM     34  HXT UNL     1       3.223  10.080  23.651  0.00  0.00    +0.000 HD
ENDBRANCH  31  33
ENDBRANCH   4  31
TORSDOF 5
ENDMDL
MODEL 5
REMARK VINA RESULT:      -7.4      1.843      2.996
REMARK  Name = 
REMARK  7 active torsions:
REMARK  status: ('A' for Active; 'I' for Inactive)
REMARK    1  A    between atoms: C_1  and  C_2
REMARK    2  A    between atoms: C_2  and  C_3
REMARK    3  A    between atoms: C_2  and  C_4
REMARK    4  A    between atoms: C_5  and  C_6
REMARK    5  A    between atoms: CA_16  and  C_17
REMARK    6  A    between atoms: C_17  and  OXT_19
REMARK    7  A    between atoms: C_20  and  C_21
REMARK                            x       y       z     vdW  Elec       q    Type
REMARK                         _______ _______ _______ _____ _____    ______ ____
ROOT
ATOM      1  C   UNL     1       1.223   8.967  19.558  0.00  0.00    +0.000 A 
ATOM      2  C   UNL     1       1.778   7.767  20.050  0.00  0.00    +0.000 A 
ATOM      3  N   UNL     1       1.567   7.914  21.400  0.00  0.00    +0.000 N 
ATOM      4  CA  UNL     1       1.288   9.204  21.832  0.00  0.00    +0.000 A 
ATOM      5  C   UNL     1       0.748   9.874  20.698  0.00  0.00    +0.000 A 
ATOM      6  H   UNL     1       1.820   7.238  22.094  0.00  0.00    +0.000 HD
ENDROOT
BRANCH   5   7
ATOM      7  C   UNL     1       0.054  11.272  20.702  0.00  0.00    +0.000 A 
ATOM      8  C   UNL     1      -1.195  11.402  21.292  0.00  0.00    +0.000 A 
ATOM      9 CL   UNL     1      -1.199  11.538  23.037  0.00  0.00    +0.000 Cl
ATOM     10  C   UNL     1      -2.258  12.053  20.654  0.00  0.00    +0.000 A 
ATOM     11  C   UNL     1      -1.981  13.241  20.013  0.00  0.00    +0.000 A 
ATOM     12  C   UNL     1      -0.642  13.446  19.706  0.00  0.00    +0.000 A 
ATOM     13  N   UNL     1      -0.079  14.605  19.224  0.00  0.00    +0.000 N 
ATOM     14  C   UNL     1       0.949  14.871  20.061  0.00  0.00    +0.000 A 
ATOM     15  C   UNL     1       1.251  13.655  20.646  0.00  0.00    +0.000 A 
ATOM     16  C   UNL     1       0.405  12.570  20.133  0.00  0.00    +0.000 A 
ATOM     17  H   UNL     1      -0.613  15.335  18.739  0.00  0.00    +0.000 HD
ENDBRANCH   5   7
BRANCH   2  18
ATOM     18  C   UNL     1       2.354   6.419  19.586  0.00  0.00    +0.000 A 
ATOM     19  C   UNL     1       3.361   6.463  18.582  0.00  0.00    +0.000 A 
ATOM     20  C   UNL     1       4.302   5.457  18.430  0.00  0.00    +0.000 A 
ATOM     21  N   UNL     1       4.181   4.244  18.957  0.00  0.00    +0.000 NA
ATOM     22  C   UNL     1       2.995   4.080  19.563  0.00  0.00    +0.000 A 
ATOM     23  N   UNL     1       2.517   2.840  19.854  0.00  0.00    +0.000 N 
ATOM     24  C   UNL     1       1.288   2.938  20.404  0.00  0.00    +0.000 A 
ATOM     25  C   UNL     1       1.019   4.311  20.540  0.00  0.00    +0.000 A 
ATOM     26  C   UNL     1       2.058   5.068  19.940  0.00  0.00    +0.000 A 
ATOM     27  H   UNL     1       3.005   1.985  19.577  0.00  0.00    +0.000 HD
ENDBRANCH   2  18
BRANCH   1  29
ATOM     28  C   UNL     1      -0.093   9.695  17.542  0.00  0.00    +0.000 C 
ATOM     29  C   UNL     1       1.270   9.346  18.124  0.00  0.00    +0.000 C 
ATOM     30  C   UNL     1       2.372  10.369  17.889  0.00  0.00    +0.000 C 
ENDBRANCH   1  29
BRANCH   4  31
ATOM     31  C   UNL     1       1.634   9.327  23.262  0.00  0.00    +0.000 C 
ATOM     32  O   UNL     1       0.800   9.468  24.105  0.00  0.00    +0.000 OA
BRANCH  31  33
ATOM     33  OXT UNL     1       2.914   9.303  23.597  0.00  0.00    +0.000 OA
ATOM     34  HXT UNL     1       3.218   8.489  23.964  0.00  0.00    +0.000 HD
ENDBRANCH  31  33
ENDBRANCH   4  31
TORSDOF 5
ENDMDL
MODEL 6
REMARK VINA RESULT:      -7.4      2.047      2.812
REMARK  Name = 
REMARK  7 active torsions:
REMARK  status: ('A' for Active; 'I' for Inactive)
REMARK    1  A    between atoms: C_1  and  C_2
REMARK    2  A    between atoms: C_2  and  C_3
REMARK    3  A    between atoms: C_2  and  C_4
REMARK    4  A    between atoms: C_5  and  C_6
REMARK    5  A    between atoms: CA_16  and  C_17
REMARK    6  A    between atoms: C_17  and  OXT_19
REMARK    7  A    between atoms: C_20  and  C_21
REMARK                            x       y       z     vdW  Elec       q    Type
REMARK                         _______ _______ _______ _____ _____    ______ ____
ROOT
ATOM      1  C   UNL     1       1.188   9.094  19.610  0.00  0.00    +0.000 A 
ATOM      2  C   UNL     1       1.737   7.876  20.062  0.00  0.00    +0.000 A 
ATOM      3  N   UNL     1       1.542   7.987  21.418  0.00  0.00    +0.000 N 
ATOM      4  CA  UNL     1       1.278   9.266  21.889  0.00  0.00    +0.000 A 
ATOM      5  C   UNL     1       0.732   9.973  20.780  0.00  0.00    +0.000 A 
ATOM      6  H   UNL     1       1.796   7.290  22.090  0.00  0.00    +0.000 HD
ENDROOT
BRANCH   5   7
ATOM      7  C   UNL     1       0.051  11.375  20.830  0.00  0.00    +0.000 A 
ATOM      8  C   UNL     1      -1.258  11.472  21.281  0.00  0.00    +0.000 A 
ATOM      9 CL   UNL     1      -1.467  11.451  23.019  0.00  0.00    +0.000 Cl
ATOM     10  C   UNL     1      -2.236  12.196  20.586  0.00  0.00    +0.000 A 
ATOM     11  C   UNL     1      -1.879  13.432  20.092  0.00  0.00    +0.000 A 
ATOM     12  C   UNL     1      -0.513  13.642  19.963  0.00  0.00    +0.000 A 
ATOM     13  N   UNL     1       0.110  14.830  19.658  0.00  0.00    +0.000 N 
ATOM     14  C   UNL     1       1.034  15.003  20.629  0.00  0.00    +0.000 A 
ATOM     15  C   UNL     1       1.259  13.734  21.132  0.00  0.00    +0.000 A 
ATOM     16  C   UNL     1       0.472  12.713  20.427  0.00  0.00    +0.000 A 
ATOM     17  H   UNL     1      -0.359  15.609  19.182  0.00  0.00    +0.000 HD
ENDBRANCH   5   7
BRANCH   2  18
ATOM     18  C   UNL     1       2.297   6.537  19.554  0.00  0.00    +0.000 A 
ATOM     19  C   UNL     1       1.997   5.382  20.328  0.00  0.00    +0.000 A 
ATOM     20  C   UNL     1       1.972   4.108  19.781  0.00  0.00    +0.000 A 
ATOM     21  N   UNL     1       2.517   3.793  18.612  0.00  0.00    +0.000 NA
ATOM     22  C   UNL     1       3.182   4.829  18.077  0.00  0.00    +0.000 A 
ATOM     23  N   UNL     1       4.095   4.646  17.086  0.00  0.00    +0.000 N 
ATOM     24  C   UNL     1       4.666   5.825  16.761  0.00  0.00    +0.000 A 
ATOM     25  C   UNL     1       4.018   6.807  17.530  0.00  0.00    +0.000 A 
ATOM     26  C   UNL     1       3.118   6.194  18.438  0.00  0.00    +0.000 A 
ATOM     27  H   UNL     1       4.356   3.717  16.746  0.00  0.00    +0.000 HD
ENDBRANCH   2  18
BRANCH   1  29
ATOM     28  C   UNL     1      -0.146   9.870  17.623  0.00  0.00    +0.000 C 
ATOM     29  C   UNL     1       1.223   9.513  18.187  0.00  0.00    +0.000 C 
ATOM     30  C   UNL     1       2.317  10.548  17.973  0.00  0.00    +0.000 C 
ENDBRANCH   1  29
BRANCH   4  31
ATOM     31  C   UNL     1       1.640   9.347  23.318  0.00  0.00    +0.000 C 
ATOM     32  O   UNL     1       0.816   9.476  24.173  0.00  0.00    +0.000 OA
BRANCH  31  33
ATOM     33  OXT UNL     1       2.923   9.295  23.639  0.00  0.00    +0.000 OA
ATOM     34  HXT UNL     1       3.152   8.637  24.275  0.00  0.00    +0.000 HD
ENDBRANCH  31  33
ENDBRANCH   4  31
TORSDOF 5
ENDMDL
MODEL 7
REMARK VINA RESULT:      -7.4      2.893      7.356
REMARK  Name = 
REMARK  7 active torsions:
REMARK  status: ('A' for Active; 'I' for Inactive)
REMARK    1  A    between atoms: C_1  and  C_2
REMARK    2  A    between atoms: C_2  and  C_3
REMARK    3  A    between atoms: C_2  and  C_4
REMARK    4  A    between atoms: C_5  and  C_6
REMARK    5  A    between atoms: CA_16  and  C_17
REMARK    6  A    between atoms: C_17  and  OXT_19
REMARK    7  A    between atoms: C_20  and  C_21
REMARK                            x       y       z     vdW  Elec       q    Type
REMARK                         _______ _______ _______ _____ _____    ______ ____
ROOT
ATOM      1  C   UNL     1       1.977   7.848  19.244  0.00  0.00    +0.000 A 
ATOM      2  C   UNL     1       1.180   8.035  20.394  0.00  0.00    +0.000 A 
ATOM      3  N   UNL     1       1.441   6.876  21.085  0.00  0.00    +0.000 N 
ATOM      4  CA  UNL     1       2.004   5.844  20.346  0.00  0.00    +0.000 A 
ATOM      5  C   UNL     1       2.659   6.476  19.251  0.00  0.00    +0.000 A 
ATOM      6  H   UNL     1       1.057   6.648  21.981  0.00  0.00    +0.000 HD
ENDROOT
BRANCH   5   7
ATOM      7  C   UNL     1       3.643   5.793  18.252  0.00  0.00    +0.000 A 
ATOM      8  C   UNL     1       3.667   4.408  18.171  0.00  0.00    +0.000 A 
ATOM      9 CL   UNL     1       2.395   3.680  17.215  0.00  0.00    +0.000 Cl
ATOM     10  C   UNL     1       4.863   3.679  18.201  0.00  0.00    +0.000 A 
ATOM     11  C   UNL     1       5.913   4.153  17.444  0.00  0.00    +0.000 A 
ATOM     12  C   UNL     1       5.822   5.491  17.084  0.00  0.00    +0.000 A 
ATOM     13  N   UNL     1       6.640   6.161  16.203  0.00  0.00    +0.000 N 
ATOM     14  C   UNL     1       5.801   6.743  15.318  0.00  0.00    +0.000 A 
ATOM     15  C   UNL     1       4.588   6.820  15.979  0.00  0.00    +0.000 A 
ATOM     16  C   UNL     1       4.673   6.300  17.350  0.00  0.00    +0.000 A 
ATOM     17  H   UNL     1       7.587   5.849  15.960  0.00  0.00    +0.000 HD
ENDBRANCH   5   7
BRANCH   2  18
ATOM     18  C   UNL     1       0.314   9.084  21.110  0.00  0.00    +0.000 A 
ATOM     19  C   UNL     1       0.076   8.880  22.498  0.00  0.00    +0.000 A 
ATOM     20  C   UNL     1      -0.220   9.924  23.361  0.00  0.00    +0.000 A 
ATOM     21  N   UNL     1      -0.619  11.126  22.961  0.00  0.00    +0.000 NA
ATOM     22  C   UNL     1      -0.802  11.173  21.633  0.00  0.00    +0.000 A 
ATOM     23  N   UNL     1      -1.531  12.166  21.055  0.00  0.00    +0.000 N 
ATOM     24  C   UNL     1      -1.618  11.960  19.724  0.00  0.00    +0.000 A 
ATOM     25  C   UNL     1      -0.833  10.829  19.444  0.00  0.00    +0.000 A 
ATOM     26  C   UNL     1      -0.360  10.256  20.652  0.00  0.00    +0.000 A 
ATOM     27  H   UNL     1      -2.017  12.880  21.605  0.00  0.00    +0.000 HD
ENDBRANCH   2  18
BRANCH   1  29
ATOM     28  C   UNL     1       0.674   8.867  17.349  0.00  0.00    +0.000 C 
ATOM     29  C   UNL     1       1.990   8.806  18.111  0.00  0.00    +0.000 C 
ATOM     30  C   UNL     1       2.556  10.144  18.563  0.00  0.00    +0.000 C 
ENDBRANCH   1  29
BRANCH   4  31
ATOM     31  C   UNL     1       1.718   4.555  21.007  0.00  0.00    +0.000 C 
ATOM     32  O   UNL     1       2.422   4.113  21.864  0.00  0.00    +0.000 OA
BRANCH  31  33
ATOM     33  OXT UNL     1       0.657   3.872  20.607  0.00  0.00    +0.000 OA
ATOM     34  HXT UNL     1      -0.023   3.772  21.253  0.00  0.00    +0.000 HD
ENDBRANCH  31  33
ENDBRANCH   4  31
TORSDOF 5
ENDMDL
MODEL 8
REMARK VINA RESULT:      -7.3      1.924      2.561
REMARK  Name = 
REMARK  7 active torsions:
REMARK  status: ('A' for Active; 'I' for Inactive)
REMARK    1  A    between atoms: C_1  and  C_2
REMARK    2  A    between atoms: C_2  and  C_3
REMARK    3  A    between atoms: C_2  and  C_4
REMARK    4  A    between atoms: C_5  and  C_6
REMARK    5  A    between atoms: CA_16  and  C_17
REMARK    6  A    between atoms: C_17  and  OXT_19
REMARK    7  A    between atoms: C_20  and  C_21
REMARK                            x       y       z     vdW  Elec       q    Type
REMARK                         _______ _______ _______ _____ _____    ______ ____
ROOT
ATOM      1  C   UNL     1       1.430   8.159  19.523  0.00  0.00    +0.000 A 
ATOM      2  C   UNL     1       1.664   7.019  20.322  0.00  0.00    +0.000 A 
ATOM      3  N   UNL     1       1.346   7.503  21.568  0.00  0.00    +0.000 N 
ATOM      4  CA  UNL     1       1.300   8.886  21.688  0.00  0.00    +0.000 A 
ATOM      5  C   UNL     1       1.038   9.370  20.375  0.00  0.00    +0.000 A 
ATOM      6  H   UNL     1       1.377   6.966  22.413  0.00  0.00    +0.000 HD
ENDROOT
BRANCH   5   7
ATOM      7  C   UNL     1       0.657  10.835  19.996  0.00  0.00    +0.000 A 
ATOM      8  C   UNL     1      -0.680  11.208  20.004  0.00  0.00    +0.000 A 
ATOM      9 CL   UNL     1      -1.358  11.574  21.575  0.00  0.00    +0.000 Cl
ATOM     10  C   UNL     1      -1.267  11.903  18.939  0.00  0.00    +0.000 A 
ATOM     11  C   UNL     1      -0.552  12.948  18.393  0.00  0.00    +0.000 A 
ATOM     12  C   UNL     1       0.810  12.931  18.658  0.00  0.00    +0.000 A 
ATOM     13  N   UNL     1       1.713  13.931  18.378  0.00  0.00    +0.000 N 
ATOM     14  C   UNL     1       2.350  14.167  19.547  0.00  0.00    +0.000 A 
ATOM     15  C   UNL     1       2.174  13.010  20.284  0.00  0.00    +0.000 A 
ATOM     16  C   UNL     1       1.428  11.988  19.539  0.00  0.00    +0.000 A 
ATOM     17  H   UNL     1       1.555  14.653  17.667  0.00  0.00    +0.000 HD
ENDBRANCH   5   7
BRANCH   2  18
ATOM     18  C   UNL     1       1.989   5.520  20.227  0.00  0.00    +0.000 A 
ATOM     19  C   UNL     1       2.280   4.848  21.447  0.00  0.00    +0.000 A 
ATOM     20  C   UNL     1       2.091   3.484  21.606  0.00  0.00    +0.000 A 
ATOM     21  N   UNL     1       1.939   2.634  20.597  0.00  0.00    +0.000 NA
ATOM     22  C   UNL     1       2.095   3.239  19.409  0.00  0.00    +0.000 A 
ATOM     23  N   UNL     1       2.332   2.522  18.278  0.00  0.00    +0.000 N 
ATOM     24  C   UNL     1       2.509   3.356  17.232  0.00  0.00    +0.000 A 
ATOM     25  C   UNL     1       2.289   4.657  17.717  0.00  0.00    +0.000 A 
ATOM     26  C   UNL     1       2.098   4.623  19.122  0.00  0.00    +0.000 A 
ATOM     27  H   UNL     1       2.459   1.506  18.289  0.00  0.00    +0.000 HD
ENDBRANCH   2  18
BRANCH   1  29
ATOM     28  C   UNL     1       0.904   9.243  17.315  0.00  0.00    +0.000 C 
ATOM     29  C   UNL     1       1.707   8.190  18.065  0.00  0.00    +0.000 C 
ATOM     30  C   UNL     1       3.208   8.202  17.819  0.00  0.00    +0.000 C 
ENDBRANCH   1  29
BRANCH   4  31
ATOM     31  C   UNL     1       1.511   9.263  23.099  0.00  0.00    +0.000 C 
ATOM     32  O   UNL     1       0.606   9.581  23.811  0.00  0.00    +0.000 OA
BRANCH  31  33
ATOM     33  OXT UNL     1       2.750   9.266  23.565  0.00  0.00    +0.000 OA
ATOM     34  HXT UNL     1       2.985  10.023  24.076  0.00  0.00    +0.000 HD
ENDBRANCH  31  33
ENDBRANCH   4  31
TORSDOF 5
ENDMDL
MODEL 9
REMARK VINA RESULT:      -7.3      1.830      2.973
REMARK  Name = 
REMARK  7 active torsions:
REMARK  status: ('A' for Active; 'I' for Inactive)
REMARK    1  A    between atoms: C_1  and  C_2
REMARK    2  A    between atoms: C_2  and  C_3
REMARK    3  A    between atoms: C_2  and  C_4
REMARK    4  A    between atoms: C_5  and  C_6
REMARK    5  A    between atoms: CA_16  and  C_17
REMARK    6  A    between atoms: C_17  and  OXT_19
REMARK    7  A    between atoms: C_20  and  C_21
REMARK                            x       y       z     vdW  Elec       q    Type
REMARK                         _______ _______ _______ _____ _____    ______ ____
ROOT
ATOM      1  C   UNL     1       1.301   8.912  19.462  0.00  0.00    +0.000 A 
ATOM      2  C   UNL     1       1.821   7.725  20.022  0.00  0.00    +0.000 A 
ATOM      3  N   UNL     1       1.507   7.902  21.349  0.00  0.00    +0.000 N 
ATOM      4  CA  UNL     1       1.192   9.199  21.729  0.00  0.00    +0.000 A 
ATOM      5  C   UNL     1       0.738   9.842  20.542  0.00  0.00    +0.000 A 
ATOM      6  H   UNL     1       1.709   7.242  22.075  0.00  0.00    +0.000 HD
ENDROOT
BRANCH   5   7
ATOM      7  C   UNL     1       0.042  11.236  20.462  0.00  0.00    +0.000 A 
ATOM      8  C   UNL     1      -0.646  11.580  19.307  0.00  0.00    +0.000 A 
ATOM      9 CL   UNL     1      -2.256  10.911  19.155  0.00  0.00    +0.000 Cl
ATOM     10  C   UNL     1      -0.465  12.814  18.669  0.00  0.00    +0.000 A 
ATOM     11  C   UNL     1      -0.412  13.937  19.465  0.00  0.00    +0.000 A 
ATOM     12  C   UNL     1      -0.120  13.698  20.801  0.00  0.00    +0.000 A 
ATOM     13  N   UNL     1      -0.170  14.613  21.828  0.00  0.00    +0.000 N 
ATOM     14  C   UNL     1      -0.946  14.037  22.773  0.00  0.00    +0.000 A 
ATOM     15  C   UNL     1      -0.888  12.682  22.500  0.00  0.00    +0.000 A 
ATOM     16  C   UNL     1      -0.012  12.386  21.360  0.00  0.00    +0.000 A 
ATOM     17  H   UNL     1      -0.115  15.628  21.686  0.00  0.00    +0.000 HD
ENDBRANCH   5   7
BRANCH   2  18
ATOM     18  C   UNL     1       2.434   6.370  19.634  0.00  0.00    +0.000 A 
ATOM     19  C   UNL     1       3.504   6.395  18.696  0.00  0.00    +0.000 A 
ATOM     20  C   UNL     1       4.458   5.392  18.633  0.00  0.00    +0.000 A 
ATOM     21  N   UNL     1       4.312   4.193  19.185  0.00  0.00    +0.000 NA
ATOM     22  C   UNL     1       3.090   4.037  19.717  0.00  0.00    +0.000 A 
ATOM     23  N   UNL     1       2.601   2.802  20.011  0.00  0.00    +0.000 N 
ATOM     24  C   UNL     1       1.339   2.904  20.477  0.00  0.00    +0.000 A 
ATOM     25  C   UNL     1       1.053   4.278  20.557  0.00  0.00    +0.000 A 
ATOM     26  C   UNL     1       2.124   5.027  20.005  0.00  0.00    +0.000 A 
ATOM     27  H   UNL     1       3.112   1.943  19.790  0.00  0.00    +0.000 HD
ENDBRANCH   2  18
BRANCH   1  29
ATOM     28  C   UNL     1       0.144   9.257  17.256  0.00  0.00    +0.000 C 
ATOM     29  C   UNL     1       1.456   9.259  18.028  0.00  0.00    +0.000 C 
ATOM     30  C   UNL     1       2.308  10.510  17.882  0.00  0.00    +0.000 C 
ENDBRANCH   1  29
BRANCH   4  31
ATOM     31  C   UNL     1       1.428   9.356  23.178  0.00  0.00    +0.000 C 
ATOM     32  O   UNL     1       0.541   9.599  23.941  0.00  0.00    +0.000 OA
BRANCH  31  33
ATOM     33  OXT UNL     1       2.669   9.244  23.623  0.00  0.00    +0.000 OA
ATOM     34  HXT UNL     1       3.307   8.996  22.974  0.00  0.00    +0.000 HD
ENDBRANCH  31  33
ENDBRANCH   4  31
TORSDOF 5
ENDMDL
