MODEL 1
REMARK VINA RESULT:      -7.7      0.000      0.000
REMARK  Name = 
REMARK  9 active torsions:
REMARK  status: ('A' for Active; 'I' for Inactive)
REMARK    1  A    between atoms: C_1  and  O_2
REMARK    2  A    between atoms: O_2  and  C_3
REMARK    3  A    between atoms: C_6  and  S_7
REMARK    4  A    between atoms: S_7  and  C_8
REMARK    5  A    between atoms: C_8  and  C_9
REMARK    6  A    between atoms: C_9  and  N_10
REMARK    7  A    between atoms: N_10  and  C_11
REMARK    8  A    between atoms: C_11  and  C_12
REMARK    9  A    between atoms: C_12  and  N_13
REMARK                            x       y       z     vdW  Elec       q    Type
REMARK                         _______ _______ _______ _____ _____    ______ ____
ROOT
ATOM      1  C   UNL     1       1.896   7.962  20.873  0.00  0.00    +0.000 C 
ENDROOT
BRANCH   1   2
ATOM      2  N   UNL     1       2.284   7.027  19.757  0.00  0.00    +0.000 N 
ATOM      3  C   UNL     1       1.992   5.704  20.072  0.00  0.00    +0.000 C 
ATOM      4  O   UNL     1       1.622   5.308  21.177  0.00  0.00    +0.000 OA
ATOM      5  C   UNL     1       2.154   4.738  18.984  0.00  0.00    +0.000 A 
ATOM      6  C   UNL     1       1.498   3.492  19.097  0.00  0.00    +0.000 A 
ATOM      7  C   UNL     1       1.885   2.480  18.239  0.00  0.00    +0.000 A 
ATOM      8  C   UNL     1       2.930   2.735  17.307  0.00  0.00    +0.000 A 
ATOM      9  C   UNL     1       3.518   3.956  17.223  0.00  0.00    +0.000 A 
ATOM     10  C   UNL     1       4.620   4.133  16.420  0.00  0.00    +0.000 A 
ATOM     11  C   UNL     1       5.330   5.350  16.602  0.00  0.00    +0.000 A 
ATOM     12  C   UNL     1       4.654   6.596  16.724  0.00  0.00    +0.000 A 
ATOM     13  C   UNL     1       3.647   6.350  17.685  0.00  0.00    +0.000 A 
ATOM     14  C   UNL     1       3.116   5.019  17.971  0.00  0.00    +0.000 A 
ATOM     15  C   UNL     1       2.826   7.425  18.485  0.00  0.00    +0.000 C 
ATOM     16  O   UNL     1       2.539   8.508  17.971  0.00  0.00    +0.000 OA
ENDBRANCH   1   2
BRANCH   1  17
ATOM     17  C   UNL     1       0.507   8.579  20.767  0.00  0.00    +0.000 C 
BRANCH  17  18
ATOM     18  N   UNL     1      -0.037   9.137  22.019  0.00  0.00    +0.000 NA
ATOM     19  H   UNL     1      -1.029   8.908  22.099  0.00  0.00    +0.000 HD
BRANCH  18  20
ATOM     20  C   UNL     1       0.118  10.606  21.969  0.00  0.00    +0.000 C 
BRANCH  20  21
ATOM     21  C   UNL     1      -1.239  11.312  21.929  0.00  0.00    +0.000 C 
BRANCH  21  22
ATOM     22  S   UNL     1      -1.251  12.535  20.552  0.00  0.00    +0.000 S 
BRANCH  22  26
ATOM     23  C   UNL     1      -2.559  10.087  16.880  0.00  0.00    +0.000 A 
ATOM     24  C   UNL     1      -3.426  11.012  17.480  0.00  0.00    +0.000 A 
ATOM     25  C   UNL     1      -2.968  11.798  18.544  0.00  0.00    +0.000 A 
ATOM     26  C   UNL     1      -1.701  11.555  19.116  0.00  0.00    +0.000 A 
ATOM     27  C   UNL     1      -0.848  10.642  18.521  0.00  0.00    +0.000 A 
ATOM     28  C   UNL     1      -1.293   9.910  17.442  0.00  0.00    +0.000 A 
BRANCH  23  30
ATOM     29  C   UNL     1      -3.468  10.367  14.691  0.00  0.00    +0.000 C 
ATOM     30  O   UNL     1      -3.002   9.499  15.720  0.00  0.00    +0.000 OA
ENDBRANCH  23  30
ENDBRANCH  22  26
ENDBRANCH  21  22
ENDBRANCH  20  21
ENDBRANCH  18  20
ENDBRANCH  17  18
ENDBRANCH   1  17
TORSDOF 8
ENDMDL
MODEL 2
REMARK VINA RESULT:      -7.6      2.705      8.041
REMARK  Name = 
REMARK  9 active torsions:
REMARK  status: ('A' for Active; 'I' for Inactive)
REMARK    1  A    between atoms: C_1  and  O_2
REMARK    2  A    between atoms: O_2  and  C_3
REMARK    3  A    between atoms: C_6  and  S_7
REMARK    4  A    between atoms: S_7  and  C_8
REMARK    5  A    between atoms: C_8  and  C_9
REMARK    6  A    between atoms: C_9  and  N_10
REMARK    7  A    between atoms: N_10  and  C_11
REMARK    8  A    between atoms: C_11  and  C_12
REMARK    9  A    between atoms: C_12  and  N_13
REMARK                            x       y       z     vdW  Elec       q    Type
REMARK                         _______ _______ _______ _____ _____    ______ ____
ROOT
ATOM      1  C   UNL     1       2.286   7.568  20.036  0.00  0.00    +0.000 C 
ENDROOT
BRANCH   1   2
ATOM      2  N   UNL     1       1.314   8.694  19.795  0.00  0.00    +0.000 N 
ATOM      3  C   UNL     1       0.867   9.249  20.990  0.00  0.00    +0.000 C 
ATOM      4  O   UNL     1       1.091   8.789  22.109  0.00  0.00    +0.000 OA
ATOM      5  C   UNL     1       0.069  10.471  20.867  0.00  0.00    +0.000 A 
ATOM      6  C   UNL     1      -0.060  11.299  22.005  0.00  0.00    +0.000 A 
ATOM      7  C   UNL     1      -1.041  12.272  21.985  0.00  0.00    +0.000 A 
ATOM      8  C   UNL     1      -1.880  12.376  20.839  0.00  0.00    +0.000 A 
ATOM      9  C   UNL     1      -1.705  11.568  19.762  0.00  0.00    +0.000 A 
ATOM     10  C   UNL     1      -2.618  11.590  18.733  0.00  0.00    +0.000 A 
ATOM     11  C   UNL     1      -2.513  10.533  17.790  0.00  0.00    +0.000 A 
ATOM     12  C   UNL     1      -1.255  10.119  17.270  0.00  0.00    +0.000 A 
ATOM     13  C   UNL     1      -0.439   9.972  18.416  0.00  0.00    +0.000 A 
ATOM     14  C   UNL     1      -0.697  10.659  19.679  0.00  0.00    +0.000 A 
ATOM     15  C   UNL     1       0.929   9.204  18.506  0.00  0.00    +0.000 C 
ATOM     16  O   UNL     1       1.698   9.172  17.544  0.00  0.00    +0.000 OA
ENDBRANCH   1   2
BRANCH   1  17
ATOM     17  C   UNL     1       1.666   6.188  20.223  0.00  0.00    +0.000 C 
BRANCH  17  18
ATOM     18  N   UNL     1       2.416   5.269  21.099  0.00  0.00    +0.000 NA
ATOM     19  H   UNL     1       3.402   5.265  20.834  0.00  0.00    +0.000 HD
BRANCH  18  20
ATOM     20  C   UNL     1       1.861   3.911  20.917  0.00  0.00    +0.000 C 
BRANCH  20  21
ATOM     21  C   UNL     1       1.851   3.502  19.443  0.00  0.00    +0.000 C 
BRANCH  21  22
ATOM     22  S   UNL     1       3.455   2.702  19.021  0.00  0.00    +0.000 S 
BRANCH  22  26
ATOM     23  C   UNL     1       5.968   6.178  17.352  0.00  0.00    +0.000 A 
ATOM     24  C   UNL     1       4.927   5.611  16.602  0.00  0.00    +0.000 A 
ATOM     25  C   UNL     1       4.130   4.612  17.172  0.00  0.00    +0.000 A 
ATOM     26  C   UNL     1       4.466   4.062  18.428  0.00  0.00    +0.000 A 
ATOM     27  C   UNL     1       5.493   4.624  19.165  0.00  0.00    +0.000 A 
ATOM     28  C   UNL     1       6.238   5.643  18.612  0.00  0.00    +0.000 A 
BRANCH  23  30
ATOM     29  C   UNL     1       7.690   7.821  17.519  0.00  0.00    +0.000 C 
ATOM     30  O   UNL     1       6.574   7.287  16.814  0.00  0.00    +0.000 OA
ENDBRANCH  23  30
ENDBRANCH  22  26
ENDBRANCH  21  22
ENDBRANCH  20  21
ENDBRANCH  18  20
ENDBRANCH  17  18
ENDBRANCH   1  17
TORSDOF 8
ENDMDL
MODEL 3
REMARK VINA RESULT:      -7.5      2.905      8.593
REMARK  Name = 
REMARK  9 active torsions:
REMARK  status: ('A' for Active; 'I' for Inactive)
REMARK    1  A    between atoms: C_1  and  O_2
REMARK    2  A    between atoms: O_2  and  C_3
REMARK    3  A    between atoms: C_6  and  S_7
REMARK    4  A    between atoms: S_7  and  C_8
REMARK    5  A    between atoms: C_8  and  C_9
REMARK    6  A    between atoms: C_9  and  N_10
REMARK    7  A    between atoms: N_10  and  C_11
REMARK    8  A    between atoms: C_11  and  C_12
REMARK    9  A    between atoms: C_12  and  N_13
REMARK                            x       y       z     vdW  Elec       q    Type
REMARK                         _______ _______ _______ _____ _____    ______ ____
ROOT
ATOM      1  C   UNL     1       1.468   8.467  21.752  0.00  0.00    +0.000 C 
ENDROOT
BRANCH   1   2
ATOM      2  N   UNL     1       0.579   9.528  21.155  0.00  0.00    +0.000 N 
ATOM      3  C   UNL     1      -0.024  10.305  22.139  0.00  0.00    +0.000 C 
ATOM      4  O   UNL     1       0.017  10.069  23.346  0.00  0.00    +0.000 OA
ATOM      5  C   UNL     1      -0.756  11.480  21.665  0.00  0.00    +0.000 A 
ATOM      6  C   UNL     1      -1.027  12.513  22.590  0.00  0.00    +0.000 A 
ATOM      7  C   UNL     1      -1.964  13.465  22.234  0.00  0.00    +0.000 A 
ATOM      8  C   UNL     1      -2.618  13.347  20.976  0.00  0.00    +0.000 A 
ATOM      9  C   UNL     1      -2.310  12.346  20.113  0.00  0.00    +0.000 A 
ATOM     10  C   UNL     1      -3.058  12.169  18.972  0.00  0.00    +0.000 A 
ATOM     11  C   UNL     1      -2.847  10.949  18.276  0.00  0.00    +0.000 A 
ATOM     12  C   UNL     1      -1.539  10.440  18.043  0.00  0.00    +0.000 A 
ATOM     13  C   UNL     1      -0.908  10.516  19.306  0.00  0.00    +0.000 A 
ATOM     14  C   UNL     1      -1.330  11.435  20.360  0.00  0.00    +0.000 A 
ATOM     15  C   UNL     1       0.406   9.778  19.749  0.00  0.00    +0.000 C 
ATOM     16  O   UNL     1       1.309   9.559  18.938  0.00  0.00    +0.000 OA
ENDBRANCH   1   2
BRANCH   1  17
ATOM     17  C   UNL     1       1.335   7.075  21.147  0.00  0.00    +0.000 C 
BRANCH  17  18
ATOM     18  N   UNL     1       2.398   6.690  20.200  0.00  0.00    +0.000 NA
ATOM     19  H   UNL     1       2.108   6.906  19.245  0.00  0.00    +0.000 HD
BRANCH  18  20
ATOM     20  C   UNL     1       2.614   5.233  20.324  0.00  0.00    +0.000 C 
BRANCH  20  21
ATOM     21  C   UNL     1       2.473   4.529  18.972  0.00  0.00    +0.000 C 
BRANCH  21  22
ATOM     22  S   UNL     1       4.011   3.580  18.616  0.00  0.00    +0.000 S 
BRANCH  22  26
ATOM     23  C   UNL     1       6.978   6.869  17.366  0.00  0.00    +0.000 A 
ATOM     24  C   UNL     1       5.788   6.658  16.653  0.00  0.00    +0.000 A 
ATOM     25  C   UNL     1       4.870   5.705  17.110  0.00  0.00    +0.000 A 
ATOM     26  C   UNL     1       5.204   4.849  18.182  0.00  0.00    +0.000 A 
ATOM     27  C   UNL     1       6.378   5.061  18.883  0.00  0.00    +0.000 A 
ATOM     28  C   UNL     1       7.250   6.037  18.454  0.00  0.00    +0.000 A 
BRANCH  23  30
ATOM     29  C   UNL     1       8.186   8.820  18.020  0.00  0.00    +0.000 C 
ATOM     30  O   UNL     1       7.733   7.952  16.986  0.00  0.00    +0.000 OA
ENDBRANCH  23  30
ENDBRANCH  22  26
ENDBRANCH  21  22
ENDBRANCH  20  21
ENDBRANCH  18  20
ENDBRANCH  17  18
ENDBRANCH   1  17
TORSDOF 8
ENDMDL
MODEL 4
REMARK VINA RESULT:      -7.5      0.881      1.433
REMARK  Name = 
REMARK  9 active torsions:
REMARK  status: ('A' for Active; 'I' for Inactive)
REMARK    1  A    between atoms: C_1  and  O_2
REMARK    2  A    between atoms: O_2  and  C_3
REMARK    3  A    between atoms: C_6  and  S_7
REMARK    4  A    between atoms: S_7  and  C_8
REMARK    5  A    between atoms: C_8  and  C_9
REMARK    6  A    between atoms: C_9  and  N_10
REMARK    7  A    between atoms: N_10  and  C_11
REMARK    8  A    between atoms: C_11  and  C_12
REMARK    9  A    between atoms: C_12  and  N_13
REMARK                            x       y       z     vdW  Elec       q    Type
REMARK                         _______ _______ _______ _____ _____    ______ ____
ROOT
ATOM      1  C   UNL     1       1.915   7.940  20.786  0.00  0.00    +0.000 C 
ENDROOT
BRANCH   1   2
ATOM      2  N   UNL     1       2.334   7.023  19.666  0.00  0.00    +0.000 N 
ATOM      3  C   UNL     1       2.055   5.692  19.962  0.00  0.00    +0.000 C 
ATOM      4  O   UNL     1       1.672   5.278  21.056  0.00  0.00    +0.000 OA
ATOM      5  C   UNL     1       2.248   4.741  18.866  0.00  0.00    +0.000 A 
ATOM      6  C   UNL     1       1.608   3.484  18.955  0.00  0.00    +0.000 A 
ATOM      7  C   UNL     1       2.023   2.488  18.092  0.00  0.00    +0.000 A 
ATOM      8  C   UNL     1       3.079   2.767  17.180  0.00  0.00    +0.000 A 
ATOM      9  C   UNL     1       3.651   3.997  17.119  0.00  0.00    +0.000 A 
ATOM     10  C   UNL     1       4.764   4.198  16.336  0.00  0.00    +0.000 A 
ATOM     11  C   UNL     1       5.454   5.423  16.543  0.00  0.00    +0.000 A 
ATOM     12  C   UNL     1       4.759   6.658  16.668  0.00  0.00    +0.000 A 
ATOM     13  C   UNL     1       3.740   6.387  17.609  0.00  0.00    +0.000 A 
ATOM     14  C   UNL     1       3.223   5.046  17.872  0.00  0.00    +0.000 A 
ATOM     15  C   UNL     1       2.890   7.442  18.407  0.00  0.00    +0.000 C 
ATOM     16  O   UNL     1       2.597   8.526  17.901  0.00  0.00    +0.000 OA
ENDBRANCH   1   2
BRANCH   1  17
ATOM     17  C   UNL     1       1.164   9.198  20.365  0.00  0.00    +0.000 C 
BRANCH  17  18
ATOM     18  N   UNL     1       1.090  10.262  21.382  0.00  0.00    +0.000 NA
ATOM     19  H   UNL     1       0.784   9.870  22.274  0.00  0.00    +0.000 HD
BRANCH  18  20
ATOM     20  C   UNL     1       0.100  11.261  20.927  0.00  0.00    +0.000 C 
BRANCH  20  21
ATOM     21  C   UNL     1      -0.910  10.646  19.956  0.00  0.00    +0.000 C 
BRANCH  21  22
ATOM     22  S   UNL     1      -2.208  11.890  19.557  0.00  0.00    +0.000 S 
BRANCH  22  26
ATOM     23  C   UNL     1      -3.669  10.444  15.439  0.00  0.00    +0.000 A 
ATOM     24  C   UNL     1      -2.415  10.063  15.937  0.00  0.00    +0.000 A 
ATOM     25  C   UNL     1      -2.037  10.453  17.227  0.00  0.00    +0.000 A 
ATOM     26  C   UNL     1      -2.836  11.355  17.962  0.00  0.00    +0.000 A 
ATOM     27  C   UNL     1      -4.073  11.728  17.468  0.00  0.00    +0.000 A 
ATOM     28  C   UNL     1      -4.456  11.295  16.217  0.00  0.00    +0.000 A 
BRANCH  23  30
ATOM     29  C   UNL     1      -3.063   9.704  13.253  0.00  0.00    +0.000 C 
ATOM     30  O   UNL     1      -4.060   9.861  14.258  0.00  0.00    +0.000 OA
ENDBRANCH  23  30
ENDBRANCH  22  26
ENDBRANCH  21  22
ENDBRANCH  20  21
ENDBRANCH  18  20
ENDBRANCH  17  18
ENDBRANCH   1  17
TORSDOF 8
ENDMDL
MODEL 5
REMARK VINA RESULT:      -7.4      5.786      8.696
REMARK  Name = 
REMARK  9 active torsions:
REMARK  status: ('A' for Active; 'I' for Inactive)
REMARK    1  A    between atoms: C_1  and  O_2
REMARK    2  A    between atoms: O_2  and  C_3
REMARK    3  A    between atoms: C_6  and  S_7
REMARK    4  A    between atoms: S_7  and  C_8
REMARK    5  A    between atoms: C_8  and  C_9
REMARK    6  A    between atoms: C_9  and  N_10
REMARK    7  A    between atoms: N_10  and  C_11
REMARK    8  A    between atoms: C_11  and  C_12
REMARK    9  A    between atoms: C_12  and  N_13
REMARK                            x       y       z     vdW  Elec       q    Type
REMARK                         _______ _______ _______ _____ _____    ______ ____
ROOT
ATOM      1  C   UNL     1       6.838   5.004  17.538  0.00  0.00    +0.000 C 
ENDROOT
BRANCH   1   2
ATOM      2  N   UNL     1       5.397   4.684  17.844  0.00  0.00    +0.000 N 
ATOM      3  C   UNL     1       4.969   5.315  19.008  0.00  0.00    +0.000 C 
ATOM      4  O   UNL     1       5.700   5.923  19.790  0.00  0.00    +0.000 OA
ATOM      5  C   UNL     1       3.536   5.225  19.292  0.00  0.00    +0.000 A 
ATOM      6  C   UNL     1       2.976   6.159  20.192  0.00  0.00    +0.000 A 
ATOM      7  C   UNL     1       1.715   5.895  20.692  0.00  0.00    +0.000 A 
ATOM      8  C   UNL     1       1.058   4.696  20.296  0.00  0.00    +0.000 A 
ATOM      9  C   UNL     1       1.630   3.838  19.413  0.00  0.00    +0.000 A 
ATOM     10  C   UNL     1       1.041   2.620  19.162  0.00  0.00    +0.000 A 
ATOM     11  C   UNL     1       1.838   1.683  18.449  0.00  0.00    +0.000 A 
ATOM     12  C   UNL     1       2.595   2.065  17.308  0.00  0.00    +0.000 A 
ATOM     13  C   UNL     1       3.282   3.229  17.721  0.00  0.00    +0.000 A 
ATOM     14  C   UNL     1       2.824   4.088  18.811  0.00  0.00    +0.000 A 
ATOM     15  C   UNL     1       4.526   3.888  17.022  0.00  0.00    +0.000 C 
ATOM     16  O   UNL     1       4.658   3.841  15.798  0.00  0.00    +0.000 OA
ENDBRANCH   1   2
BRANCH   1  17
ATOM     17  C   UNL     1       7.069   6.171  16.585  0.00  0.00    +0.000 C 
BRANCH  17  18
ATOM     18  N   UNL     1       6.866   7.511  17.163  0.00  0.00    +0.000 NA
ATOM     19  H   UNL     1       6.619   8.174  16.426  0.00  0.00    +0.000 HD
BRANCH  18  20
ATOM     20  C   UNL     1       8.136   7.935  17.789  0.00  0.00    +0.000 C 
BRANCH  20  21
ATOM     21  C   UNL     1       8.193   9.454  17.968  0.00  0.00    +0.000 C 
BRANCH  21  22
ATOM     22  S   UNL     1       9.143   9.853  19.495  0.00  0.00    +0.000 S 
BRANCH  22  26
ATOM     23  C   UNL     1      10.739  14.060  18.529  0.00  0.00    +0.000 A 
ATOM     24  C   UNL     1      10.126  13.274  17.543  0.00  0.00    +0.000 A 
ATOM     25  C   UNL     1       9.578  12.034  17.890  0.00  0.00    +0.000 A 
ATOM     26  C   UNL     1       9.780  11.502  19.181  0.00  0.00    +0.000 A 
ATOM     27  C   UNL     1      10.386  12.280  20.152  0.00  0.00    +0.000 A 
ATOM     28  C   UNL     1      10.875  13.521  19.810  0.00  0.00    +0.000 A 
BRANCH  23  30
ATOM     29  C   UNL     1      11.126  15.632  16.775  0.00  0.00    +0.000 C 
ATOM     30  O   UNL     1      11.070  15.344  18.169  0.00  0.00    +0.000 OA
ENDBRANCH  23  30
ENDBRANCH  22  26
ENDBRANCH  21  22
ENDBRANCH  20  21
ENDBRANCH  18  20
ENDBRANCH  17  18
ENDBRANCH   1  17
TORSDOF 8
ENDMDL
MODEL 6
REMARK VINA RESULT:      -7.4      2.988      7.936
REMARK  Name = 
REMARK  9 active torsions:
REMARK  status: ('A' for Active; 'I' for Inactive)
REMARK    1  A    between atoms: C_1  and  O_2
REMARK    2  A    between atoms: O_2  and  C_3
REMARK    3  A    between atoms: C_6  and  S_7
REMARK    4  A    between atoms: S_7  and  C_8
REMARK    5  A    between atoms: C_8  and  C_9
REMARK    6  A    between atoms: C_9  and  N_10
REMARK    7  A    between atoms: N_10  and  C_11
REMARK    8  A    between atoms: C_11  and  C_12
REMARK    9  A    between atoms: C_12  and  N_13
REMARK                            x       y       z     vdW  Elec       q    Type
REMARK                         _______ _______ _______ _____ _____    ______ ____
ROOT
ATOM      1  C   UNL     1       2.438   7.103  18.203  0.00  0.00    +0.000 C 
ENDROOT
BRANCH   1   2
ATOM      2  N   UNL     1       1.727   8.228  18.911  0.00  0.00    +0.000 N 
ATOM      3  C   UNL     1       1.431   7.898  20.230  0.00  0.00    +0.000 C 
ATOM      4  O   UNL     1       1.571   6.781  20.725  0.00  0.00    +0.000 OA
ATOM      5  C   UNL     1       0.912   8.987  21.058  0.00  0.00    +0.000 A 
ATOM      6  C   UNL     1       0.985   8.848  22.463  0.00  0.00    +0.000 A 
ATOM      7  C   UNL     1       0.235   9.714  23.235  0.00  0.00    +0.000 A 
ATOM      8  C   UNL     1      -0.582  10.681  22.584  0.00  0.00    +0.000 A 
ATOM      9  C   UNL     1      -0.604  10.789  21.231  0.00  0.00    +0.000 A 
ATOM     10  C   UNL     1      -1.509  11.629  20.624  0.00  0.00    +0.000 A 
ATOM     11  C   UNL     1      -1.650  11.475  19.219  0.00  0.00    +0.000 A 
ATOM     12  C   UNL     1      -0.520  11.336  18.366  0.00  0.00    +0.000 A 
ATOM     13  C   UNL     1       0.265  10.341  18.993  0.00  0.00    +0.000 A 
ATOM     14  C   UNL     1       0.184  10.033  20.419  0.00  0.00    +0.000 A 
ATOM     15  C   UNL     1       1.438   9.519  18.345  0.00  0.00    +0.000 C 
ATOM     16  O   UNL     1       2.164  10.027  17.490  0.00  0.00    +0.000 OA
ENDBRANCH   1   2
BRANCH   1  17
ATOM     17  C   UNL     1       3.956   7.222  18.130  0.00  0.00    +0.000 C 
BRANCH  17  18
ATOM     18  N   UNL     1       4.526   7.240  16.770  0.00  0.00    +0.000 NA
ATOM     19  H   UNL     1       4.058   6.543  16.188  0.00  0.00    +0.000 HD
BRANCH  18  20
ATOM     20  C   UNL     1       5.961   6.903  16.872  0.00  0.00    +0.000 C 
BRANCH  20  21
ATOM     21  C   UNL     1       6.305   5.660  16.048  0.00  0.00    +0.000 C 
BRANCH  21  22
ATOM     22  S   UNL     1       6.576   4.233  17.181  0.00  0.00    +0.000 S 
BRANCH  22  26
ATOM     23  C   UNL     1       2.433   3.285  18.945  0.00  0.00    +0.000 A 
ATOM     24  C   UNL     1       3.555   3.433  19.773  0.00  0.00    +0.000 A 
ATOM     25  C   UNL     1       4.783   3.803  19.211  0.00  0.00    +0.000 A 
ATOM     26  C   UNL     1       4.934   3.869  17.809  0.00  0.00    +0.000 A 
ATOM     27  C   UNL     1       3.825   3.722  16.996  0.00  0.00    +0.000 A 
ATOM     28  C   UNL     1       2.610   3.409  17.566  0.00  0.00    +0.000 A 
BRANCH  23  30
ATOM     29  C   UNL     1       1.247   3.011  20.998  0.00  0.00    +0.000 C 
ATOM     30  O   UNL     1       1.224   3.124  19.578  0.00  0.00    +0.000 OA
ENDBRANCH  23  30
ENDBRANCH  22  26
ENDBRANCH  21  22
ENDBRANCH  20  21
ENDBRANCH  18  20
ENDBRANCH  17  18
ENDBRANCH   1  17
TORSDOF 8
ENDMDL
MODEL 7
REMARK VINA RESULT:      -7.4      2.880      3.933
REMARK  Name = 
REMARK  9 active torsions:
REMARK  status: ('A' for Active; 'I' for Inactive)
REMARK    1  A    between atoms: C_1  and  O_2
REMARK    2  A    between atoms: O_2  and  C_3
REMARK    3  A    between atoms: C_6  and  S_7
REMARK    4  A    between atoms: S_7  and  C_8
REMARK    5  A    between atoms: C_8  and  C_9
REMARK    6  A    between atoms: C_9  and  N_10
REMARK    7  A    between atoms: N_10  and  C_11
REMARK    8  A    between atoms: C_11  and  C_12
REMARK    9  A    between atoms: C_12  and  N_13
REMARK                            x       y       z     vdW  Elec       q    Type
REMARK                         _______ _______ _______ _____ _____    ______ ____
ROOT
ATOM      1  C   UNL     1       1.794   8.428  20.441  0.00  0.00    +0.000 C 
ENDROOT
BRANCH   1   2
ATOM      2  N   UNL     1       2.244   7.413  19.421  0.00  0.00    +0.000 N 
ATOM      3  C   UNL     1       1.978   6.113  19.840  0.00  0.00    +0.000 C 
ATOM      4  O   UNL     1       1.582   5.801  20.962  0.00  0.00    +0.000 OA
ATOM      5  C   UNL     1       2.201   5.064  18.844  0.00  0.00    +0.000 A 
ATOM      6  C   UNL     1       1.576   3.812  19.044  0.00  0.00    +0.000 A 
ATOM      7  C   UNL     1       2.019   2.744  18.287  0.00  0.00    +0.000 A 
ATOM      8  C   UNL     1       3.087   2.950  17.370  0.00  0.00    +0.000 A 
ATOM      9  C   UNL     1       3.644   4.176  17.199  0.00  0.00    +0.000 A 
ATOM     10  C   UNL     1       4.767   4.317  16.418  0.00  0.00    +0.000 A 
ATOM     11  C   UNL     1       5.437   5.566  16.516  0.00  0.00    +0.000 A 
ATOM     12  C   UNL     1       4.724   6.797  16.510  0.00  0.00    +0.000 A 
ATOM     13  C   UNL     1       3.693   6.604  17.458  0.00  0.00    +0.000 A 
ATOM     14  C   UNL     1       3.189   5.287  17.840  0.00  0.00    +0.000 A 
ATOM     15  C   UNL     1       2.816   7.717  18.137  0.00  0.00    +0.000 C 
ATOM     16  O   UNL     1       2.517   8.744  17.524  0.00  0.00    +0.000 OA
ENDBRANCH   1   2
BRANCH   1  17
ATOM     17  C   UNL     1       0.479   9.135  20.135  0.00  0.00    +0.000 C 
BRANCH  17  18
ATOM     18  N   UNL     1       0.603  10.520  19.646  0.00  0.00    +0.000 NA
ATOM     19  H   UNL     1       1.382  10.986  20.113  0.00  0.00    +0.000 HD
BRANCH  18  20
ATOM     20  C   UNL     1      -0.651  11.232  19.970  0.00  0.00    +0.000 C 
BRANCH  20  21
ATOM     21  C   UNL     1      -0.464  12.189  21.149  0.00  0.00    +0.000 C 
BRANCH  21  22
ATOM     22  S   UNL     1      -1.189  11.436  22.666  0.00  0.00    +0.000 S 
BRANCH  22  26
ATOM     23  C   UNL     1      -5.336  13.369  23.158  0.00  0.00    +0.000 A 
ATOM     24  C   UNL     1      -4.661  12.814  24.255  0.00  0.00    +0.000 A 
ATOM     25  C   UNL     1      -3.367  12.309  24.085  0.00  0.00    +0.000 A 
ATOM     26  C   UNL     1      -2.805  12.208  22.795  0.00  0.00    +0.000 A 
ATOM     27  C   UNL     1      -3.474  12.756  21.715  0.00  0.00    +0.000 A 
ATOM     28  C   UNL     1      -4.726  13.297  21.904  0.00  0.00    +0.000 A 
BRANCH  23  30
ATOM     29  C   UNL     1      -7.546  13.273  24.056  0.00  0.00    +0.000 C 
ATOM     30  O   UNL     1      -6.510  14.027  23.433  0.00  0.00    +0.000 OA
ENDBRANCH  23  30
ENDBRANCH  22  26
ENDBRANCH  21  22
ENDBRANCH  20  21
ENDBRANCH  18  20
ENDBRANCH  17  18
ENDBRANCH   1  17
TORSDOF 8
ENDMDL
MODEL 8
REMARK VINA RESULT:      -7.4      0.996      1.523
REMARK  Name = 
REMARK  9 active torsions:
REMARK  status: ('A' for Active; 'I' for Inactive)
REMARK    1  A    between atoms: C_1  and  O_2
REMARK    2  A    between atoms: O_2  and  C_3
REMARK    3  A    between atoms: C_6  and  S_7
REMARK    4  A    between atoms: S_7  and  C_8
REMARK    5  A    between atoms: C_8  and  C_9
REMARK    6  A    between atoms: C_9  and  N_10
REMARK    7  A    between atoms: N_10  and  C_11
REMARK    8  A    between atoms: C_11  and  C_12
REMARK    9  A    between atoms: C_12  and  N_13
REMARK                            x       y       z     vdW  Elec       q    Type
REMARK                         _______ _______ _______ _____ _____    ______ ____
ROOT
ATOM      1  C   UNL     1       1.883   8.007  20.865  0.00  0.00    +0.000 C 
ENDROOT
BRANCH   1   2
ATOM      2  N   UNL     1       2.270   7.066  19.753  0.00  0.00    +0.000 N 
ATOM      3  C   UNL     1       1.965   5.746  20.069  0.00  0.00    +0.000 C 
ATOM      4  O   UNL     1       1.584   5.355  21.172  0.00  0.00    +0.000 OA
ATOM      5  C   UNL     1       2.126   4.777  18.983  0.00  0.00    +0.000 A 
ATOM      6  C   UNL     1       1.459   3.536  19.095  0.00  0.00    +0.000 A 
ATOM      7  C   UNL     1       1.843   2.520  18.241  0.00  0.00    +0.000 A 
ATOM      8  C   UNL     1       2.897   2.764  17.315  0.00  0.00    +0.000 A 
ATOM      9  C   UNL     1       3.495   3.980  17.233  0.00  0.00    +0.000 A 
ATOM     10  C   UNL     1       4.604   4.146  16.436  0.00  0.00    +0.000 A 
ATOM     11  C   UNL     1       5.322   5.358  16.620  0.00  0.00    +0.000 A 
ATOM     12  C   UNL     1       4.656   6.610  16.736  0.00  0.00    +0.000 A 
ATOM     13  C   UNL     1       3.641   6.374  17.691  0.00  0.00    +0.000 A 
ATOM     14  C   UNL     1       3.097   5.048  17.976  0.00  0.00    +0.000 A 
ATOM     15  C   UNL     1       2.823   7.457  18.483  0.00  0.00    +0.000 C 
ATOM     16  O   UNL     1       2.548   8.541  17.966  0.00  0.00    +0.000 OA
ENDBRANCH   1   2
BRANCH   1  17
ATOM     17  C   UNL     1       0.452   8.531  20.821  0.00  0.00    +0.000 C 
BRANCH  17  18
ATOM     18  N   UNL     1       0.040   9.348  21.976  0.00  0.00    +0.000 NA
ATOM     19  H   UNL     1      -0.695   8.867  22.497  0.00  0.00    +0.000 HD
BRANCH  18  20
ATOM     20  C   UNL     1      -0.490  10.629  21.463  0.00  0.00    +0.000 C 
BRANCH  20  21
ATOM     21  C   UNL     1       0.636  11.555  20.998  0.00  0.00    +0.000 C 
BRANCH  21  22
ATOM     22  S   UNL     1       0.606  11.678  19.161  0.00  0.00    +0.000 S 
BRANCH  22  26
ATOM     23  C   UNL     1      -3.770  10.862  17.992  0.00  0.00    +0.000 A 
ATOM     24  C   UNL     1      -2.734  10.033  17.540  0.00  0.00    +0.000 A 
ATOM     25  C   UNL     1      -1.425  10.261  17.981  0.00  0.00    +0.000 A 
ATOM     26  C   UNL     1      -1.120  11.409  18.744  0.00  0.00    +0.000 A 
ATOM     27  C   UNL     1      -2.145  12.224  19.189  0.00  0.00    +0.000 A 
ATOM     28  C   UNL     1      -3.437  11.959  18.789  0.00  0.00    +0.000 A 
BRANCH  23  30
ATOM     29  C   UNL     1      -6.108  11.050  18.439  0.00  0.00    +0.000 C 
ATOM     30  O   UNL     1      -5.049  10.463  17.688  0.00  0.00    +0.000 OA
ENDBRANCH  23  30
ENDBRANCH  22  26
ENDBRANCH  21  22
ENDBRANCH  20  21
ENDBRANCH  18  20
ENDBRANCH  17  18
ENDBRANCH   1  17
TORSDOF 8
ENDMDL
MODEL 9
REMARK VINA RESULT:      -7.4      1.197      2.775
REMARK  Name = 
REMARK  9 active torsions:
REMARK  status: ('A' for Active; 'I' for Inactive)
REMARK    1  A    between atoms: C_1  and  O_2
REMARK    2  A    between atoms: O_2  and  C_3
REMARK    3  A    between atoms: C_6  and  S_7
REMARK    4  A    between atoms: S_7  and  C_8
REMARK    5  A    between atoms: C_8  and  C_9
REMARK    6  A    between atoms: C_9  and  N_10
REMARK    7  A    between atoms: N_10  and  C_11
REMARK    8  A    between atoms: C_11  and  C_12
REMARK    9  A    between atoms: C_12  and  N_13
REMARK                            x       y       z     vdW  Elec       q    Type
REMARK                         _______ _______ _______ _____ _____    ______ ____
ROOT
ATOM      1  C   UNL     1       1.020   9.755  19.418  0.00  0.00    +0.000 C 
ENDROOT
BRANCH   1   2
ATOM      2  N   UNL     1       1.667   8.397  19.326  0.00  0.00    +0.000 N 
ATOM      3  C   UNL     1       2.340   8.232  18.119  0.00  0.00    +0.000 C 
ATOM      4  O   UNL     1       2.288   9.012  17.169  0.00  0.00    +0.000 OA
ATOM      5  C   UNL     1       3.161   7.025  18.007  0.00  0.00    +0.000 A 
ATOM      6  C   UNL     1       4.171   6.996  17.019  0.00  0.00    +0.000 A 
ATOM      7  C   UNL     1       4.733   5.772  16.709  0.00  0.00    +0.000 A 
ATOM      8  C   UNL     1       4.256   4.609  17.378  0.00  0.00    +0.000 A 
ATOM      9  C   UNL     1       3.296   4.690  18.334  0.00  0.00    +0.000 A 
ATOM     10  C   UNL     1       2.751   3.541  18.858  0.00  0.00    +0.000 A 
ATOM     11  C   UNL     1       1.576   3.713  19.639  0.00  0.00    +0.000 A 
ATOM     12  C   UNL     1       1.470   4.748  20.609  0.00  0.00    +0.000 A 
ATOM     13  C   UNL     1       1.900   5.908  19.926  0.00  0.00    +0.000 A 
ATOM     14  C   UNL     1       2.773   5.874  18.754  0.00  0.00    +0.000 A 
ATOM     15  C   UNL     1       1.667   7.400  20.362  0.00  0.00    +0.000 C 
ATOM     16  O   UNL     1       1.634   7.709  21.555  0.00  0.00    +0.000 OA
ENDBRANCH   1   2
BRANCH   1  17
ATOM     17  C   UNL     1       0.011   9.932  20.547  0.00  0.00    +0.000 C 
BRANCH  17  18
ATOM     18  N   UNL     1       0.478  10.728  21.696  0.00  0.00    +0.000 NA
ATOM     19  H   UNL     1       0.127  10.323  22.566  0.00  0.00    +0.000 HD
BRANCH  18  20
ATOM     20  C   UNL     1      -0.058  12.098  21.550  0.00  0.00    +0.000 C 
BRANCH  20  21
ATOM     21  C   UNL     1      -1.561  12.145  21.832  0.00  0.00    +0.000 C 
BRANCH  21  22
ATOM     22  S   UNL     1      -2.364  13.321  20.665  0.00  0.00    +0.000 S 
BRANCH  22  26
ATOM     23  C   UNL     1      -3.413  10.722  17.014  0.00  0.00    +0.000 A 
ATOM     24  C   UNL     1      -4.392  11.082  17.952  0.00  0.00    +0.000 A 
ATOM     25  C   UNL     1      -4.056  11.940  19.005  0.00  0.00    +0.000 A 
ATOM     26  C   UNL     1      -2.712  12.315  19.219  0.00  0.00    +0.000 A 
ATOM     27  C   UNL     1      -1.749  11.959  18.291  0.00  0.00    +0.000 A 
ATOM     28  C   UNL     1      -2.103  11.154  17.230  0.00  0.00    +0.000 A 
BRANCH  23  30
ATOM     29  C   UNL     1      -3.125  10.250  14.692  0.00  0.00    +0.000 C 
ATOM     30  O   UNL     1      -3.853  10.049  15.900  0.00  0.00    +0.000 OA
ENDBRANCH  23  30
ENDBRANCH  22  26
ENDBRANCH  21  22
ENDBRANCH  20  21
ENDBRANCH  18  20
ENDBRANCH  17  18
ENDBRANCH   1  17
TORSDOF 8
ENDMDL
