MODEL 1
REMARK VINA RESULT:      -8.9      0.000      0.000
REMARK  Name = 
REMARK  2 active torsions:
REMARK  status: ('A' for Active; 'I' for Inactive)
REMARK    1  A    between atoms: C_4  and  C_5
REMARK    2  A    between atoms: C_17  and  C_18
REMARK                            x       y       z     vdW  Elec       q    Type
REMARK                         _______ _______ _______ _____ _____    ______ ____
ROOT
ATOM      1  O   UNL     1       1.497   7.534  21.418  0.00  0.00    +0.000 OA
ATOM      2  C   UNL     1       1.711   7.567  20.209  0.00  0.00    +0.000 C 
ATOM      3  C   UNL     1       2.268   6.377  19.480  0.00  0.00    +0.000 C 
ATOM      4  C   UNL     1       2.169   5.188  20.111  0.00  0.00    +0.000 C 
ATOM      5  C   UNL     1       2.877   6.561  18.119  0.00  0.00    +0.000 C 
ATOM      6  C   UNL     1       3.181   8.018  17.799  0.00  0.00    +0.000 C 
ATOM      7  C   UNL     1       1.927   8.856  17.978  0.00  0.00    +0.000 C 
ATOM      8  C   UNL     1       1.418   8.792  19.390  0.00  0.00    +0.000 C 
ATOM      9  C   UNL     1       0.717   9.773  19.994  0.00  0.00    +0.000 C 
ENDROOT
BRANCH   4  10
ATOM     10  C   UNL     1       2.591   3.912  19.523  0.00  0.00    +0.000 A 
ATOM     11  C   UNL     1       3.641   3.184  20.091  0.00  0.00    +0.000 A 
ATOM     12  C   UNL     1       4.059   1.998  19.490  0.00  0.00    +0.000 A 
ATOM     13  F   UNL     1       5.077   1.314  20.027  0.00  0.00    +0.000 F 
ATOM     14  C   UNL     1       3.447   1.515  18.335  0.00  0.00    +0.000 A 
ATOM     15  C   UNL     1       2.390   2.228  17.774  0.00  0.00    +0.000 A 
ATOM     16  C   UNL     1       1.971   3.418  18.367  0.00  0.00    +0.000 A 
ATOM     17  F   UNL     1       0.959   4.094  17.802  0.00  0.00    +0.000 F 
ENDBRANCH   4  10
BRANCH   9  18
ATOM     18  C   UNL     1       0.303  11.012  19.327  0.00  0.00    +0.000 A 
ATOM     19  C   UNL     1       1.129  12.141  19.378  0.00  0.00    +0.000 A 
ATOM     20  C   UNL     1       0.712  13.330  18.784  0.00  0.00    +0.000 A 
ATOM     21  F   UNL     1       1.501  14.410  18.846  0.00  0.00    +0.000 F 
ATOM     22  C   UNL     1      -0.519  13.420  18.137  0.00  0.00    +0.000 A 
ATOM     23  C   UNL     1      -1.342  12.297  18.074  0.00  0.00    +0.000 A 
ATOM     24  C   UNL     1      -0.928  11.104  18.666  0.00  0.00    +0.000 A 
ATOM     25  F   UNL     1      -1.746  10.043  18.610  0.00  0.00    +0.000 F 
ENDBRANCH   9  18
TORSDOF 2
ENDMDL
MODEL 2
REMARK VINA RESULT:      -8.7      3.100      8.263
REMARK  Name = 
REMARK  2 active torsions:
REMARK  status: ('A' for Active; 'I' for Inactive)
REMARK    1  A    between atoms: C_4  and  C_5
REMARK    2  A    between atoms: C_17  and  C_18
REMARK                            x       y       z     vdW  Elec       q    Type
REMARK                         _______ _______ _______ _____ _____    ______ ____
ROOT
ATOM      1  O   UNL     1       1.778   5.752  20.774  0.00  0.00    +0.000 OA
ATOM      2  C   UNL     1       2.081   6.664  20.009  0.00  0.00    +0.000 C 
ATOM      3  C   UNL     1       1.392   7.997  20.070  0.00  0.00    +0.000 C 
ATOM      4  C   UNL     1       0.718   8.273  21.206  0.00  0.00    +0.000 C 
ATOM      5  C   UNL     1       1.495   8.938  18.901  0.00  0.00    +0.000 C 
ATOM      6  C   UNL     1       1.998   8.257  17.636  0.00  0.00    +0.000 C 
ATOM      7  C   UNL     1       3.316   7.556  17.920  0.00  0.00    +0.000 C 
ATOM      8  C   UNL     1       3.163   6.502  18.979  0.00  0.00    +0.000 C 
ATOM      9  C   UNL     1       3.928   5.395  19.071  0.00  0.00    +0.000 C 
ENDROOT
BRANCH   4  10
ATOM     10  C   UNL     1       0.048   9.550  21.471  0.00  0.00    +0.000 A 
ATOM     11  C   UNL     1      -0.278  10.411  20.418  0.00  0.00    +0.000 A 
ATOM     12  C   UNL     1      -0.870  11.642  20.694  0.00  0.00    +0.000 A 
ATOM     13  F   UNL     1      -1.163  12.471  19.684  0.00  0.00    +0.000 F 
ATOM     14  C   UNL     1      -1.154  12.033  22.000  0.00  0.00    +0.000 A 
ATOM     15  C   UNL     1      -0.847  11.173  23.053  0.00  0.00    +0.000 A 
ATOM     16  C   UNL     1      -0.249   9.943  22.783  0.00  0.00    +0.000 A 
ATOM     17  F   UNL     1       0.051   9.137  23.813  0.00  0.00    +0.000 F 
ENDBRANCH   4  10
BRANCH   9  18
ATOM     18  C   UNL     1       5.056   5.105  18.179  0.00  0.00    +0.000 A 
ATOM     19  C   UNL     1       4.817   4.625  16.887  0.00  0.00    +0.000 A 
ATOM     20  C   UNL     1       5.892   4.306  16.059  0.00  0.00    +0.000 A 
ATOM     21  F   UNL     1       5.658   3.837  14.827  0.00  0.00    +0.000 F 
ATOM     22  C   UNL     1       7.207   4.452  16.495  0.00  0.00    +0.000 A 
ATOM     23  C   UNL     1       7.452   4.938  17.779  0.00  0.00    +0.000 A 
ATOM     24  C   UNL     1       6.379   5.261  18.610  0.00  0.00    +0.000 A 
ATOM     25  F   UNL     1       6.639   5.707  19.847  0.00  0.00    +0.000 F 
ENDBRANCH   9  18
TORSDOF 2
ENDMDL
MODEL 3
REMARK VINA RESULT:      -8.5      0.768      1.661
REMARK  Name = 
REMARK  2 active torsions:
REMARK  status: ('A' for Active; 'I' for Inactive)
REMARK    1  A    between atoms: C_4  and  C_5
REMARK    2  A    between atoms: C_17  and  C_18
REMARK                            x       y       z     vdW  Elec       q    Type
REMARK                         _______ _______ _______ _____ _____    ______ ____
ROOT
ATOM      1  O   UNL     1       1.428   7.445  21.509  0.00  0.00    +0.000 OA
ATOM      2  C   UNL     1       1.631   7.495  20.299  0.00  0.00    +0.000 C 
ATOM      3  C   UNL     1       2.209   6.326  19.554  0.00  0.00    +0.000 C 
ATOM      4  C   UNL     1       2.143   5.129  20.173  0.00  0.00    +0.000 C 
ATOM      5  C   UNL     1       2.804   6.538  18.190  0.00  0.00    +0.000 C 
ATOM      6  C   UNL     1       3.071   8.004  17.883  0.00  0.00    +0.000 C 
ATOM      7  C   UNL     1       1.799   8.811  18.080  0.00  0.00    +0.000 C 
ATOM      8  C   UNL     1       1.303   8.721  19.495  0.00  0.00    +0.000 C 
ATOM      9  C   UNL     1       0.585   9.679  20.114  0.00  0.00    +0.000 C 
ENDROOT
BRANCH   4  10
ATOM     10  C   UNL     1       2.589   3.869  19.569  0.00  0.00    +0.000 A 
ATOM     11  C   UNL     1       3.663   3.162  20.119  0.00  0.00    +0.000 A 
ATOM     12  C   UNL     1       4.105   1.992  19.502  0.00  0.00    +0.000 A 
ATOM     13  F   UNL     1       5.145   1.328  20.022  0.00  0.00    +0.000 F 
ATOM     14  C   UNL     1       3.492   1.504  18.350  0.00  0.00    +0.000 A 
ATOM     15  C   UNL     1       2.411   2.196  17.806  0.00  0.00    +0.000 A 
ATOM     16  C   UNL     1       1.970   3.370  18.416  0.00  0.00    +0.000 A 
ATOM     17  F   UNL     1       0.935   4.026  17.867  0.00  0.00    +0.000 F 
ENDBRANCH   4  10
BRANCH   9  18
ATOM     18  C   UNL     1       0.137  10.916  19.463  0.00  0.00    +0.000 A 
ATOM     19  C   UNL     1      -1.010  10.906  18.662  0.00  0.00    +0.000 A 
ATOM     20  C   UNL     1      -1.405  12.070  18.007  0.00  0.00    +0.000 A 
ATOM     21  F   UNL     1      -2.498  12.052  17.233  0.00  0.00    +0.000 F 
ATOM     22  C   UNL     1      -0.677  13.251  18.132  0.00  0.00    +0.000 A 
ATOM     23  C   UNL     1       0.462  13.270  18.935  0.00  0.00    +0.000 A 
ATOM     24  C   UNL     1       0.861  12.107  19.594  0.00  0.00    +0.000 A 
ATOM     25  F   UNL     1       1.971  12.145  20.345  0.00  0.00    +0.000 F 
ENDBRANCH   9  18
TORSDOF 2
ENDMDL
MODEL 4
REMARK VINA RESULT:      -8.5      2.971      8.153
REMARK  Name = 
REMARK  2 active torsions:
REMARK  status: ('A' for Active; 'I' for Inactive)
REMARK    1  A    between atoms: C_4  and  C_5
REMARK    2  A    between atoms: C_17  and  C_18
REMARK                            x       y       z     vdW  Elec       q    Type
REMARK                         _______ _______ _______ _____ _____    ______ ____
ROOT
ATOM      1  O   UNL     1       1.479   5.772  20.836  0.00  0.00    +0.000 OA
ATOM      2  C   UNL     1       1.887   6.687  20.126  0.00  0.00    +0.000 C 
ATOM      3  C   UNL     1       1.239   8.042  20.148  0.00  0.00    +0.000 C 
ATOM      4  C   UNL     1       0.465   8.319  21.218  0.00  0.00    +0.000 C 
ATOM      5  C   UNL     1       1.490   9.001  19.018  0.00  0.00    +0.000 C 
ATOM      6  C   UNL     1       2.094   8.327  17.794  0.00  0.00    +0.000 C 
ATOM      7  C   UNL     1       3.353   7.575  18.190  0.00  0.00    +0.000 C 
ATOM      8  C   UNL     1       3.060   6.507  19.205  0.00  0.00    +0.000 C 
ATOM      9  C   UNL     1       3.775   5.372  19.346  0.00  0.00    +0.000 C 
ENDROOT
BRANCH   4  10
ATOM     10  C   UNL     1      -0.186   9.614  21.444  0.00  0.00    +0.000 A 
ATOM     11  C   UNL     1      -0.585  10.404  20.362  0.00  0.00    +0.000 A 
ATOM     12  C   UNL     1      -1.157  11.654  20.597  0.00  0.00    +0.000 A 
ATOM     13  F   UNL     1      -1.521  12.416  19.557  0.00  0.00    +0.000 F 
ATOM     14  C   UNL     1      -1.349  12.131  21.891  0.00  0.00    +0.000 A 
ATOM     15  C   UNL     1      -0.969  11.341  22.975  0.00  0.00    +0.000 A 
ATOM     16  C   UNL     1      -0.390  10.094  22.745  0.00  0.00    +0.000 A 
ATOM     17  F   UNL     1      -0.019   9.355  23.803  0.00  0.00    +0.000 F 
ENDBRANCH   4  10
BRANCH   9  18
ATOM     18  C   UNL     1       4.976   5.060  18.565  0.00  0.00    +0.000 A 
ATOM     19  C   UNL     1       6.242   5.345  19.088  0.00  0.00    +0.000 A 
ATOM     20  C   UNL     1       7.379   5.090  18.324  0.00  0.00    +0.000 A 
ATOM     21  F   UNL     1       8.587   5.375  18.825  0.00  0.00    +0.000 F 
ATOM     22  C   UNL     1       7.281   4.557  17.041  0.00  0.00    +0.000 A 
ATOM     23  C   UNL     1       6.024   4.262  16.517  0.00  0.00    +0.000 A 
ATOM     24  C   UNL     1       4.883   4.513  17.279  0.00  0.00    +0.000 A 
ATOM     25  F   UNL     1       3.683   4.240  16.746  0.00  0.00    +0.000 F 
ENDBRANCH   9  18
TORSDOF 2
ENDMDL
MODEL 5
REMARK VINA RESULT:      -8.5      2.046      8.755
REMARK  Name = 
REMARK  2 active torsions:
REMARK  status: ('A' for Active; 'I' for Inactive)
REMARK    1  A    between atoms: C_4  and  C_5
REMARK    2  A    between atoms: C_17  and  C_18
REMARK                            x       y       z     vdW  Elec       q    Type
REMARK                         _______ _______ _______ _____ _____    ______ ____
ROOT
ATOM      1  O   UNL     1       2.480   9.257  17.444  0.00  0.00    +0.000 OA
ATOM      2  C   UNL     1       1.941   8.759  18.428  0.00  0.00    +0.000 C 
ATOM      3  C   UNL     1       0.941   9.526  19.245  0.00  0.00    +0.000 C 
ATOM      4  C   UNL     1       0.390  10.608  18.657  0.00  0.00    +0.000 C 
ATOM      5  C   UNL     1       0.603   9.057  20.633  0.00  0.00    +0.000 C 
ATOM      6  C   UNL     1       1.604   8.048  21.177  0.00  0.00    +0.000 C 
ATOM      7  C   UNL     1       1.747   6.890  20.204  0.00  0.00    +0.000 C 
ATOM      8  C   UNL     1       2.243   7.353  18.864  0.00  0.00    +0.000 C 
ATOM      9  C   UNL     1       2.962   6.594  18.013  0.00  0.00    +0.000 C 
ENDROOT
BRANCH   4  10
ATOM     10  C   UNL     1      -0.654  11.433  19.273  0.00  0.00    +0.000 A 
ATOM     11  C   UNL     1      -1.985  11.314  18.861  0.00  0.00    +0.000 A 
ATOM     12  C   UNL     1      -2.956  12.141  19.424  0.00  0.00    +0.000 A 
ATOM     13  F   UNL     1      -4.226  12.037  19.013  0.00  0.00    +0.000 F 
ATOM     14  C   UNL     1      -2.630  13.081  20.399  0.00  0.00    +0.000 A 
ATOM     15  C   UNL     1      -1.308  13.193  20.826  0.00  0.00    +0.000 A 
ATOM     16  C   UNL     1      -0.332  12.373  20.261  0.00  0.00    +0.000 A 
ATOM     17  F   UNL     1       0.936  12.507  20.678  0.00  0.00    +0.000 F 
ENDBRANCH   4  10
BRANCH   9  18
ATOM     18  C   UNL     1       3.303   5.188  18.258  0.00  0.00    +0.000 A 
ATOM     19  C   UNL     1       2.521   4.173  17.696  0.00  0.00    +0.000 A 
ATOM     20  C   UNL     1       2.820   2.840  17.970  0.00  0.00    +0.000 A 
ATOM     21  F   UNL     1       2.061   1.873  17.439  0.00  0.00    +0.000 F 
ATOM     22  C   UNL     1       3.885   2.495  18.798  0.00  0.00    +0.000 A 
ATOM     23  C   UNL     1       4.674   3.501  19.354  0.00  0.00    +0.000 A 
ATOM     24  C   UNL     1       4.380   4.837  19.081  0.00  0.00    +0.000 A 
ATOM     25  F   UNL     1       5.140   5.787  19.643  0.00  0.00    +0.000 F 
ENDBRANCH   9  18
TORSDOF 2
ENDMDL
MODEL 6
REMARK VINA RESULT:      -8.5      1.125      1.700
REMARK  Name = 
REMARK  2 active torsions:
REMARK  status: ('A' for Active; 'I' for Inactive)
REMARK    1  A    between atoms: C_4  and  C_5
REMARK    2  A    between atoms: C_17  and  C_18
REMARK                            x       y       z     vdW  Elec       q    Type
REMARK                         _______ _______ _______ _____ _____    ______ ____
ROOT
ATOM      1  O   UNL     1       1.680   8.078  21.625  0.00  0.00    +0.000 OA
ATOM      2  C   UNL     1       1.711   8.063  20.397  0.00  0.00    +0.000 C 
ATOM      3  C   UNL     1       2.059   6.815  19.639  0.00  0.00    +0.000 C 
ATOM      4  C   UNL     1       1.967   5.654  20.320  0.00  0.00    +0.000 C 
ATOM      5  C   UNL     1       2.469   6.915  18.196  0.00  0.00    +0.000 C 
ATOM      6  C   UNL     1       2.831   8.334  17.781  0.00  0.00    +0.000 C 
ATOM      7  C   UNL     1       1.685   9.275  18.113  0.00  0.00    +0.000 C 
ATOM      8  C   UNL     1       1.391   9.287  19.586  0.00  0.00    +0.000 C 
ATOM      9  C   UNL     1       0.865  10.336  20.251  0.00  0.00    +0.000 C 
ENDROOT
BRANCH   4  10
ATOM     10  C   UNL     1       2.197   4.334  19.724  0.00  0.00    +0.000 A 
ATOM     11  C   UNL     1       1.118   3.523  19.359  0.00  0.00    +0.000 A 
ATOM     12  C   UNL     1       1.357   2.252  18.840  0.00  0.00    +0.000 A 
ATOM     13  F   UNL     1       0.320   1.472  18.510  0.00  0.00    +0.000 F 
ATOM     14  C   UNL     1       2.653   1.772  18.666  0.00  0.00    +0.000 A 
ATOM     15  C   UNL     1       3.733   2.581  19.012  0.00  0.00    +0.000 A 
ATOM     16  C   UNL     1       3.500   3.851  19.538  0.00  0.00    +0.000 A 
ATOM     17  F   UNL     1       4.555   4.608  19.877  0.00  0.00    +0.000 F 
ENDBRANCH   4  10
BRANCH   9  18
ATOM     18  C   UNL     1       0.451  11.588  19.607  0.00  0.00    +0.000 A 
ATOM     19  C   UNL     1       1.311  12.691  19.610  0.00  0.00    +0.000 A 
ATOM     20  C   UNL     1       0.896  13.892  19.039  0.00  0.00    +0.000 A 
ATOM     21  F   UNL     1       1.719  14.948  19.054  0.00  0.00    +0.000 F 
ATOM     22  C   UNL     1      -0.366  14.019  18.464  0.00  0.00    +0.000 A 
ATOM     23  C   UNL     1      -1.225  12.921  18.449  0.00  0.00    +0.000 A 
ATOM     24  C   UNL     1      -0.813  11.716  19.018  0.00  0.00    +0.000 A 
ATOM     25  F   UNL     1      -1.664  10.680  19.010  0.00  0.00    +0.000 F 
ENDBRANCH   9  18
TORSDOF 2
ENDMDL
MODEL 7
REMARK VINA RESULT:      -8.5      1.857      8.691
REMARK  Name = 
REMARK  2 active torsions:
REMARK  status: ('A' for Active; 'I' for Inactive)
REMARK    1  A    between atoms: C_4  and  C_5
REMARK    2  A    between atoms: C_17  and  C_18
REMARK                            x       y       z     vdW  Elec       q    Type
REMARK                         _______ _______ _______ _____ _____    ______ ____
ROOT
ATOM      1  O   UNL     1       2.490   9.071  17.339  0.00  0.00    +0.000 OA
ATOM      2  C   UNL     1       1.947   8.681  18.370  0.00  0.00    +0.000 C 
ATOM      3  C   UNL     1       1.027   9.572  19.155  0.00  0.00    +0.000 C 
ATOM      4  C   UNL     1       0.535  10.647  18.505  0.00  0.00    +0.000 C 
ATOM      5  C   UNL     1       0.698   9.225  20.580  0.00  0.00    +0.000 C 
ATOM      6  C   UNL     1       1.643   8.187  21.170  0.00  0.00    +0.000 C 
ATOM      7  C   UNL     1       1.677   6.957  20.278  0.00  0.00    +0.000 C 
ATOM      8  C   UNL     1       2.164   7.290  18.896  0.00  0.00    +0.000 C 
ATOM      9  C   UNL     1       2.803   6.426  18.084  0.00  0.00    +0.000 C 
ENDROOT
BRANCH   4  10
ATOM     10  C   UNL     1      -0.431  11.584  19.087  0.00  0.00    +0.000 A 
ATOM     11  C   UNL     1       0.009  12.741  19.738  0.00  0.00    +0.000 A 
ATOM     12  C   UNL     1      -0.923  13.594  20.328  0.00  0.00    +0.000 A 
ATOM     13  F   UNL     1      -0.496  14.691  20.967  0.00  0.00    +0.000 F 
ATOM     14  C   UNL     1      -2.288  13.325  20.276  0.00  0.00    +0.000 A 
ATOM     15  C   UNL     1      -2.734  12.182  19.614  0.00  0.00    +0.000 A 
ATOM     16  C   UNL     1      -1.807  11.322  19.028  0.00  0.00    +0.000 A 
ATOM     17  F   UNL     1      -2.258  10.220  18.407  0.00  0.00    +0.000 F 
ENDBRANCH   4  10
BRANCH   9  18
ATOM     18  C   UNL     1       3.053   5.020  18.420  0.00  0.00    +0.000 A 
ATOM     19  C   UNL     1       2.103   4.046  18.095  0.00  0.00    +0.000 A 
ATOM     20  C   UNL     1       2.323   2.719  18.457  0.00  0.00    +0.000 A 
ATOM     21  F   UNL     1       1.405   1.792  18.153  0.00  0.00    +0.000 F 
ATOM     22  C   UNL     1       3.474   2.339  19.143  0.00  0.00    +0.000 A 
ATOM     23  C   UNL     1       4.429   3.303  19.463  0.00  0.00    +0.000 A 
ATOM     24  C   UNL     1       4.214   4.632  19.100  0.00  0.00    +0.000 A 
ATOM     25  F   UNL     1       5.138   5.545  19.436  0.00  0.00    +0.000 F 
ENDBRANCH   9  18
TORSDOF 2
ENDMDL
MODEL 8
REMARK VINA RESULT:      -8.3      2.141      8.615
REMARK  Name = 
REMARK  2 active torsions:
REMARK  status: ('A' for Active; 'I' for Inactive)
REMARK    1  A    between atoms: C_4  and  C_5
REMARK    2  A    between atoms: C_17  and  C_18
REMARK                            x       y       z     vdW  Elec       q    Type
REMARK                         _______ _______ _______ _____ _____    ______ ____
ROOT
ATOM      1  O   UNL     1       2.139   9.881  17.448  0.00  0.00    +0.000 OA
ATOM      2  C   UNL     1       1.663   9.300  18.420  0.00  0.00    +0.000 C 
ATOM      3  C   UNL     1       0.624   9.949  19.289  0.00  0.00    +0.000 C 
ATOM      4  C   UNL     1      -0.024  11.007  18.759  0.00  0.00    +0.000 C 
ATOM      5  C   UNL     1       0.355   9.396  20.660  0.00  0.00    +0.000 C 
ATOM      6  C   UNL     1       1.446   8.448  21.140  0.00  0.00    +0.000 C 
ATOM      7  C   UNL     1       1.658   7.347  20.115  0.00  0.00    +0.000 C 
ATOM      8  C   UNL     1       2.086   7.905  18.787  0.00  0.00    +0.000 C 
ATOM      9  C   UNL     1       2.844   7.244  17.890  0.00  0.00    +0.000 C 
ENDROOT
BRANCH   4  10
ATOM     10  C   UNL     1      -1.116  11.718  19.431  0.00  0.00    +0.000 A 
ATOM     11  C   UNL     1      -2.436  11.563  18.995  0.00  0.00    +0.000 A 
ATOM     12  C   UNL     1      -3.455  12.285  19.615  0.00  0.00    +0.000 A 
ATOM     13  F   UNL     1      -4.715  12.147  19.182  0.00  0.00    +0.000 F 
ATOM     14  C   UNL     1      -3.188  13.155  20.670  0.00  0.00    +0.000 A 
ATOM     15  C   UNL     1      -1.878  13.302  21.120  0.00  0.00    +0.000 A 
ATOM     16  C   UNL     1      -0.854  12.587  20.499  0.00  0.00    +0.000 A 
ATOM     17  F   UNL     1       0.403  12.754  20.940  0.00  0.00    +0.000 F 
ENDBRANCH   4  10
BRANCH   9  18
ATOM     18  C   UNL     1       3.300   5.861  18.066  0.00  0.00    +0.000 A 
ATOM     19  C   UNL     1       4.621   5.607  18.454  0.00  0.00    +0.000 A 
ATOM     20  C   UNL     1       5.064   4.292  18.575  0.00  0.00    +0.000 A 
ATOM     21  F   UNL     1       6.332   4.055  18.935  0.00  0.00    +0.000 F 
ATOM     22  C   UNL     1       4.217   3.218  18.314  0.00  0.00    +0.000 A 
ATOM     23  C   UNL     1       2.898   3.463  17.937  0.00  0.00    +0.000 A 
ATOM     24  C   UNL     1       2.449   4.778  17.816  0.00  0.00    +0.000 A 
ATOM     25  F   UNL     1       1.181   4.990  17.432  0.00  0.00    +0.000 F 
ENDBRANCH   9  18
TORSDOF 2
ENDMDL
MODEL 9
REMARK VINA RESULT:      -8.3      1.522      8.573
REMARK  Name = 
REMARK  2 active torsions:
REMARK  status: ('A' for Active; 'I' for Inactive)
REMARK    1  A    between atoms: C_4  and  C_5
REMARK    2  A    between atoms: C_17  and  C_18
REMARK                            x       y       z     vdW  Elec       q    Type
REMARK                         _______ _______ _______ _____ _____    ______ ____
ROOT
ATOM      1  O   UNL     1       2.612   8.933  17.434  0.00  0.00    +0.000 OA
ATOM      2  C   UNL     1       2.008   8.556  18.434  0.00  0.00    +0.000 C 
ATOM      3  C   UNL     1       1.139   9.493  19.224  0.00  0.00    +0.000 C 
ATOM      4  C   UNL     1       0.756  10.625  18.599  0.00  0.00    +0.000 C 
ATOM      5  C   UNL     1       0.740   9.127  20.626  0.00  0.00    +0.000 C 
ATOM      6  C   UNL     1       1.580   7.997  21.205  0.00  0.00    +0.000 C 
ATOM      7  C   UNL     1       1.541   6.798  20.272  0.00  0.00    +0.000 C 
ATOM      8  C   UNL     1       2.095   7.136  18.917  0.00  0.00    +0.000 C 
ATOM      9  C   UNL     1       2.688   6.249  18.093  0.00  0.00    +0.000 C 
ENDROOT
BRANCH   4  10
ATOM     10  C   UNL     1      -0.149  11.618  19.186  0.00  0.00    +0.000 A 
ATOM     11  C   UNL     1       0.362  12.760  19.811  0.00  0.00    +0.000 A 
ATOM     12  C   UNL     1      -0.512  13.668  20.407  0.00  0.00    +0.000 A 
ATOM     13  F   UNL     1      -0.017  14.751  21.020  0.00  0.00    +0.000 F 
ATOM     14  C   UNL     1      -1.890  13.468  20.386  0.00  0.00    +0.000 A 
ATOM     15  C   UNL     1      -2.407  12.340  19.751  0.00  0.00    +0.000 A 
ATOM     16  C   UNL     1      -1.537  11.425  19.159  0.00  0.00    +0.000 A 
ATOM     17  F   UNL     1      -2.057  10.340  18.565  0.00  0.00    +0.000 F 
ENDBRANCH   4  10
BRANCH   9  18
ATOM     18  C   UNL     1       2.813   4.817  18.386  0.00  0.00    +0.000 A 
ATOM     19  C   UNL     1       3.907   4.349  19.123  0.00  0.00    +0.000 A 
ATOM     20  C   UNL     1       4.048   2.984  19.359  0.00  0.00    +0.000 A 
ATOM     21  F   UNL     1       5.102   2.541  20.056  0.00  0.00    +0.000 F 
ATOM     22  C   UNL     1       3.118   2.068  18.872  0.00  0.00    +0.000 A 
ATOM     23  C   UNL     1       2.022   2.527  18.145  0.00  0.00    +0.000 A 
ATOM     24  C   UNL     1       1.876   3.894  17.908  0.00  0.00    +0.000 A 
ATOM     25  F   UNL     1       0.823   4.310  17.188  0.00  0.00    +0.000 F 
ENDBRANCH   9  18
TORSDOF 2
ENDMDL
