MODEL 1
REMARK VINA RESULT:      -7.1      0.000      0.000
REMARK  Name = 
REMARK  11 active torsions:
REMARK  status: ('A' for Active; 'I' for Inactive)
REMARK    1  A    between atoms: N_1  and  C_2
REMARK    2  A    between atoms: C_2  and  C_3
REMARK    3  A    between atoms: C_3  and  C_4
REMARK    4  A    between atoms: C_4  and  C_5
REMARK    5  A    between atoms: C_5  and  C_6
REMARK    6  A    between atoms: C_9  and  S_10
REMARK    7  A    between atoms: N_11  and  C_12
REMARK    8  A    between atoms: C_12  and  C_13
REMARK    9  A    between atoms: C_13  and  C_14
REMARK   10  A    between atoms: C_16  and  C_17
REMARK   11  A    between atoms: C_22  and  C_23
REMARK                            x       y       z     vdW  Elec       q    Type
REMARK                         _______ _______ _______ _____ _____    ______ ____
ROOT
ATOM      1  C   UNL     1       2.409   7.137  17.535  0.00  0.00    +0.000 C 
ENDROOT
BRANCH   1   6
ATOM      2  C   UNL     1       3.280   5.761  19.528  0.00  0.00    +0.000 C 
ATOM      3  C   UNL     1       4.348   4.642  19.515  0.00  0.00    +0.000 C 
ATOM      4  N   UNL     1       5.226   4.919  18.345  0.00  0.00    +0.000 NA
ATOM      5  C   UNL     1       4.520   5.743  17.620  0.00  0.00    +0.000 C 
ATOM      6  N   UNL     1       3.311   6.159  18.122  0.00  0.00    +0.000 N 
BRANCH   5   7
ATOM      7  S   UNL     1       5.180   6.280  16.111  0.00  0.00    +0.000 S 
ATOM      8  H   UNL     1       3.991   6.634  15.600  0.00  0.00    +0.000 HD
ENDBRANCH   5   7
BRANCH   2   9
ATOM      9  C   UNL     1       1.925   5.283  20.041  0.00  0.00    +0.000 C 
BRANCH   9  10
ATOM     10  C   UNL     1       1.416   4.067  19.249  0.00  0.00    +0.000 C 
BRANCH  10  11
ATOM     11  C   UNL     1       1.137   2.881  20.170  0.00  0.00    +0.000 C 
BRANCH  11  12
ATOM     12  C   UNL     1       1.580   3.165  21.603  0.00  0.00    +0.000 C 
BRANCH  12  13
ATOM     13  N   UNL     1       2.785   2.399  21.910  0.00  0.00    +0.000 NA
ATOM     14  H   UNL     1       3.591   2.838  21.468  0.00  0.00    +0.000 HD
ATOM     15  H   UNL     1       2.712   1.466  21.504  0.00  0.00    +0.000 HD
ENDBRANCH  12  13
ENDBRANCH  11  12
ENDBRANCH  10  11
ENDBRANCH   9  10
ENDBRANCH   2   9
ENDBRANCH   1   6
BRANCH   1  16
ATOM     16  C   UNL     1       2.585   8.550  18.105  0.00  0.00    +0.000 C 
BRANCH  16  17
ATOM     17  C   UNL     1       1.413   9.163  18.844  0.00  0.00    +0.000 A 
ATOM     18  C   UNL     1       1.248   9.121  20.235  0.00  0.00    +0.000 A 
ATOM     19  C   UNL     1       0.097   9.655  20.845  0.00  0.00    +0.000 A 
ATOM     20  C   UNL     1      -0.883  10.264  20.043  0.00  0.00    +0.000 A 
ATOM     21  C   UNL     1      -0.732  10.334  18.653  0.00  0.00    +0.000 A 
ATOM     22  C   UNL     1       0.418   9.784  18.069  0.00  0.00    +0.000 A 
BRANCH  19  23
ATOM     23  C   UNL     1      -0.107   9.555  22.340  0.00  0.00    +0.000 C 
ATOM     24  F   UNL     1      -0.951   8.555  22.709  0.00  0.00    +0.000 F 
ATOM     25  F   UNL     1       1.057   9.330  23.009  0.00  0.00    +0.000 F 
ATOM     26  F   UNL     1      -0.626  10.698  22.866  0.00  0.00    +0.000 F 
ENDBRANCH  19  23
BRANCH  21  27
ATOM     27  C   UNL     1      -1.786  10.966  17.773  0.00  0.00    +0.000 C 
ATOM     28  F   UNL     1      -1.546  12.273  17.487  0.00  0.00    +0.000 F 
ATOM     29  F   UNL     1      -1.906  10.333  16.572  0.00  0.00    +0.000 F 
ATOM     30  F   UNL     1      -3.024  10.926  18.340  0.00  0.00    +0.000 F 
ENDBRANCH  21  27
ENDBRANCH  16  17
ENDBRANCH   1  16
TORSDOF 11
ENDMDL
MODEL 2
REMARK VINA RESULT:      -7.1      0.927      3.546
REMARK  Name = 
REMARK  11 active torsions:
REMARK  status: ('A' for Active; 'I' for Inactive)
REMARK    1  A    between atoms: N_1  and  C_2
REMARK    2  A    between atoms: C_2  and  C_3
REMARK    3  A    between atoms: C_3  and  C_4
REMARK    4  A    between atoms: C_4  and  C_5
REMARK    5  A    between atoms: C_5  and  C_6
REMARK    6  A    between atoms: C_9  and  S_10
REMARK    7  A    between atoms: N_11  and  C_12
REMARK    8  A    between atoms: C_12  and  C_13
REMARK    9  A    between atoms: C_13  and  C_14
REMARK   10  A    between atoms: C_16  and  C_17
REMARK   11  A    between atoms: C_22  and  C_23
REMARK                            x       y       z     vdW  Elec       q    Type
REMARK                         _______ _______ _______ _____ _____    ______ ____
ROOT
ATOM      1  C   UNL     1       3.269   6.915  18.809  0.00  0.00    +0.000 C 
ENDROOT
BRANCH   1   6
ATOM      2  C   UNL     1       3.183   4.449  18.077  0.00  0.00    +0.000 C 
ATOM      3  C   UNL     1       3.928   3.783  16.897  0.00  0.00    +0.000 C 
ATOM      4  N   UNL     1       5.151   4.601  16.662  0.00  0.00    +0.000 NA
ATOM      5  C   UNL     1       4.893   5.722  17.279  0.00  0.00    +0.000 C 
ATOM      6  N   UNL     1       3.715   5.807  17.980  0.00  0.00    +0.000 N 
BRANCH   5   7
ATOM      7  S   UNL     1       6.070   6.990  17.202  0.00  0.00    +0.000 S 
ATOM      8  H   UNL     1       6.537   6.771  18.441  0.00  0.00    +0.000 HD
ENDBRANCH   5   7
BRANCH   2   9
ATOM      9  C   UNL     1       1.666   4.333  17.964  0.00  0.00    +0.000 C 
BRANCH   9  10
ATOM     10  C   UNL     1       1.116   3.206  18.854  0.00  0.00    +0.000 C 
BRANCH  10  11
ATOM     11  C   UNL     1       0.874   3.693  20.281  0.00  0.00    +0.000 C 
BRANCH  11  12
ATOM     12  C   UNL     1       1.328   2.663  21.311  0.00  0.00    +0.000 C 
BRANCH  12  13
ATOM     13  N   UNL     1       2.416   3.212  22.115  0.00  0.00    +0.000 NA
ATOM     14  H   UNL     1       2.560   2.630  22.939  0.00  0.00    +0.000 HD
ATOM     15  H   UNL     1       2.155   4.135  22.463  0.00  0.00    +0.000 HD
ENDBRANCH  12  13
ENDBRANCH  11  12
ENDBRANCH  10  11
ENDBRANCH   9  10
ENDBRANCH   2   9
ENDBRANCH   1   6
BRANCH   1  16
ATOM     16  C   UNL     1       2.625   8.055  18.010  0.00  0.00    +0.000 C 
BRANCH  16  17
ATOM     17  C   UNL     1       1.448   8.777  18.635  0.00  0.00    +0.000 A 
ATOM     18  C   UNL     1       0.460   9.453  17.907  0.00  0.00    +0.000 A 
ATOM     19  C   UNL     1      -0.567  10.158  18.560  0.00  0.00    +0.000 A 
ATOM     20  C   UNL     1      -0.614  10.156  19.964  0.00  0.00    +0.000 A 
ATOM     21  C   UNL     1       0.352   9.473  20.714  0.00  0.00    +0.000 A 
ATOM     22  C   UNL     1       1.371   8.788  20.039  0.00  0.00    +0.000 A 
BRANCH  19  23
ATOM     23  C   UNL     1      -1.598  10.937  17.773  0.00  0.00    +0.000 C 
ATOM     24  F   UNL     1      -2.833  10.935  18.342  0.00  0.00    +0.000 F 
ATOM     25  F   UNL     1      -1.256  12.246  17.622  0.00  0.00    +0.000 F 
ATOM     26  F   UNL     1      -1.764  10.445  16.515  0.00  0.00    +0.000 F 
ENDBRANCH  19  23
BRANCH  21  27
ATOM     27  C   UNL     1       0.331   9.478  22.225  0.00  0.00    +0.000 C 
ATOM     28  F   UNL     1      -0.616   8.662  22.760  0.00  0.00    +0.000 F 
ATOM     29  F   UNL     1       1.518   9.081  22.761  0.00  0.00    +0.000 F 
ATOM     30  F   UNL     1       0.088  10.718  22.734  0.00  0.00    +0.000 F 
ENDBRANCH  21  27
ENDBRANCH  16  17
ENDBRANCH   1  16
TORSDOF 11
ENDMDL
MODEL 3
REMARK VINA RESULT:      -7.1      0.790      3.507
REMARK  Name = 
REMARK  11 active torsions:
REMARK  status: ('A' for Active; 'I' for Inactive)
REMARK    1  A    between atoms: N_1  and  C_2
REMARK    2  A    between atoms: C_2  and  C_3
REMARK    3  A    between atoms: C_3  and  C_4
REMARK    4  A    between atoms: C_4  and  C_5
REMARK    5  A    between atoms: C_5  and  C_6
REMARK    6  A    between atoms: C_9  and  S_10
REMARK    7  A    between atoms: N_11  and  C_12
REMARK    8  A    between atoms: C_12  and  C_13
REMARK    9  A    between atoms: C_13  and  C_14
REMARK   10  A    between atoms: C_16  and  C_17
REMARK   11  A    between atoms: C_22  and  C_23
REMARK                            x       y       z     vdW  Elec       q    Type
REMARK                         _______ _______ _______ _____ _____    ______ ____
ROOT
ATOM      1  C   UNL     1       2.351   7.099  17.609  0.00  0.00    +0.000 C 
ENDROOT
BRANCH   1   6
ATOM      2  C   UNL     1       3.255   5.718  19.584  0.00  0.00    +0.000 C 
ATOM      3  C   UNL     1       4.370   4.646  19.561  0.00  0.00    +0.000 C 
ATOM      4  N   UNL     1       5.249   4.985  18.409  0.00  0.00    +0.000 NA
ATOM      5  C   UNL     1       4.518   5.795  17.692  0.00  0.00    +0.000 C 
ATOM      6  N   UNL     1       3.286   6.148  18.188  0.00  0.00    +0.000 N 
BRANCH   5   7
ATOM      7  S   UNL     1       5.173   6.392  16.205  0.00  0.00    +0.000 S 
ATOM      8  H   UNL     1       4.725   7.644  16.391  0.00  0.00    +0.000 HD
ENDBRANCH   5   7
BRANCH   2   9
ATOM      9  C   UNL     1       1.915   5.172  20.069  0.00  0.00    +0.000 C 
BRANCH   9  10
ATOM     10  C   UNL     1       2.099   4.120  21.175  0.00  0.00    +0.000 C 
BRANCH  10  11
ATOM     11  C   UNL     1       1.293   2.856  20.879  0.00  0.00    +0.000 C 
BRANCH  11  12
ATOM     12  C   UNL     1       0.899   2.772  19.408  0.00  0.00    +0.000 C 
BRANCH  12  13
ATOM     13  N   UNL     1       1.670   1.723  18.747  0.00  0.00    +0.000 NA
ATOM     14  H   UNL     1       2.351   2.145  18.116  0.00  0.00    +0.000 HD
ATOM     15  H   UNL     1       1.053   1.159  18.162  0.00  0.00    +0.000 HD
ENDBRANCH  12  13
ENDBRANCH  11  12
ENDBRANCH  10  11
ENDBRANCH   9  10
ENDBRANCH   2   9
ENDBRANCH   1   6
BRANCH   1  16
ATOM     16  C   UNL     1       2.525   8.527  18.142  0.00  0.00    +0.000 C 
BRANCH  16  17
ATOM     17  C   UNL     1       1.318   9.199  18.766  0.00  0.00    +0.000 A 
ATOM     18  C   UNL     1       0.367   9.935  18.048  0.00  0.00    +0.000 A 
ATOM     19  C   UNL     1      -0.693  10.588  18.706  0.00  0.00    +0.000 A 
ATOM     20  C   UNL     1      -0.808  10.470  20.101  0.00  0.00    +0.000 A 
ATOM     21  C   UNL     1       0.120   9.725  20.839  0.00  0.00    +0.000 A 
ATOM     22  C   UNL     1       1.172   9.094  20.160  0.00  0.00    +0.000 A 
BRANCH  19  23
ATOM     23  C   UNL     1      -1.684  11.432  17.936  0.00  0.00    +0.000 C 
ATOM     24  F   UNL     1      -2.853  11.640  18.599  0.00  0.00    +0.000 F 
ATOM     25  F   UNL     1      -1.195  12.668  17.641  0.00  0.00    +0.000 F 
ATOM     26  F   UNL     1      -2.023  10.868  16.745  0.00  0.00    +0.000 F 
ENDBRANCH  19  23
BRANCH  21  27
ATOM     27  C   UNL     1       0.025   9.605  22.342  0.00  0.00    +0.000 C 
ATOM     28  F   UNL     1      -0.895   8.694  22.759  0.00  0.00    +0.000 F 
ATOM     29  F   UNL     1       1.207   9.235  22.909  0.00  0.00    +0.000 F 
ATOM     30  F   UNL     1      -0.319  10.783  22.933  0.00  0.00    +0.000 F 
ENDBRANCH  21  27
ENDBRANCH  16  17
ENDBRANCH   1  16
TORSDOF 11
ENDMDL
MODEL 4
REMARK VINA RESULT:      -7.0      1.659      3.554
REMARK  Name = 
REMARK  11 active torsions:
REMARK  status: ('A' for Active; 'I' for Inactive)
REMARK    1  A    between atoms: N_1  and  C_2
REMARK    2  A    between atoms: C_2  and  C_3
REMARK    3  A    between atoms: C_3  and  C_4
REMARK    4  A    between atoms: C_4  and  C_5
REMARK    5  A    between atoms: C_5  and  C_6
REMARK    6  A    between atoms: C_9  and  S_10
REMARK    7  A    between atoms: N_11  and  C_12
REMARK    8  A    between atoms: C_12  and  C_13
REMARK    9  A    between atoms: C_13  and  C_14
REMARK   10  A    between atoms: C_16  and  C_17
REMARK   11  A    between atoms: C_22  and  C_23
REMARK                            x       y       z     vdW  Elec       q    Type
REMARK                         _______ _______ _______ _____ _____    ______ ____
ROOT
ATOM      1  C   UNL     1       3.089   6.785  18.796  0.00  0.00    +0.000 C 
ENDROOT
BRANCH   1   6
ATOM      2  C   UNL     1       3.011   4.298  18.140  0.00  0.00    +0.000 C 
ATOM      3  C   UNL     1       3.750   3.600  16.974  0.00  0.00    +0.000 C 
ATOM      4  N   UNL     1       4.965   4.417  16.704  0.00  0.00    +0.000 NA
ATOM      5  C   UNL     1       4.706   5.555  17.288  0.00  0.00    +0.000 C 
ATOM      6  N   UNL     1       3.534   5.655  17.997  0.00  0.00    +0.000 N 
BRANCH   5   7
ATOM      7  S   UNL     1       5.875   6.827  17.162  0.00  0.00    +0.000 S 
ATOM      8  H   UNL     1       5.694   7.257  18.420  0.00  0.00    +0.000 HD
ENDBRANCH   5   7
BRANCH   2   9
ATOM      9  C   UNL     1       1.494   4.169  18.044  0.00  0.00    +0.000 C 
BRANCH   9  10
ATOM     10  C   UNL     1       0.938   3.202  19.103  0.00  0.00    +0.000 C 
BRANCH  10  11
ATOM     11  C   UNL     1       1.072   3.781  20.510  0.00  0.00    +0.000 C 
BRANCH  11  12
ATOM     12  C   UNL     1       1.357   2.694  21.541  0.00  0.00    +0.000 C 
BRANCH  12  13
ATOM     13  N   UNL     1       2.788   2.646  21.830  0.00  0.00    +0.000 NA
ATOM     14  H   UNL     1       3.034   1.724  22.188  0.00  0.00    +0.000 HD
ATOM     15  H   UNL     1       3.011   3.308  22.573  0.00  0.00    +0.000 HD
ENDBRANCH  12  13
ENDBRANCH  11  12
ENDBRANCH  10  11
ENDBRANCH   9  10
ENDBRANCH   2   9
ENDBRANCH   1   6
BRANCH   1  16
ATOM     16  C   UNL     1       2.272   7.811  18.001  0.00  0.00    +0.000 C 
BRANCH  16  17
ATOM     17  C   UNL     1       1.708   9.000  18.753  0.00  0.00    +0.000 A 
ATOM     18  C   UNL     1       1.691  10.310  18.258  0.00  0.00    +0.000 A 
ATOM     19  C   UNL     1       1.211  11.375  19.043  0.00  0.00    +0.000 A 
ATOM     20  C   UNL     1       0.716  11.109  20.331  0.00  0.00    +0.000 A 
ATOM     21  C   UNL     1       0.706   9.805  20.841  0.00  0.00    +0.000 A 
ATOM     22  C   UNL     1       1.200   8.764  20.043  0.00  0.00    +0.000 A 
BRANCH  19  23
ATOM     23  C   UNL     1       1.249  12.798  18.530  0.00  0.00    +0.000 C 
ATOM     24  F   UNL     1       1.478  13.722  19.501  0.00  0.00    +0.000 F 
ATOM     25  F   UNL     1       2.221  12.987  17.595  0.00  0.00    +0.000 F 
ATOM     26  F   UNL     1       0.080  13.161  17.935  0.00  0.00    +0.000 F 
ENDBRANCH  19  23
BRANCH  21  27
ATOM     27  C   UNL     1       0.198   9.502  22.231  0.00  0.00    +0.000 C 
ATOM     28  F   UNL     1      -0.365  10.573  22.852  0.00  0.00    +0.000 F 
ATOM     29  F   UNL     1      -0.748   8.522  22.236  0.00  0.00    +0.000 F 
ATOM     30  F   UNL     1       1.188   9.066  23.059  0.00  0.00    +0.000 F 
ENDBRANCH  21  27
ENDBRANCH  16  17
ENDBRANCH   1  16
TORSDOF 11
ENDMDL
MODEL 5
REMARK VINA RESULT:      -6.9      0.876      1.203
REMARK  Name = 
REMARK  11 active torsions:
REMARK  status: ('A' for Active; 'I' for Inactive)
REMARK    1  A    between atoms: N_1  and  C_2
REMARK    2  A    between atoms: C_2  and  C_3
REMARK    3  A    between atoms: C_3  and  C_4
REMARK    4  A    between atoms: C_4  and  C_5
REMARK    5  A    between atoms: C_5  and  C_6
REMARK    6  A    between atoms: C_9  and  S_10
REMARK    7  A    between atoms: N_11  and  C_12
REMARK    8  A    between atoms: C_12  and  C_13
REMARK    9  A    between atoms: C_13  and  C_14
REMARK   10  A    between atoms: C_16  and  C_17
REMARK   11  A    between atoms: C_22  and  C_23
REMARK                            x       y       z     vdW  Elec       q    Type
REMARK                         _______ _______ _______ _____ _____    ______ ____
ROOT
ATOM      1  C   UNL     1       3.245   6.948  18.809  0.00  0.00    +0.000 C 
ENDROOT
BRANCH   1   6
ATOM      2  C   UNL     1       3.025   4.433  18.308  0.00  0.00    +0.000 C 
ATOM      3  C   UNL     1       3.613   3.649  17.111  0.00  0.00    +0.000 C 
ATOM      4  N   UNL     1       4.815   4.407  16.668  0.00  0.00    +0.000 NA
ATOM      5  C   UNL     1       4.654   5.583  17.210  0.00  0.00    +0.000 C 
ATOM      6  N   UNL     1       3.568   5.762  18.033  0.00  0.00    +0.000 N 
BRANCH   5   7
ATOM      7  S   UNL     1       5.839   6.804  16.889  0.00  0.00    +0.000 S 
ATOM      8  H   UNL     1       4.996   7.825  17.109  0.00  0.00    +0.000 HD
ENDBRANCH   5   7
BRANCH   2   9
ATOM      9  C   UNL     1       1.502   4.353  18.380  0.00  0.00    +0.000 C 
BRANCH   9  10
ATOM     10  C   UNL     1       1.014   4.140  19.823  0.00  0.00    +0.000 C 
BRANCH  10  11
ATOM     11  C   UNL     1       1.008   2.658  20.193  0.00  0.00    +0.000 C 
BRANCH  11  12
ATOM     12  C   UNL     1       1.731   2.405  21.513  0.00  0.00    +0.000 C 
BRANCH  12  13
ATOM     13  N   UNL     1       2.321   3.649  22.001  0.00  0.00    +0.000 NA
ATOM     14  H   UNL     1       2.006   4.427  21.423  0.00  0.00    +0.000 HD
ATOM     15  H   UNL     1       3.335   3.611  21.899  0.00  0.00    +0.000 HD
ENDBRANCH  12  13
ENDBRANCH  11  12
ENDBRANCH  10  11
ENDBRANCH   9  10
ENDBRANCH   2   9
ENDBRANCH   1   6
BRANCH   1  16
ATOM     16  C   UNL     1       2.440   7.991  18.023  0.00  0.00    +0.000 C 
BRANCH  16  17
ATOM     17  C   UNL     1       1.392   8.786  18.775  0.00  0.00    +0.000 A 
ATOM     18  C   UNL     1       1.306   8.856  20.171  0.00  0.00    +0.000 A 
ATOM     19  C   UNL     1       0.263   9.561  20.799  0.00  0.00    +0.000 A 
ATOM     20  C   UNL     1      -0.687  10.227  20.007  0.00  0.00    +0.000 A 
ATOM     21  C   UNL     1      -0.613  10.188  18.609  0.00  0.00    +0.000 A 
ATOM     22  C   UNL     1       0.430   9.468  18.009  0.00  0.00    +0.000 A 
BRANCH  19  23
ATOM     23  C   UNL     1       0.138   9.585  22.306  0.00  0.00    +0.000 C 
ATOM     24  F   UNL     1       1.286   9.248  22.954  0.00  0.00    +0.000 F 
ATOM     25  F   UNL     1      -0.213  10.813  22.779  0.00  0.00    +0.000 F 
ATOM     26  F   UNL     1      -0.814   8.724  22.758  0.00  0.00    +0.000 F 
ENDBRANCH  19  23
BRANCH  21  27
ATOM     27  C   UNL     1      -1.637  10.880  17.741  0.00  0.00    +0.000 C 
ATOM     28  F   UNL     1      -1.340  12.180  17.477  0.00  0.00    +0.000 F 
ATOM     29  F   UNL     1      -1.787  10.273  16.531  0.00  0.00    +0.000 F 
ATOM     30  F   UNL     1      -2.875  10.887  18.310  0.00  0.00    +0.000 F 
ENDBRANCH  21  27
ENDBRANCH  16  17
ENDBRANCH   1  16
TORSDOF 11
ENDMDL
MODEL 6
REMARK VINA RESULT:      -6.9      4.732      7.789
REMARK  Name = 
REMARK  11 active torsions:
REMARK  status: ('A' for Active; 'I' for Inactive)
REMARK    1  A    between atoms: N_1  and  C_2
REMARK    2  A    between atoms: C_2  and  C_3
REMARK    3  A    between atoms: C_3  and  C_4
REMARK    4  A    between atoms: C_4  and  C_5
REMARK    5  A    between atoms: C_5  and  C_6
REMARK    6  A    between atoms: C_9  and  S_10
REMARK    7  A    between atoms: N_11  and  C_12
REMARK    8  A    between atoms: C_12  and  C_13
REMARK    9  A    between atoms: C_13  and  C_14
REMARK   10  A    between atoms: C_16  and  C_17
REMARK   11  A    between atoms: C_22  and  C_23
REMARK                            x       y       z     vdW  Elec       q    Type
REMARK                         _______ _______ _______ _____ _____    ______ ____
ROOT
ATOM      1  C   UNL     1      -0.269   8.528  20.866  0.00  0.00    +0.000 C 
ENDROOT
BRANCH   1   6
ATOM      2  C   UNL     1       0.189  10.591  19.396  0.00  0.00    +0.000 C 
ATOM      3  C   UNL     1      -0.326  12.035  19.601  0.00  0.00    +0.000 C 
ATOM      4  N   UNL     1      -0.572  12.186  21.062  0.00  0.00    +0.000 NA
ATOM      5  C   UNL     1      -0.615  10.955  21.494  0.00  0.00    +0.000 C 
ATOM      6  N   UNL     1      -0.363   9.952  20.589  0.00  0.00    +0.000 N 
BRANCH   5   7
ATOM      7  S   UNL     1      -0.941  10.687  23.174  0.00  0.00    +0.000 S 
ATOM      8  H   UNL     1      -0.472  11.883  23.561  0.00  0.00    +0.000 HD
ENDBRANCH   5   7
BRANCH   2   9
ATOM      9  C   UNL     1      -0.254   9.985  18.068  0.00  0.00    +0.000 C 
BRANCH   9  10
ATOM     10  C   UNL     1      -1.520  10.671  17.526  0.00  0.00    +0.000 C 
BRANCH  10  11
ATOM     11  C   UNL     1      -2.492   9.654  16.932  0.00  0.00    +0.000 C 
BRANCH  11  12
ATOM     12  C   UNL     1      -2.921  10.044  15.521  0.00  0.00    +0.000 C 
BRANCH  12  13
ATOM     13  N   UNL     1      -3.128  11.487  15.446  0.00  0.00    +0.000 NA
ATOM     14  H   UNL     1      -4.097  11.682  15.197  0.00  0.00    +0.000 HD
ATOM     15  H   UNL     1      -2.558  11.877  14.695  0.00  0.00    +0.000 HD
ENDBRANCH  12  13
ENDBRANCH  11  12
ENDBRANCH  10  11
ENDBRANCH   9  10
ENDBRANCH   2   9
ENDBRANCH   1   6
BRANCH   1  16
ATOM     16  C   UNL     1       1.145   8.073  21.248  0.00  0.00    +0.000 C 
BRANCH  16  17
ATOM     17  C   UNL     1       1.770   6.956  20.437  0.00  0.00    +0.000 A 
ATOM     18  C   UNL     1       2.695   7.153  19.404  0.00  0.00    +0.000 A 
ATOM     19  C   UNL     1       3.182   6.069  18.650  0.00  0.00    +0.000 A 
ATOM     20  C   UNL     1       2.751   4.769  18.962  0.00  0.00    +0.000 A 
ATOM     21  C   UNL     1       1.840   4.544  20.002  0.00  0.00    +0.000 A 
ATOM     22  C   UNL     1       1.362   5.643  20.730  0.00  0.00    +0.000 A 
BRANCH  19  23
ATOM     23  C   UNL     1       4.135   6.291  17.497  0.00  0.00    +0.000 C 
ATOM     24  F   UNL     1       4.154   5.267  16.601  0.00  0.00    +0.000 F 
ATOM     25  F   UNL     1       3.834   7.409  16.782  0.00  0.00    +0.000 F 
ATOM     26  F   UNL     1       5.421   6.447  17.915  0.00  0.00    +0.000 F 
ENDBRANCH  19  23
BRANCH  21  27
ATOM     27  C   UNL     1       1.348   3.156  20.337  0.00  0.00    +0.000 C 
ATOM     28  F   UNL     1       0.980   3.007  21.638  0.00  0.00    +0.000 F 
ATOM     29  F   UNL     1       0.264   2.796  19.595  0.00  0.00    +0.000 F 
ATOM     30  F   UNL     1       2.293   2.203  20.103  0.00  0.00    +0.000 F 
ENDBRANCH  21  27
ENDBRANCH  16  17
ENDBRANCH   1  16
TORSDOF 11
ENDMDL
MODEL 7
REMARK VINA RESULT:      -6.9      5.564      8.149
REMARK  Name = 
REMARK  11 active torsions:
REMARK  status: ('A' for Active; 'I' for Inactive)
REMARK    1  A    between atoms: N_1  and  C_2
REMARK    2  A    between atoms: C_2  and  C_3
REMARK    3  A    between atoms: C_3  and  C_4
REMARK    4  A    between atoms: C_4  and  C_5
REMARK    5  A    between atoms: C_5  and  C_6
REMARK    6  A    between atoms: C_9  and  S_10
REMARK    7  A    between atoms: N_11  and  C_12
REMARK    8  A    between atoms: C_12  and  C_13
REMARK    9  A    between atoms: C_13  and  C_14
REMARK   10  A    between atoms: C_16  and  C_17
REMARK   11  A    between atoms: C_22  and  C_23
REMARK                            x       y       z     vdW  Elec       q    Type
REMARK                         _______ _______ _______ _____ _____    ______ ____
ROOT
ATOM      1  C   UNL     1       1.893   4.333  17.494  0.00  0.00    +0.000 C 
ENDROOT
BRANCH   1   6
ATOM      2  C   UNL     1       1.062   4.638  19.911  0.00  0.00    +0.000 C 
ATOM      3  C   UNL     1       1.615   5.597  20.991  0.00  0.00    +0.000 C 
ATOM      4  N   UNL     1       2.244   6.730  20.258  0.00  0.00    +0.000 NA
ATOM      5  C   UNL     1       2.400   6.265  19.048  0.00  0.00    +0.000 C 
ATOM      6  N   UNL     1       1.913   5.008  18.781  0.00  0.00    +0.000 N 
BRANCH   5   7
ATOM      7  S   UNL     1       3.163   7.279  17.871  0.00  0.00    +0.000 S 
ATOM      8  H   UNL     1       2.045   7.964  17.586  0.00  0.00    +0.000 HD
ENDBRANCH   5   7
BRANCH   2   9
ATOM      9  C   UNL     1       1.132   3.171  20.327  0.00  0.00    +0.000 C 
BRANCH   9  10
ATOM     10  C   UNL     1       1.906   2.992  21.643  0.00  0.00    +0.000 C 
BRANCH  10  11
ATOM     11  C   UNL     1       3.099   2.055  21.463  0.00  0.00    +0.000 C 
BRANCH  11  12
ATOM     12  C   UNL     1       4.166   2.670  20.563  0.00  0.00    +0.000 C 
BRANCH  12  13
ATOM     13  N   UNL     1       5.002   1.617  19.994  0.00  0.00    +0.000 NA
ATOM     14  H   UNL     1       4.422   0.965  19.468  0.00  0.00    +0.000 HD
ATOM     15  H   UNL     1       5.428   1.073  20.745  0.00  0.00    +0.000 HD
ENDBRANCH  12  13
ENDBRANCH  11  12
ENDBRANCH  10  11
ENDBRANCH   9  10
ENDBRANCH   2   9
ENDBRANCH   1   6
BRANCH   1  16
ATOM     16  C   UNL     1       3.023   3.309  17.324  0.00  0.00    +0.000 C 
BRANCH  16  17
ATOM     17  C   UNL     1       4.334   3.797  16.742  0.00  0.00    +0.000 A 
ATOM     18  C   UNL     1       4.658   3.750  15.380  0.00  0.00    +0.000 A 
ATOM     19  C   UNL     1       5.924   4.161  14.921  0.00  0.00    +0.000 A 
ATOM     20  C   UNL     1       6.862   4.650  15.846  0.00  0.00    +0.000 A 
ATOM     21  C   UNL     1       6.555   4.723  17.210  0.00  0.00    +0.000 A 
ATOM     22  C   UNL     1       5.291   4.298  17.642  0.00  0.00    +0.000 A 
BRANCH  19  23
ATOM     23  C   UNL     1       6.293   4.053  13.458  0.00  0.00    +0.000 C 
ATOM     24  F   UNL     1       5.238   4.222  12.617  0.00  0.00    +0.000 F 
ATOM     25  F   UNL     1       7.221   4.978  13.087  0.00  0.00    +0.000 F 
ATOM     26  F   UNL     1       6.828   2.841  13.150  0.00  0.00    +0.000 F 
ENDBRANCH  19  23
BRANCH  21  27
ATOM     27  C   UNL     1       7.559   5.226  18.222  0.00  0.00    +0.000 C 
ATOM     28  F   UNL     1       8.060   6.455  17.928  0.00  0.00    +0.000 F 
ATOM     29  F   UNL     1       7.029   5.323  19.473  0.00  0.00    +0.000 F 
ATOM     30  F   UNL     1       8.635   4.399  18.336  0.00  0.00    +0.000 F 
ENDBRANCH  21  27
ENDBRANCH  16  17
ENDBRANCH   1  16
TORSDOF 11
ENDMDL
MODEL 8
REMARK VINA RESULT:      -6.8      4.868      7.633
REMARK  Name = 
REMARK  11 active torsions:
REMARK  status: ('A' for Active; 'I' for Inactive)
REMARK    1  A    between atoms: N_1  and  C_2
REMARK    2  A    between atoms: C_2  and  C_3
REMARK    3  A    between atoms: C_3  and  C_4
REMARK    4  A    between atoms: C_4  and  C_5
REMARK    5  A    between atoms: C_5  and  C_6
REMARK    6  A    between atoms: C_9  and  S_10
REMARK    7  A    between atoms: N_11  and  C_12
REMARK    8  A    between atoms: C_12  and  C_13
REMARK    9  A    between atoms: C_13  and  C_14
REMARK   10  A    between atoms: C_16  and  C_17
REMARK   11  A    between atoms: C_22  and  C_23
REMARK                            x       y       z     vdW  Elec       q    Type
REMARK                         _______ _______ _______ _____ _____    ______ ____
ROOT
ATOM      1  C   UNL     1       0.300   8.036  20.786  0.00  0.00    +0.000 C 
ENDROOT
BRANCH   1   6
ATOM      2  C   UNL     1       0.738  10.345  19.738  0.00  0.00    +0.000 C 
ATOM      3  C   UNL     1       0.290  11.728  20.267  0.00  0.00    +0.000 C 
ATOM      4  N   UNL     1       0.141  11.581  21.741  0.00  0.00    +0.000 NA
ATOM      5  C   UNL     1       0.081  10.289  21.916  0.00  0.00    +0.000 C 
ATOM      6  N   UNL     1       0.240   9.488  20.811  0.00  0.00    +0.000 N 
BRANCH   5   7
ATOM      7  S   UNL     1      -0.148   9.689  23.525  0.00  0.00    +0.000 S 
ATOM      8  H   UNL     1       1.154   9.426  23.722  0.00  0.00    +0.000 HD
ENDBRANCH   5   7
BRANCH   2   9
ATOM      9  C   UNL     1       0.191  10.035  18.348  0.00  0.00    +0.000 C 
BRANCH   9  10
ATOM     10  C   UNL     1      -1.211  10.632  18.144  0.00  0.00    +0.000 C 
BRANCH  10  11
ATOM     11  C   UNL     1      -1.932   9.970  16.972  0.00  0.00    +0.000 C 
BRANCH  11  12
ATOM     12  C   UNL     1      -3.267  10.648  16.677  0.00  0.00    +0.000 C 
BRANCH  12  13
ATOM     13  N   UNL     1      -3.162  11.441  15.456  0.00  0.00    +0.000 NA
ATOM     14  H   UNL     1      -2.473  11.021  14.833  0.00  0.00    +0.000 HD
ATOM     15  H   UNL     1      -2.812  12.373  15.679  0.00  0.00    +0.000 HD
ENDBRANCH  12  13
ENDBRANCH  11  12
ENDBRANCH  10  11
ENDBRANCH   9  10
ENDBRANCH   2   9
ENDBRANCH   1   6
BRANCH   1  16
ATOM     16  C   UNL     1       1.727   7.482  20.880  0.00  0.00    +0.000 C 
BRANCH  16  17
ATOM     17  C   UNL     1       2.084   6.298  20.004  0.00  0.00    +0.000 A 
ATOM     18  C   UNL     1       1.542   5.014  20.155  0.00  0.00    +0.000 A 
ATOM     19  C   UNL     1       1.972   3.947  19.345  0.00  0.00    +0.000 A 
ATOM     20  C   UNL     1       2.938   4.185  18.353  0.00  0.00    +0.000 A 
ATOM     21  C   UNL     1       3.482   5.463  18.171  0.00  0.00    +0.000 A 
ATOM     22  C   UNL     1       3.044   6.506  18.999  0.00  0.00    +0.000 A 
BRANCH  19  23
ATOM     23  C   UNL     1       1.429   2.550  19.549  0.00  0.00    +0.000 C 
ATOM     24  F   UNL     1       1.215   2.233  20.854  0.00  0.00    +0.000 F 
ATOM     25  F   UNL     1       0.239   2.356  18.915  0.00  0.00    +0.000 F 
ATOM     26  F   UNL     1       2.271   1.595  19.065  0.00  0.00    +0.000 F 
ENDBRANCH  19  23
BRANCH  21  27
ATOM     27  C   UNL     1       4.537   5.733  17.125  0.00  0.00    +0.000 C 
ATOM     28  F   UNL     1       4.599   4.783  16.154  0.00  0.00    +0.000 F 
ATOM     29  F   UNL     1       4.339   6.918  16.483  0.00  0.00    +0.000 F 
ATOM     30  F   UNL     1       5.788   5.804  17.660  0.00  0.00    +0.000 F 
ENDBRANCH  21  27
ENDBRANCH  16  17
ENDBRANCH   1  16
TORSDOF 11
ENDMDL
MODEL 9
REMARK VINA RESULT:      -6.8      1.636      2.092
REMARK  Name = 
REMARK  11 active torsions:
REMARK  status: ('A' for Active; 'I' for Inactive)
REMARK    1  A    between atoms: N_1  and  C_2
REMARK    2  A    between atoms: C_2  and  C_3
REMARK    3  A    between atoms: C_3  and  C_4
REMARK    4  A    between atoms: C_4  and  C_5
REMARK    5  A    between atoms: C_5  and  C_6
REMARK    6  A    between atoms: C_9  and  S_10
REMARK    7  A    between atoms: N_11  and  C_12
REMARK    8  A    between atoms: C_12  and  C_13
REMARK    9  A    between atoms: C_13  and  C_14
REMARK   10  A    between atoms: C_16  and  C_17
REMARK   11  A    between atoms: C_22  and  C_23
REMARK                            x       y       z     vdW  Elec       q    Type
REMARK                         _______ _______ _______ _____ _____    ______ ____
ROOT
ATOM      1  C   UNL     1       3.097   6.775  18.837  0.00  0.00    +0.000 C 
ENDROOT
BRANCH   1   6
ATOM      2  C   UNL     1       3.007   4.343  18.000  0.00  0.00    +0.000 C 
ATOM      3  C   UNL     1       3.700   3.741  16.755  0.00  0.00    +0.000 C 
ATOM      4  N   UNL     1       4.897   4.587  16.496  0.00  0.00    +0.000 NA
ATOM      5  C   UNL     1       4.657   5.676  17.174  0.00  0.00    +0.000 C 
ATOM      6  N   UNL     1       3.515   5.712  17.938  0.00  0.00    +0.000 N 
BRANCH   5   7
ATOM      7  S   UNL     1       5.812   6.964  17.095  0.00  0.00    +0.000 S 
ATOM      8  H   UNL     1       6.877   6.151  17.167  0.00  0.00    +0.000 HD
ENDBRANCH   5   7
BRANCH   2   9
ATOM      9  C   UNL     1       1.488   4.208  17.958  0.00  0.00    +0.000 C 
BRANCH   9  10
ATOM     10  C   UNL     1       0.993   3.076  18.874  0.00  0.00    +0.000 C 
BRANCH  10  11
ATOM     11  C   UNL     1       0.856   3.551  20.319  0.00  0.00    +0.000 C 
BRANCH  11  12
ATOM     12  C   UNL     1       1.449   2.545  21.301  0.00  0.00    +0.000 C 
BRANCH  12  13
ATOM     13  N   UNL     1       2.450   3.200  22.138  0.00  0.00    +0.000 NA
ATOM     14  H   UNL     1       3.306   2.647  22.144  0.00  0.00    +0.000 HD
ATOM     15  H   UNL     1       2.125   3.229  23.104  0.00  0.00    +0.000 HD
ENDBRANCH  12  13
ENDBRANCH  11  12
ENDBRANCH  10  11
ENDBRANCH   9  10
ENDBRANCH   2   9
ENDBRANCH   1   6
BRANCH   1  16
ATOM     16  C   UNL     1       2.234   7.845  18.157  0.00  0.00    +0.000 C 
BRANCH  16  17
ATOM     17  C   UNL     1       1.654   8.941  19.029  0.00  0.00    +0.000 A 
ATOM     18  C   UNL     1       1.079   8.726  20.289  0.00  0.00    +0.000 A 
ATOM     19  C   UNL     1       0.500   9.786  21.012  0.00  0.00    +0.000 A 
ATOM     20  C   UNL     1       0.527  11.081  20.469  0.00  0.00    +0.000 A 
ATOM     21  C   UNL     1       1.112  11.325  19.220  0.00  0.00    +0.000 A 
ATOM     22  C   UNL     1       1.672  10.250  18.515  0.00  0.00    +0.000 A 
BRANCH  19  23
ATOM     23  C   UNL     1      -0.173   9.541  22.344  0.00  0.00    +0.000 C 
ATOM     24  F   UNL     1      -0.917   8.403  22.378  0.00  0.00    +0.000 F 
ATOM     25  F   UNL     1       0.721   9.435  23.366  0.00  0.00    +0.000 F 
ATOM     26  F   UNL     1      -1.017  10.551  22.687  0.00  0.00    +0.000 F 
ENDBRANCH  19  23
BRANCH  21  27
ATOM     27  C   UNL     1       1.132  12.707  18.610  0.00  0.00    +0.000 C 
ATOM     28  F   UNL     1      -0.032  13.050  17.997  0.00  0.00    +0.000 F 
ATOM     29  F   UNL     1       1.371  13.678  19.535  0.00  0.00    +0.000 F 
ATOM     30  F   UNL     1       2.107  12.842  17.668  0.00  0.00    +0.000 F 
ENDBRANCH  21  27
ENDBRANCH  16  17
ENDBRANCH   1  16
TORSDOF 11
ENDMDL
