MODEL 1
REMARK VINA RESULT:      -6.6      0.000      0.000
REMARK  Name = 
REMARK  8 active torsions:
REMARK  status: ('A' for Active; 'I' for Inactive)
REMARK    1  A    between atoms: C_1  and  O_2
REMARK    2  A    between atoms: O_2  and  C_3
REMARK    3  A    between atoms: C_3  and  C_4
REMARK    4  A    between atoms: C_4  and  O_5
REMARK    5  A    between atoms: N_8  and  C_9
REMARK    6  A    between atoms: C_9  and  C_10
REMARK    7  A    between atoms: N_13  and  C_14
REMARK    8  A    between atoms: C_14  and  C_15
REMARK                            x       y       z     vdW  Elec       q    Type
REMARK                         _______ _______ _______ _____ _____    ______ ____
ROOT
ATOM      1  C   UNL     1       1.982   4.077  20.321  0.00  0.00    +0.000 C 
ATOM      2  C   UNL     1       2.025   5.583  20.634  0.00  0.00    +0.000 C 
ATOM      3  C   UNL     1       2.398   6.414  19.407  0.00  0.00    +0.000 C 
ATOM      4  N   UNL     1       3.688   6.001  18.824  0.00  0.00    +0.000 NA
ATOM      5  C   UNL     1       3.648   4.570  18.468  0.00  0.00    +0.000 C 
ATOM      6  C   UNL     1       3.329   3.692  19.684  0.00  0.00    +0.000 C 
ENDROOT
BRANCH   1   8
ATOM      7  C   UNL     1       0.936   2.383  18.887  0.00  0.00    +0.000 C 
ATOM      8  O   UNL     1       0.987   3.729  19.332  0.00  0.00    +0.000 OA
ENDBRANCH   1   8
BRANCH   1   9
ATOM      9  C   UNL     1       1.765   3.273  21.627  0.00  0.00    +0.000 C 
BRANCH   9  10
ATOM     10  O   UNL     1       2.870   2.421  21.918  0.00  0.00    +0.000 OA
ATOM     11  H   UNL     1       3.461   2.924  22.509  0.00  0.00    +0.000 HD
ENDBRANCH   9  10
ENDBRANCH   1   9
BRANCH   4  12
ATOM     12  C   UNL     1       3.966   6.853  17.648  0.00  0.00    +0.000 C 
BRANCH  12  13
ATOM     13  C   UNL     1       5.151   6.383  16.873  0.00  0.00    +0.000 A 
ATOM     14  C   UNL     1       6.513   6.525  17.230  0.00  0.00    +0.000 A 
ATOM     15  N   UNL     1       7.343   5.983  16.340  0.00  0.00    +0.000 NA
ATOM     16  N   UNL     1       6.518   5.517  15.385  0.00  0.00    +0.000 N 
ATOM     17  C   UNL     1       5.199   5.709  15.667  0.00  0.00    +0.000 A 
BRANCH  16  18
ATOM     18  C   UNL     1       7.073   4.870  14.217  0.00  0.00    +0.000 C 
BRANCH  18  19
ATOM     19  C   UNL     1       6.145   3.808  13.672  0.00  0.00    +0.000 C 
ATOM     20  F   UNL     1       6.519   3.508  12.398  0.00  0.00    +0.000 F 
ENDBRANCH  18  19
ENDBRANCH  16  18
ENDBRANCH  12  13
ENDBRANCH   4  12
TORSDOF 7
ENDMDL
MODEL 2
REMARK VINA RESULT:      -6.1      1.200      2.110
REMARK  Name = 
REMARK  8 active torsions:
REMARK  status: ('A' for Active; 'I' for Inactive)
REMARK    1  A    between atoms: C_1  and  O_2
REMARK    2  A    between atoms: O_2  and  C_3
REMARK    3  A    between atoms: C_3  and  C_4
REMARK    4  A    between atoms: C_4  and  O_5
REMARK    5  A    between atoms: N_8  and  C_9
REMARK    6  A    between atoms: C_9  and  C_10
REMARK    7  A    between atoms: N_13  and  C_14
REMARK    8  A    between atoms: C_14  and  C_15
REMARK                            x       y       z     vdW  Elec       q    Type
REMARK                         _______ _______ _______ _____ _____    ______ ____
ROOT
ATOM      1  C   UNL     1       2.328   3.119  19.316  0.00  0.00    +0.000 C 
ATOM      2  C   UNL     1       3.360   2.777  18.227  0.00  0.00    +0.000 C 
ATOM      3  C   UNL     1       4.286   3.954  17.923  0.00  0.00    +0.000 C 
ATOM      4  N   UNL     1       3.541   5.163  17.526  0.00  0.00    +0.000 NA
ATOM      5  C   UNL     1       2.584   5.538  18.584  0.00  0.00    +0.000 C 
ATOM      6  C   UNL     1       1.598   4.403  18.884  0.00  0.00    +0.000 C 
ENDROOT
BRANCH   1   8
ATOM      7  C   UNL     1       2.116   3.374  21.747  0.00  0.00    +0.000 C 
ATOM      8  O   UNL     1       2.932   3.442  20.590  0.00  0.00    +0.000 OA
ENDBRANCH   1   8
BRANCH   1   9
ATOM      9  C   UNL     1       1.315   1.958  19.467  0.00  0.00    +0.000 C 
BRANCH   9  10
ATOM     10  O   UNL     1      -0.018   2.373  19.178  0.00  0.00    +0.000 OA
ATOM     11  H   UNL     1      -0.011   3.348  19.174  0.00  0.00    +0.000 HD
ENDBRANCH   9  10
ENDBRANCH   1   9
BRANCH   4  12
ATOM     12  C   UNL     1       4.512   6.245  17.255  0.00  0.00    +0.000 C 
BRANCH  12  13
ATOM     13  C   UNL     1       5.578   5.825  16.300  0.00  0.00    +0.000 A 
ATOM     14  C   UNL     1       6.978   5.890  16.503  0.00  0.00    +0.000 A 
ATOM     15  N   UNL     1       7.676   5.421  15.470  0.00  0.00    +0.000 NA
ATOM     16  N   UNL     1       6.727   5.081  14.578  0.00  0.00    +0.000 N 
ATOM     17  C   UNL     1       5.458   5.280  15.035  0.00  0.00    +0.000 A 
BRANCH  16  18
ATOM     18  C   UNL     1       7.114   4.545  13.293  0.00  0.00    +0.000 C 
BRANCH  18  19
ATOM     19  C   UNL     1       6.124   3.518  12.794  0.00  0.00    +0.000 C 
ATOM     20  F   UNL     1       6.500   3.112  11.550  0.00  0.00    +0.000 F 
ENDBRANCH  18  19
ENDBRANCH  16  18
ENDBRANCH  12  13
ENDBRANCH   4  12
TORSDOF 7
ENDMDL
MODEL 3
REMARK VINA RESULT:      -6.0      1.241      1.822
REMARK  Name = 
REMARK  8 active torsions:
REMARK  status: ('A' for Active; 'I' for Inactive)
REMARK    1  A    between atoms: C_1  and  O_2
REMARK    2  A    between atoms: O_2  and  C_3
REMARK    3  A    between atoms: C_3  and  C_4
REMARK    4  A    between atoms: C_4  and  O_5
REMARK    5  A    between atoms: N_8  and  C_9
REMARK    6  A    between atoms: C_9  and  C_10
REMARK    7  A    between atoms: N_13  and  C_14
REMARK    8  A    between atoms: C_14  and  C_15
REMARK                            x       y       z     vdW  Elec       q    Type
REMARK                         _______ _______ _______ _____ _____    ______ ____
ROOT
ATOM      1  C   UNL     1       2.738   3.221  19.323  0.00  0.00    +0.000 C 
ATOM      2  C   UNL     1       2.326   3.638  17.901  0.00  0.00    +0.000 C 
ATOM      3  C   UNL     1       3.275   4.679  17.309  0.00  0.00    +0.000 C 
ATOM      4  N   UNL     1       3.383   5.881  18.157  0.00  0.00    +0.000 NA
ATOM      5  C   UNL     1       3.830   5.507  19.512  0.00  0.00    +0.000 C 
ATOM      6  C   UNL     1       2.874   4.502  20.166  0.00  0.00    +0.000 C 
ENDROOT
BRANCH   1   8
ATOM      7  C   UNL     1       4.437   1.996  20.601  0.00  0.00    +0.000 C 
ATOM      8  O   UNL     1       4.040   2.596  19.378  0.00  0.00    +0.000 OA
ENDBRANCH   1   8
BRANCH   1   9
ATOM      9  C   UNL     1       1.657   2.296  19.936  0.00  0.00    +0.000 C 
BRANCH   9  10
ATOM     10  O   UNL     1       0.924   2.946  20.972  0.00  0.00    +0.000 OA
ATOM     11  H   UNL     1       0.969   3.903  20.786  0.00  0.00    +0.000 HD
ENDBRANCH   9  10
ENDBRANCH   1   9
BRANCH   4  12
ATOM     12  C   UNL     1       4.318   6.828  17.512  0.00  0.00    +0.000 C 
BRANCH  12  13
ATOM     13  C   UNL     1       5.390   6.133  16.743  0.00  0.00    +0.000 A 
ATOM     14  C   UNL     1       6.609   5.622  17.251  0.00  0.00    +0.000 A 
ATOM     15  N   UNL     1       7.356   5.035  16.317  0.00  0.00    +0.000 NA
ATOM     16  N   UNL     1       6.636   5.196  15.192  0.00  0.00    +0.000 N 
ATOM     17  C   UNL     1       5.444   5.824  15.396  0.00  0.00    +0.000 A 
BRANCH  16  18
ATOM     18  C   UNL     1       7.152   4.698  13.937  0.00  0.00    +0.000 C 
BRANCH  18  19
ATOM     19  C   UNL     1       6.184   3.744  13.273  0.00  0.00    +0.000 C 
ATOM     20  F   UNL     1       6.446   3.712  11.937  0.00  0.00    +0.000 F 
ENDBRANCH  18  19
ENDBRANCH  16  18
ENDBRANCH  12  13
ENDBRANCH   4  12
TORSDOF 7
ENDMDL
MODEL 4
REMARK VINA RESULT:      -6.0      1.913      2.632
REMARK  Name = 
REMARK  8 active torsions:
REMARK  status: ('A' for Active; 'I' for Inactive)
REMARK    1  A    between atoms: C_1  and  O_2
REMARK    2  A    between atoms: O_2  and  C_3
REMARK    3  A    between atoms: C_3  and  C_4
REMARK    4  A    between atoms: C_4  and  O_5
REMARK    5  A    between atoms: N_8  and  C_9
REMARK    6  A    between atoms: C_9  and  C_10
REMARK    7  A    between atoms: N_13  and  C_14
REMARK    8  A    between atoms: C_14  and  C_15
REMARK                            x       y       z     vdW  Elec       q    Type
REMARK                         _______ _______ _______ _____ _____    ______ ____
ROOT
ATOM      1  C   UNL     1       2.126   3.420  19.135  0.00  0.00    +0.000 C 
ATOM      2  C   UNL     1       3.414   2.768  19.666  0.00  0.00    +0.000 C 
ATOM      3  C   UNL     1       4.664   3.540  19.246  0.00  0.00    +0.000 C 
ATOM      4  N   UNL     1       4.762   3.691  17.783  0.00  0.00    +0.000 NA
ATOM      5  C   UNL     1       3.558   4.364  17.260  0.00  0.00    +0.000 C 
ATOM      6  C   UNL     1       2.281   3.592  17.613  0.00  0.00    +0.000 C 
ENDROOT
BRANCH   1   8
ATOM      7  C   UNL     1       1.876   4.933  21.050  0.00  0.00    +0.000 C 
ATOM      8  O   UNL     1       1.913   4.756  19.644  0.00  0.00    +0.000 OA
ENDBRANCH   1   8
BRANCH   1   9
ATOM      9  C   UNL     1       0.909   2.513  19.444  0.00  0.00    +0.000 C 
BRANCH   9  10
ATOM     10  O   UNL     1       0.305   2.008  18.255  0.00  0.00    +0.000 OA
ATOM     11  H   UNL     1       0.867   1.272  17.949  0.00  0.00    +0.000 HD
ENDBRANCH   9  10
ENDBRANCH   1   9
BRANCH   4  12
ATOM     12  C   UNL     1       5.994   4.448  17.470  0.00  0.00    +0.000 C 
BRANCH  12  13
ATOM     13  C   UNL     1       6.257   4.523  16.004  0.00  0.00    +0.000 A 
ATOM     14  C   UNL     1       6.767   5.632  15.286  0.00  0.00    +0.000 A 
ATOM     15  N   UNL     1       6.911   5.386  13.984  0.00  0.00    +0.000 NA
ATOM     16  N   UNL     1       6.460   4.126  13.851  0.00  0.00    +0.000 N 
ATOM     17  C   UNL     1       6.082   3.558  15.030  0.00  0.00    +0.000 A 
BRANCH  16  18
ATOM     18  C   UNL     1       6.439   3.511  12.543  0.00  0.00    +0.000 C 
BRANCH  18  19
ATOM     19  C   UNL     1       5.064   2.988  12.193  0.00  0.00    +0.000 C 
ATOM     20  F   UNL     1       4.446   3.887  11.378  0.00  0.00    +0.000 F 
ENDBRANCH  18  19
ENDBRANCH  16  18
ENDBRANCH  12  13
ENDBRANCH   4  12
TORSDOF 7
ENDMDL
MODEL 5
REMARK VINA RESULT:      -6.0      1.426      2.316
REMARK  Name = 
REMARK  8 active torsions:
REMARK  status: ('A' for Active; 'I' for Inactive)
REMARK    1  A    between atoms: C_1  and  O_2
REMARK    2  A    between atoms: O_2  and  C_3
REMARK    3  A    between atoms: C_3  and  C_4
REMARK    4  A    between atoms: C_4  and  O_5
REMARK    5  A    between atoms: N_8  and  C_9
REMARK    6  A    between atoms: C_9  and  C_10
REMARK    7  A    between atoms: N_13  and  C_14
REMARK    8  A    between atoms: C_14  and  C_15
REMARK                            x       y       z     vdW  Elec       q    Type
REMARK                         _______ _______ _______ _____ _____    ______ ____
ROOT
ATOM      1  C   UNL     1       1.971   3.134  19.520  0.00  0.00    +0.000 C 
ATOM      2  C   UNL     1       2.740   2.638  18.283  0.00  0.00    +0.000 C 
ATOM      3  C   UNL     1       4.223   3.002  18.344  0.00  0.00    +0.000 C 
ATOM      4  N   UNL     1       4.436   4.453  18.501  0.00  0.00    +0.000 NA
ATOM      5  C   UNL     1       3.749   4.938  19.713  0.00  0.00    +0.000 C 
ATOM      6  C   UNL     1       2.246   4.641  19.670  0.00  0.00    +0.000 C 
ENDROOT
BRANCH   1   8
ATOM      7  C   UNL     1       1.627   2.690  21.909  0.00  0.00    +0.000 C 
ATOM      8  O   UNL     1       2.438   2.543  20.754  0.00  0.00    +0.000 OA
ENDBRANCH   1   8
BRANCH   1   9
ATOM      9  C   UNL     1       0.454   2.887  19.331  0.00  0.00    +0.000 C 
BRANCH   9  10
ATOM     10  O   UNL     1       0.192   1.946  18.292  0.00  0.00    +0.000 OA
ATOM     11  H   UNL     1      -0.615   1.465  18.551  0.00  0.00    +0.000 HD
ENDBRANCH   9  10
ENDBRANCH   1   9
BRANCH   4  12
ATOM     12  C   UNL     1       5.891   4.712  18.552  0.00  0.00    +0.000 C 
BRANCH  12  13
ATOM     13  C   UNL     1       6.463   5.005  17.207  0.00  0.00    +0.000 A 
ATOM     14  C   UNL     1       7.211   6.146  16.829  0.00  0.00    +0.000 A 
ATOM     15  N   UNL     1       7.604   6.113  15.557  0.00  0.00    +0.000 NA
ATOM     16  N   UNL     1       7.080   4.962  15.097  0.00  0.00    +0.000 N 
ATOM     17  C   UNL     1       6.411   4.252  16.048  0.00  0.00    +0.000 A 
BRANCH  16  18
ATOM     18  C   UNL     1       7.280   4.590  13.714  0.00  0.00    +0.000 C 
BRANCH  18  19
ATOM     19  C   UNL     1       6.155   3.720  13.201  0.00  0.00    +0.000 C 
ATOM     20  F   UNL     1       6.232   3.657  11.842  0.00  0.00    +0.000 F 
ENDBRANCH  18  19
ENDBRANCH  16  18
ENDBRANCH  12  13
ENDBRANCH   4  12
TORSDOF 7
ENDMDL
MODEL 6
REMARK VINA RESULT:      -6.0      0.963      1.043
REMARK  Name = 
REMARK  8 active torsions:
REMARK  status: ('A' for Active; 'I' for Inactive)
REMARK    1  A    between atoms: C_1  and  O_2
REMARK    2  A    between atoms: O_2  and  C_3
REMARK    3  A    between atoms: C_3  and  C_4
REMARK    4  A    between atoms: C_4  and  O_5
REMARK    5  A    between atoms: N_8  and  C_9
REMARK    6  A    between atoms: C_9  and  C_10
REMARK    7  A    between atoms: N_13  and  C_14
REMARK    8  A    between atoms: C_14  and  C_15
REMARK                            x       y       z     vdW  Elec       q    Type
REMARK                         _______ _______ _______ _____ _____    ______ ____
ROOT
ATOM      1  C   UNL     1       2.431   3.373  19.663  0.00  0.00    +0.000 C 
ATOM      2  C   UNL     1       1.515   4.595  19.476  0.00  0.00    +0.000 C 
ATOM      3  C   UNL     1       2.056   5.565  18.426  0.00  0.00    +0.000 C 
ATOM      4  N   UNL     1       3.422   6.023  18.741  0.00  0.00    +0.000 NA
ATOM      5  C   UNL     1       4.328   4.866  18.871  0.00  0.00    +0.000 C 
ATOM      6  C   UNL     1       3.850   3.892  19.954  0.00  0.00    +0.000 C 
ENDROOT
BRANCH   1   8
ATOM      7  C   UNL     1       3.537   1.542  18.460  0.00  0.00    +0.000 C 
ATOM      8  O   UNL     1       2.562   2.573  18.466  0.00  0.00    +0.000 OA
ENDBRANCH   1   8
BRANCH   1   9
ATOM      9  C   UNL     1       1.927   2.512  20.847  0.00  0.00    +0.000 C 
BRANCH   9  10
ATOM     10  O   UNL     1       2.853   2.504  21.932  0.00  0.00    +0.000 OA
ATOM     11  H   UNL     1       3.641   2.992  21.628  0.00  0.00    +0.000 HD
ENDBRANCH   9  10
ENDBRANCH   1   9
BRANCH   4  12
ATOM     12  C   UNL     1       3.863   6.950  17.678  0.00  0.00    +0.000 C 
BRANCH  12  13
ATOM     13  C   UNL     1       5.064   6.449  16.949  0.00  0.00    +0.000 A 
ATOM     14  C   UNL     1       6.415   6.797  17.191  0.00  0.00    +0.000 A 
ATOM     15  N   UNL     1       7.267   6.166  16.384  0.00  0.00    +0.000 NA
ATOM     16  N   UNL     1       6.464   5.432  15.592  0.00  0.00    +0.000 N 
ATOM     17  C   UNL     1       5.142   5.546  15.904  0.00  0.00    +0.000 A 
BRANCH  16  18
ATOM     18  C   UNL     1       7.044   4.614  14.551  0.00  0.00    +0.000 C 
BRANCH  18  19
ATOM     19  C   UNL     1       5.982   3.993  13.671  0.00  0.00    +0.000 C 
ATOM     20  F   UNL     1       6.571   3.523  12.536  0.00  0.00    +0.000 F 
ENDBRANCH  18  19
ENDBRANCH  16  18
ENDBRANCH  12  13
ENDBRANCH   4  12
TORSDOF 7
ENDMDL
MODEL 7
REMARK VINA RESULT:      -5.9      1.695      2.482
REMARK  Name = 
REMARK  8 active torsions:
REMARK  status: ('A' for Active; 'I' for Inactive)
REMARK    1  A    between atoms: C_1  and  O_2
REMARK    2  A    between atoms: O_2  and  C_3
REMARK    3  A    between atoms: C_3  and  C_4
REMARK    4  A    between atoms: C_4  and  O_5
REMARK    5  A    between atoms: N_8  and  C_9
REMARK    6  A    between atoms: C_9  and  C_10
REMARK    7  A    between atoms: N_13  and  C_14
REMARK    8  A    between atoms: C_14  and  C_15
REMARK                            x       y       z     vdW  Elec       q    Type
REMARK                         _______ _______ _______ _____ _____    ______ ____
ROOT
ATOM      1  C   UNL     1       2.273   4.394  19.847  0.00  0.00    +0.000 C 
ATOM      2  C   UNL     1       3.255   3.229  20.057  0.00  0.00    +0.000 C 
ATOM      3  C   UNL     1       4.665   3.573  19.578  0.00  0.00    +0.000 C 
ATOM      4  N   UNL     1       4.690   3.981  18.161  0.00  0.00    +0.000 NA
ATOM      5  C   UNL     1       3.794   5.134  17.950  0.00  0.00    +0.000 C 
ATOM      6  C   UNL     1       2.353   4.814  18.368  0.00  0.00    +0.000 C 
ENDROOT
BRANCH   1   8
ATOM      7  C   UNL     1       1.973   6.794  20.264  0.00  0.00    +0.000 C 
ATOM      8  O   UNL     1       2.629   5.580  20.593  0.00  0.00    +0.000 OA
ENDBRANCH   1   8
BRANCH   1   9
ATOM      9  C   UNL     1       0.834   3.940  20.191  0.00  0.00    +0.000 C 
BRANCH   9  10
ATOM     10  O   UNL     1       0.823   2.880  21.145  0.00  0.00    +0.000 OA
ATOM     11  H   UNL     1       0.108   2.273  20.878  0.00  0.00    +0.000 HD
ENDBRANCH   9  10
ENDBRANCH   1   9
BRANCH   4  12
ATOM     12  C   UNL     1       6.086   4.294  17.787  0.00  0.00    +0.000 C 
BRANCH  12  13
ATOM     13  C   UNL     1       6.274   4.373  16.310  0.00  0.00    +0.000 A 
ATOM     14  C   UNL     1       7.064   5.308  15.600  0.00  0.00    +0.000 A 
ATOM     15  N   UNL     1       7.047   5.109  14.282  0.00  0.00    +0.000 NA
ATOM     16  N   UNL     1       6.215   4.063  14.133  0.00  0.00    +0.000 N 
ATOM     17  C   UNL     1       5.746   3.571  15.314  0.00  0.00    +0.000 A 
BRANCH  16  18
ATOM     18  C   UNL     1       5.925   3.566  12.807  0.00  0.00    +0.000 C 
BRANCH  18  19
ATOM     19  C   UNL     1       7.158   3.552  11.932  0.00  0.00    +0.000 C 
ATOM     20  F   UNL     1       7.263   4.755  11.302  0.00  0.00    +0.000 F 
ENDBRANCH  18  19
ENDBRANCH  16  18
ENDBRANCH  12  13
ENDBRANCH   4  12
TORSDOF 7
ENDMDL
MODEL 8
REMARK VINA RESULT:      -5.9      1.583      2.354
REMARK  Name = 
REMARK  8 active torsions:
REMARK  status: ('A' for Active; 'I' for Inactive)
REMARK    1  A    between atoms: C_1  and  O_2
REMARK    2  A    between atoms: O_2  and  C_3
REMARK    3  A    between atoms: C_3  and  C_4
REMARK    4  A    between atoms: C_4  and  O_5
REMARK    5  A    between atoms: N_8  and  C_9
REMARK    6  A    between atoms: C_9  and  C_10
REMARK    7  A    between atoms: N_13  and  C_14
REMARK    8  A    between atoms: C_14  and  C_15
REMARK                            x       y       z     vdW  Elec       q    Type
REMARK                         _______ _______ _______ _____ _____    ______ ____
ROOT
ATOM      1  C   UNL     1       2.034   3.161  19.289  0.00  0.00    +0.000 C 
ATOM      2  C   UNL     1       3.407   2.762  18.720  0.00  0.00    +0.000 C 
ATOM      3  C   UNL     1       4.251   3.981  18.347  0.00  0.00    +0.000 C 
ATOM      4  N   UNL     1       3.563   4.863  17.386  0.00  0.00    +0.000 NA
ATOM      5  C   UNL     1       2.267   5.300  17.938  0.00  0.00    +0.000 C 
ATOM      6  C   UNL     1       1.364   4.108  18.277  0.00  0.00    +0.000 C 
ENDROOT
BRANCH   1   8
ATOM      7  C   UNL     1       2.180   3.213  21.738  0.00  0.00    +0.000 C 
ATOM      8  O   UNL     1       2.126   3.925  20.513  0.00  0.00    +0.000 OA
ENDBRANCH   1   8
BRANCH   1   9
ATOM      9  C   UNL     1       1.161   1.899  19.493  0.00  0.00    +0.000 C 
BRANCH   9  10
ATOM     10  O   UNL     1       0.200   1.742  18.451  0.00  0.00    +0.000 OA
ATOM     11  H   UNL     1       0.592   1.130  17.802  0.00  0.00    +0.000 HD
ENDBRANCH   9  10
ENDBRANCH   1   9
BRANCH   4  12
ATOM     12  C   UNL     1       4.447   6.010  17.086  0.00  0.00    +0.000 C 
BRANCH  12  13
ATOM     13  C   UNL     1       5.568   5.639  16.175  0.00  0.00    +0.000 A 
ATOM     14  C   UNL     1       6.953   5.820  16.409  0.00  0.00    +0.000 A 
ATOM     15  N   UNL     1       7.712   5.368  15.412  0.00  0.00    +0.000 NA
ATOM     16  N   UNL     1       6.817   4.924  14.512  0.00  0.00    +0.000 N 
ATOM     17  C   UNL     1       5.525   5.040  14.929  0.00  0.00    +0.000 A 
BRANCH  16  18
ATOM     18  C   UNL     1       7.279   4.373  13.258  0.00  0.00    +0.000 C 
BRANCH  18  19
ATOM     19  C   UNL     1       7.735   5.455  12.305  0.00  0.00    +0.000 C 
ATOM     20  F   UNL     1       8.921   5.958  12.745  0.00  0.00    +0.000 F 
ENDBRANCH  18  19
ENDBRANCH  16  18
ENDBRANCH  12  13
ENDBRANCH   4  12
TORSDOF 7
ENDMDL
MODEL 9
REMARK VINA RESULT:      -5.8      1.359      1.553
REMARK  Name = 
REMARK  8 active torsions:
REMARK  status: ('A' for Active; 'I' for Inactive)
REMARK    1  A    between atoms: C_1  and  O_2
REMARK    2  A    between atoms: O_2  and  C_3
REMARK    3  A    between atoms: C_3  and  C_4
REMARK    4  A    between atoms: C_4  and  O_5
REMARK    5  A    between atoms: N_8  and  C_9
REMARK    6  A    between atoms: C_9  and  C_10
REMARK    7  A    between atoms: N_13  and  C_14
REMARK    8  A    between atoms: C_14  and  C_15
REMARK                            x       y       z     vdW  Elec       q    Type
REMARK                         _______ _______ _______ _____ _____    ______ ____
ROOT
ATOM      1  C   UNL     1       2.292   3.818  19.934  0.00  0.00    +0.000 C 
ATOM      2  C   UNL     1       2.617   5.302  20.179  0.00  0.00    +0.000 C 
ATOM      3  C   UNL     1       3.860   5.753  19.413  0.00  0.00    +0.000 C 
ATOM      4  N   UNL     1       5.043   4.935  19.738  0.00  0.00    +0.000 NA
ATOM      5  C   UNL     1       4.769   3.513  19.458  0.00  0.00    +0.000 C 
ATOM      6  C   UNL     1       3.559   3.003  20.249  0.00  0.00    +0.000 C 
ENDROOT
BRANCH   1   8
ATOM      7  C   UNL     1       1.803   2.165  18.187  0.00  0.00    +0.000 C 
ATOM      8  O   UNL     1       1.991   3.523  18.550  0.00  0.00    +0.000 OA
ENDBRANCH   1   8
BRANCH   1   9
ATOM      9  C   UNL     1       1.131   3.372  20.856  0.00  0.00    +0.000 C 
BRANCH   9  10
ATOM     10  O   UNL     1       1.599   2.625  21.978  0.00  0.00    +0.000 OA
ATOM     11  H   UNL     1       1.560   3.225  22.746  0.00  0.00    +0.000 HD
ENDBRANCH   9  10
ENDBRANCH   1   9
BRANCH   4  12
ATOM     12  C   UNL     1       6.191   5.439  18.955  0.00  0.00    +0.000 C 
BRANCH  12  13
ATOM     13  C   UNL     1       5.901   5.496  17.493  0.00  0.00    +0.000 A 
ATOM     14  C   UNL     1       5.571   6.644  16.734  0.00  0.00    +0.000 A 
ATOM     15  N   UNL     1       5.385   6.377  15.442  0.00  0.00    +0.000 NA
ATOM     16  N   UNL     1       5.560   5.046  15.368  0.00  0.00    +0.000 N 
ATOM     17  C   UNL     1       5.894   4.475  16.560  0.00  0.00    +0.000 A 
BRANCH  16  18
ATOM     18  C   UNL     1       5.409   4.376  14.096  0.00  0.00    +0.000 C 
BRANCH  18  19
ATOM     19  C   UNL     1       6.748   4.058  13.468  0.00  0.00    +0.000 C 
ATOM     20  F   UNL     1       7.503   5.191  13.446  0.00  0.00    +0.000 F 
ENDBRANCH  18  19
ENDBRANCH  16  18
ENDBRANCH  12  13
ENDBRANCH   4  12
TORSDOF 7
ENDMDL
