MODEL 1
REMARK VINA RESULT:      -7.3      0.000      0.000
REMARK  Name = 
REMARK  13 active torsions:
REMARK  status: ('A' for Active; 'I' for Inactive)
REMARK    1  A    between atoms: C_1  and  C_2
REMARK    2  A    between atoms: C_5  and  C_6
REMARK    3  A    between atoms: N_8  and  C_9
REMARK    4  A    between atoms: C_9  and  N_11
REMARK    5  A    between atoms: N_11  and  C_12
REMARK    6  A    between atoms: C_15  and  N_16
REMARK    7  A    between atoms: C_17  and  C_19
REMARK    8  A    between atoms: C_19  and  C_20
REMARK    9  A    between atoms: C_20  and  C_21
REMARK   10  A    between atoms: C_21  and  C_22
REMARK   11  A    between atoms: C_22  and  N_23
REMARK   12  A    between atoms: N_23  and  C_24
REMARK   13  A    between atoms: N_23  and  C_25
REMARK                            x       y       z     vdW  Elec       q    Type
REMARK                         _______ _______ _______ _____ _____    ______ ____
ROOT
ATOM      1  C   UNL     1       1.457   9.238  18.850  0.00  0.00    +0.000 A 
ATOM      2  C   UNL     1       1.050   9.019  20.163  0.00  0.00    +0.000 A 
ATOM      3  C   UNL     1       1.387   7.834  20.819  0.00  0.00    +0.000 A 
ATOM      4  C   UNL     1       2.127   6.847  20.176  0.00  0.00    +0.000 A 
ATOM      5  C   UNL     1       2.520   7.060  18.849  0.00  0.00    +0.000 A 
ATOM      6  C   UNL     1       2.168   8.243  18.179  0.00  0.00    +0.000 A 
ENDROOT
BRANCH   4   7
ATOM      7  N   UNL     1       2.476   5.625  20.795  0.00  0.00    +0.000 N 
ATOM      8  C   UNL     1       1.691   4.486  20.855  0.00  0.00    +0.000 C 
ATOM      9  O   UNL     1       0.533   4.373  20.463  0.00  0.00    +0.000 OA
ATOM     10  H   UNL     1       3.399   5.581  21.209  0.00  0.00    +0.000 HD
BRANCH   8  11
ATOM     11  C   UNL     1       2.398   3.286  21.453  0.00  0.00    +0.000 C 
BRANCH  11  12
ATOM     12  C   UNL     1       3.412   2.707  20.463  0.00  0.00    +0.000 C 
BRANCH  12  13
ATOM     13  C   UNL     1       2.726   2.084  19.244  0.00  0.00    +0.000 C 
BRANCH  13  14
ATOM     14  C   UNL     1       3.638   2.100  18.009  0.00  0.00    +0.000 C 
BRANCH  14  15
ATOM     15  N   UNL     1       3.358   3.222  17.096  0.00  0.00    +0.000 NA
ATOM     16  C   UNL     1       2.046   3.825  17.330  0.00  0.00    +0.000 C 
ATOM     17  C   UNL     1       4.400   4.244  17.233  0.00  0.00    +0.000 C 
ENDBRANCH  14  15
ENDBRANCH  13  14
ENDBRANCH  12  13
ENDBRANCH  11  12
ENDBRANCH   8  11
ENDBRANCH   4   7
BRANCH   1  18
ATOM     18  N   UNL     1       1.101  10.410  18.155  0.00  0.00    +0.000 N 
ATOM     19  H   UNL     1       0.990  10.319  17.150  0.00  0.00    +0.000 HD
BRANCH  18  20
ATOM     20  C   UNL     1       0.597  11.581  18.682  0.00  0.00    +0.000 C 
ATOM     21  S   UNL     1       1.692  12.676  19.302  0.00  0.00    +0.000 S 
BRANCH  20  24
ATOM     22  C   UNL     1      -1.724  11.012  17.892  0.00  0.00    +0.000 C 
ATOM     23  O   UNL     1      -1.446  10.114  17.102  0.00  0.00    +0.000 OA
ATOM     24  N   UNL     1      -0.794  11.643  18.711  0.00  0.00    +0.000 N 
ATOM     25  H   UNL     1      -1.138  12.349  19.340  0.00  0.00    +0.000 HD
BRANCH  22  30
ATOM     26  C   UNL     1      -7.246  12.755  18.665  0.00  0.00    +0.000 C 
ATOM     27  C   UNL     1      -5.830  12.293  18.459  0.00  0.00    +0.000 A 
ATOM     28  C   UNL     1      -5.448  11.730  17.230  0.00  0.00    +0.000 A 
ATOM     29  C   UNL     1      -4.130  11.298  17.003  0.00  0.00    +0.000 A 
ATOM     30  C   UNL     1      -3.166  11.419  18.011  0.00  0.00    +0.000 A 
ATOM     31  C   UNL     1      -3.553  11.976  19.241  0.00  0.00    +0.000 A 
ATOM     32  C   UNL     1      -4.862  12.409  19.464  0.00  0.00    +0.000 A 
ATOM     33 BR   UNL     1      -5.256  13.157  21.166  0.00  0.00    +0.000 Br
ENDBRANCH  22  30
ENDBRANCH  20  24
ENDBRANCH  18  20
ENDBRANCH   1  18
TORSDOF 10
ENDMDL
MODEL 2
REMARK VINA RESULT:      -7.3      6.356      9.254
REMARK  Name = 
REMARK  13 active torsions:
REMARK  status: ('A' for Active; 'I' for Inactive)
REMARK    1  A    between atoms: C_1  and  C_2
REMARK    2  A    between atoms: C_5  and  C_6
REMARK    3  A    between atoms: N_8  and  C_9
REMARK    4  A    between atoms: C_9  and  N_11
REMARK    5  A    between atoms: N_11  and  C_12
REMARK    6  A    between atoms: C_15  and  N_16
REMARK    7  A    between atoms: C_17  and  C_19
REMARK    8  A    between atoms: C_19  and  C_20
REMARK    9  A    between atoms: C_20  and  C_21
REMARK   10  A    between atoms: C_21  and  C_22
REMARK   11  A    between atoms: C_22  and  N_23
REMARK   12  A    between atoms: N_23  and  C_24
REMARK   13  A    between atoms: N_23  and  C_25
REMARK                            x       y       z     vdW  Elec       q    Type
REMARK                         _______ _______ _______ _____ _____    ______ ____
ROOT
ATOM      1  C   UNL     1       6.603   5.443  18.450  0.00  0.00    +0.000 A 
ATOM      2  C   UNL     1       6.076   6.261  17.453  0.00  0.00    +0.000 A 
ATOM      3  C   UNL     1       6.687   7.476  17.140  0.00  0.00    +0.000 A 
ATOM      4  C   UNL     1       7.825   7.900  17.819  0.00  0.00    +0.000 A 
ATOM      5  C   UNL     1       8.343   7.087  18.834  0.00  0.00    +0.000 A 
ATOM      6  C   UNL     1       7.722   5.871  19.165  0.00  0.00    +0.000 A 
ENDROOT
BRANCH   4   7
ATOM      7  N   UNL     1       8.466   9.130  17.548  0.00  0.00    +0.000 N 
ATOM      8  C   UNL     1       8.981  10.008  18.487  0.00  0.00    +0.000 C 
ATOM      9  O   UNL     1       8.889   9.911  19.707  0.00  0.00    +0.000 OA
ATOM     10  H   UNL     1       8.576   9.371  16.570  0.00  0.00    +0.000 HD
BRANCH   8  11
ATOM     11  C   UNL     1       9.744  11.171  17.884  0.00  0.00    +0.000 C 
BRANCH  11  12
ATOM     12  C   UNL     1      10.861  11.630  18.825  0.00  0.00    +0.000 C 
BRANCH  12  13
ATOM     13  C   UNL     1      10.962  13.157  18.886  0.00  0.00    +0.000 C 
BRANCH  13  14
ATOM     14  C   UNL     1      10.370  13.816  17.632  0.00  0.00    +0.000 C 
BRANCH  14  15
ATOM     15  N   UNL     1      10.191  15.272  17.772  0.00  0.00    +0.000 NA
ATOM     16  C   UNL     1      10.469  15.746  19.128  0.00  0.00    +0.000 C 
ATOM     17  C   UNL     1      11.058  15.972  16.820  0.00  0.00    +0.000 C 
ENDBRANCH  14  15
ENDBRANCH  13  14
ENDBRANCH  12  13
ENDBRANCH  11  12
ENDBRANCH   8  11
ENDBRANCH   4   7
BRANCH   1  18
ATOM     18  N   UNL     1       5.987   4.229  18.808  0.00  0.00    +0.000 N 
ATOM     19  H   UNL     1       6.596   3.418  18.869  0.00  0.00    +0.000 HD
BRANCH  18  20
ATOM     20  C   UNL     1       4.741   4.051  19.373  0.00  0.00    +0.000 C 
ATOM     21  S   UNL     1       4.294   2.494  19.768  0.00  0.00    +0.000 S 
BRANCH  20  24
ATOM     22  C   UNL     1       2.803   5.542  18.774  0.00  0.00    +0.000 C 
ATOM     23  O   UNL     1       2.136   4.742  18.125  0.00  0.00    +0.000 OA
ATOM     24  N   UNL     1       3.975   5.212  19.447  0.00  0.00    +0.000 N 
ATOM     25  H   UNL     1       4.427   5.943  19.970  0.00  0.00    +0.000 HD
BRANCH  22  30
ATOM     26  C   UNL     1       0.811  10.977  19.560  0.00  0.00    +0.000 C 
ATOM     27  C   UNL     1       1.315   9.577  19.344  0.00  0.00    +0.000 A 
ATOM     28  C   UNL     1       1.785   9.189  18.078  0.00  0.00    +0.000 A 
ATOM     29  C   UNL     1       2.272   7.890  17.847  0.00  0.00    +0.000 A 
ATOM     30  C   UNL     1       2.294   6.951  18.885  0.00  0.00    +0.000 A 
ATOM     31  C   UNL     1       1.819   7.341  20.148  0.00  0.00    +0.000 A 
ATOM     32  C   UNL     1       1.338   8.633  20.377  0.00  0.00    +0.000 A 
ATOM     33 BR   UNL     1       0.735   9.040  22.133  0.00  0.00    +0.000 Br
ENDBRANCH  22  30
ENDBRANCH  20  24
ENDBRANCH  18  20
ENDBRANCH   1  18
TORSDOF 10
ENDMDL
MODEL 3
REMARK VINA RESULT:      -7.1      1.856      2.645
REMARK  Name = 
REMARK  13 active torsions:
REMARK  status: ('A' for Active; 'I' for Inactive)
REMARK    1  A    between atoms: C_1  and  C_2
REMARK    2  A    between atoms: C_5  and  C_6
REMARK    3  A    between atoms: N_8  and  C_9
REMARK    4  A    between atoms: C_9  and  N_11
REMARK    5  A    between atoms: N_11  and  C_12
REMARK    6  A    between atoms: C_15  and  N_16
REMARK    7  A    between atoms: C_17  and  C_19
REMARK    8  A    between atoms: C_19  and  C_20
REMARK    9  A    between atoms: C_20  and  C_21
REMARK   10  A    between atoms: C_21  and  C_22
REMARK   11  A    between atoms: C_22  and  N_23
REMARK   12  A    between atoms: N_23  and  C_24
REMARK   13  A    between atoms: N_23  and  C_25
REMARK                            x       y       z     vdW  Elec       q    Type
REMARK                         _______ _______ _______ _____ _____    ______ ____
ROOT
ATOM      1  C   UNL     1       1.498   9.022  19.797  0.00  0.00    +0.000 A 
ATOM      2  C   UNL     1       1.750   7.856  20.515  0.00  0.00    +0.000 A 
ATOM      3  C   UNL     1       2.280   6.734  19.876  0.00  0.00    +0.000 A 
ATOM      4  C   UNL     1       2.560   6.752  18.514  0.00  0.00    +0.000 A 
ATOM      5  C   UNL     1       2.289   7.918  17.788  0.00  0.00    +0.000 A 
ATOM      6  C   UNL     1       1.739   9.044  18.423  0.00  0.00    +0.000 A 
ENDROOT
BRANCH   4   7
ATOM      7  N   UNL     1       3.081   5.634  17.823  0.00  0.00    +0.000 N 
ATOM      8  C   UNL     1       4.419   5.306  17.691  0.00  0.00    +0.000 C 
ATOM      9  O   UNL     1       5.377   5.972  18.071  0.00  0.00    +0.000 OA
ATOM     10  H   UNL     1       2.401   5.007  17.410  0.00  0.00    +0.000 HD
BRANCH   8  11
ATOM     11  C   UNL     1       4.658   3.966  17.022  0.00  0.00    +0.000 C 
BRANCH  11  12
ATOM     12  C   UNL     1       3.413   3.082  17.124  0.00  0.00    +0.000 C 
BRANCH  12  13
ATOM     13  C   UNL     1       3.507   2.099  18.295  0.00  0.00    +0.000 C 
BRANCH  13  14
ATOM     14  C   UNL     1       2.217   2.083  19.128  0.00  0.00    +0.000 C 
BRANCH  14  15
ATOM     15  N   UNL     1       2.107   3.229  20.047  0.00  0.00    +0.000 NA
ATOM     16  C   UNL     1       0.724   3.673  20.230  0.00  0.00    +0.000 C 
ATOM     17  C   UNL     1       2.685   2.879  21.348  0.00  0.00    +0.000 C 
ENDBRANCH  14  15
ENDBRANCH  13  14
ENDBRANCH  12  13
ENDBRANCH  11  12
ENDBRANCH   8  11
ENDBRANCH   4   7
BRANCH   1  18
ATOM     18  N   UNL     1       0.933  10.156  20.410  0.00  0.00    +0.000 N 
ATOM     19  H   UNL     1       1.330  11.053  20.146  0.00  0.00    +0.000 HD
BRANCH  18  20
ATOM     20  C   UNL     1      -0.269  10.239  21.082  0.00  0.00    +0.000 C 
ATOM     21  S   UNL     1      -0.257   9.911  22.717  0.00  0.00    +0.000 S 
BRANCH  20  24
ATOM     22  C   UNL     1      -1.453  11.292  19.126  0.00  0.00    +0.000 C 
ATOM     23  O   UNL     1      -0.481  11.759  18.539  0.00  0.00    +0.000 OA
ATOM     24  N   UNL     1      -1.366  10.495  20.263  0.00  0.00    +0.000 N 
ATOM     25  H   UNL     1      -2.228  10.145  20.647  0.00  0.00    +0.000 HD
BRANCH  22  30
ATOM     26  C   UNL     1      -6.825  12.518  17.185  0.00  0.00    +0.000 C 
ATOM     27  C   UNL     1      -5.443  12.187  17.677  0.00  0.00    +0.000 A 
ATOM     28  C   UNL     1      -4.507  11.612  16.803  0.00  0.00    +0.000 A 
ATOM     29  C   UNL     1      -3.204  11.302  17.230  0.00  0.00    +0.000 A 
ATOM     30  C   UNL     1      -2.815  11.560  18.550  0.00  0.00    +0.000 A 
ATOM     31  C   UNL     1      -3.756  12.130  19.423  0.00  0.00    +0.000 A 
ATOM     32  C   UNL     1      -5.049  12.442  18.996  0.00  0.00    +0.000 A 
ATOM     33 BR   UNL     1      -6.224  13.220  20.271  0.00  0.00    +0.000 Br
ENDBRANCH  22  30
ENDBRANCH  20  24
ENDBRANCH  18  20
ENDBRANCH   1  18
TORSDOF 10
ENDMDL
MODEL 4
REMARK VINA RESULT:      -6.9      6.431      9.304
REMARK  Name = 
REMARK  13 active torsions:
REMARK  status: ('A' for Active; 'I' for Inactive)
REMARK    1  A    between atoms: C_1  and  C_2
REMARK    2  A    between atoms: C_5  and  C_6
REMARK    3  A    between atoms: N_8  and  C_9
REMARK    4  A    between atoms: C_9  and  N_11
REMARK    5  A    between atoms: N_11  and  C_12
REMARK    6  A    between atoms: C_15  and  N_16
REMARK    7  A    between atoms: C_17  and  C_19
REMARK    8  A    between atoms: C_19  and  C_20
REMARK    9  A    between atoms: C_20  and  C_21
REMARK   10  A    between atoms: C_21  and  C_22
REMARK   11  A    between atoms: C_22  and  N_23
REMARK   12  A    between atoms: N_23  and  C_24
REMARK   13  A    between atoms: N_23  and  C_25
REMARK                            x       y       z     vdW  Elec       q    Type
REMARK                         _______ _______ _______ _____ _____    ______ ____
ROOT
ATOM      1  C   UNL     1       6.393   5.261  18.254  0.00  0.00    +0.000 A 
ATOM      2  C   UNL     1       7.565   5.633  18.908  0.00  0.00    +0.000 A 
ATOM      3  C   UNL     1       8.108   6.905  18.716  0.00  0.00    +0.000 A 
ATOM      4  C   UNL     1       7.499   7.822  17.865  0.00  0.00    +0.000 A 
ATOM      5  C   UNL     1       6.331   7.440  17.193  0.00  0.00    +0.000 A 
ATOM      6  C   UNL     1       5.791   6.156  17.369  0.00  0.00    +0.000 A 
ENDROOT
BRANCH   4   7
ATOM      7  N   UNL     1       8.023   9.113  17.627  0.00  0.00    +0.000 N 
ATOM      8  C   UNL     1       8.809   9.849  18.497  0.00  0.00    +0.000 C 
ATOM      9  O   UNL     1       9.107   9.545  19.649  0.00  0.00    +0.000 OA
ATOM     10  H   UNL     1       7.818   9.518  16.722  0.00  0.00    +0.000 HD
BRANCH   8  11
ATOM     11  C   UNL     1       9.343  11.135  17.900  0.00  0.00    +0.000 C 
BRANCH  11  12
ATOM     12  C   UNL     1      10.872  11.166  17.963  0.00  0.00    +0.000 C 
BRANCH  12  13
ATOM     13  C   UNL     1      11.378  12.059  19.099  0.00  0.00    +0.000 C 
BRANCH  13  14
ATOM     14  C   UNL     1      12.270  13.193  18.576  0.00  0.00    +0.000 C 
BRANCH  14  15
ATOM     15  N   UNL     1      11.603  14.507  18.583  0.00  0.00    +0.000 NA
ATOM     16  C   UNL     1      11.020  14.849  17.285  0.00  0.00    +0.000 C 
ATOM     17  C   UNL     1      10.558  14.527  19.611  0.00  0.00    +0.000 C 
ENDBRANCH  14  15
ENDBRANCH  13  14
ENDBRANCH  12  13
ENDBRANCH  11  12
ENDBRANCH   8  11
ENDBRANCH   4   7
BRANCH   1  18
ATOM     18  N   UNL     1       5.843   3.974  18.404  0.00  0.00    +0.000 N 
ATOM     19  H   UNL     1       6.413   3.201  18.072  0.00  0.00    +0.000 HD
BRANCH  18  20
ATOM     20  C   UNL     1       4.782   3.600  19.203  0.00  0.00    +0.000 C 
ATOM     21  S   UNL     1       4.556   1.968  19.460  0.00  0.00    +0.000 S 
BRANCH  20  24
ATOM     22  C   UNL     1       2.788   5.128  19.058  0.00  0.00    +0.000 C 
ATOM     23  O   UNL     1       2.149   4.533  18.195  0.00  0.00    +0.000 OA
ATOM     24  N   UNL     1       3.973   4.657  19.612  0.00  0.00    +0.000 N 
ATOM     25  H   UNL     1       4.399   5.216  20.332  0.00  0.00    +0.000 HD
BRANCH  22  30
ATOM     26  C   UNL     1       0.644  10.293  20.751  0.00  0.00    +0.000 C 
ATOM     27  C   UNL     1       1.203   8.962  20.330  0.00  0.00    +0.000 A 
ATOM     28  C   UNL     1       1.115   7.859  21.195  0.00  0.00    +0.000 A 
ATOM     29  C   UNL     1       1.618   6.599  20.826  0.00  0.00    +0.000 A 
ATOM     30  C   UNL     1       2.226   6.422  19.578  0.00  0.00    +0.000 A 
ATOM     31  C   UNL     1       2.317   7.528  18.717  0.00  0.00    +0.000 A 
ATOM     32  C   UNL     1       1.813   8.779  19.084  0.00  0.00    +0.000 A 
ATOM     33 BR   UNL     1       1.989  10.192  17.825  0.00  0.00    +0.000 Br
ENDBRANCH  22  30
ENDBRANCH  20  24
ENDBRANCH  18  20
ENDBRANCH   1  18
TORSDOF 10
ENDMDL
MODEL 5
REMARK VINA RESULT:      -6.9      2.178      3.054
REMARK  Name = 
REMARK  13 active torsions:
REMARK  status: ('A' for Active; 'I' for Inactive)
REMARK    1  A    between atoms: C_1  and  C_2
REMARK    2  A    between atoms: C_5  and  C_6
REMARK    3  A    between atoms: N_8  and  C_9
REMARK    4  A    between atoms: C_9  and  N_11
REMARK    5  A    between atoms: N_11  and  C_12
REMARK    6  A    between atoms: C_15  and  N_16
REMARK    7  A    between atoms: C_17  and  C_19
REMARK    8  A    between atoms: C_19  and  C_20
REMARK    9  A    between atoms: C_20  and  C_21
REMARK   10  A    between atoms: C_21  and  C_22
REMARK   11  A    between atoms: C_22  and  N_23
REMARK   12  A    between atoms: N_23  and  C_24
REMARK   13  A    between atoms: N_23  and  C_25
REMARK                            x       y       z     vdW  Elec       q    Type
REMARK                         _______ _______ _______ _____ _____    ______ ____
ROOT
ATOM      1  C   UNL     1       1.044   9.657  19.050  0.00  0.00    +0.000 A 
ATOM      2  C   UNL     1       1.763   9.074  18.010  0.00  0.00    +0.000 A 
ATOM      3  C   UNL     1       2.433   7.865  18.204  0.00  0.00    +0.000 A 
ATOM      4  C   UNL     1       2.406   7.222  19.438  0.00  0.00    +0.000 A 
ATOM      5  C   UNL     1       1.698   7.819  20.489  0.00  0.00    +0.000 A 
ATOM      6  C   UNL     1       1.037   9.044  20.303  0.00  0.00    +0.000 A 
ENDROOT
BRANCH   4   7
ATOM      7  N   UNL     1       3.084   6.007  19.686  0.00  0.00    +0.000 N 
ATOM      8  C   UNL     1       2.566   4.734  19.520  0.00  0.00    +0.000 C 
ATOM      9  O   UNL     1       1.410   4.447  19.220  0.00  0.00    +0.000 OA
ATOM     10  H   UNL     1       4.047   6.086  19.988  0.00  0.00    +0.000 HD
BRANCH   8  11
ATOM     11  C   UNL     1       3.583   3.629  19.722  0.00  0.00    +0.000 C 
BRANCH  11  12
ATOM     12  C   UNL     1       3.889   2.928  18.395  0.00  0.00    +0.000 C 
BRANCH  12  13
ATOM     13  C   UNL     1       4.149   3.932  17.268  0.00  0.00    +0.000 C 
BRANCH  13  14
ATOM     14  C   UNL     1       5.597   4.442  17.285  0.00  0.00    +0.000 C 
BRANCH  14  15
ATOM     15  N   UNL     1       5.764   5.689  18.052  0.00  0.00    +0.000 NA
ATOM     16  C   UNL     1       6.771   5.570  19.108  0.00  0.00    +0.000 C 
ATOM     17  C   UNL     1       6.129   6.783  17.148  0.00  0.00    +0.000 C 
ENDBRANCH  14  15
ENDBRANCH  13  14
ENDBRANCH  12  13
ENDBRANCH  11  12
ENDBRANCH   8  11
ENDBRANCH   4   7
BRANCH   1  18
ATOM     18  N   UNL     1       0.387  10.891  18.890  0.00  0.00    +0.000 N 
ATOM     19  H   UNL     1      -0.327  10.929  18.168  0.00  0.00    +0.000 HD
BRANCH  18  20
ATOM     20  C   UNL     1       0.369  11.956  19.767  0.00  0.00    +0.000 C 
ATOM     21  S   UNL     1       1.752  12.881  19.878  0.00  0.00    +0.000 S 
BRANCH  20  24
ATOM     22  C   UNL     1      -2.110  12.225  20.108  0.00  0.00    +0.000 C 
ATOM     23  O   UNL     1      -2.479  12.125  18.942  0.00  0.00    +0.000 OA
ATOM     24  N   UNL     1      -0.795  12.052  20.526  0.00  0.00    +0.000 N 
ATOM     25  H   UNL     1      -0.610  12.132  21.512  0.00  0.00    +0.000 HD
BRANCH  22  30
ATOM     26  C   UNL     1      -6.419  13.289  23.908  0.00  0.00    +0.000 C 
ATOM     27  C   UNL     1      -5.300  13.026  22.938  0.00  0.00    +0.000 A 
ATOM     28  C   UNL     1      -4.001  12.788  23.415  0.00  0.00    +0.000 A 
ATOM     29  C   UNL     1      -2.936  12.529  22.534  0.00  0.00    +0.000 A 
ATOM     30  C   UNL     1      -3.155  12.506  21.152  0.00  0.00    +0.000 A 
ATOM     31  C   UNL     1      -4.455  12.748  20.678  0.00  0.00    +0.000 A 
ATOM     32  C   UNL     1      -5.513  13.003  21.555  0.00  0.00    +0.000 A 
ATOM     33 BR   UNL     1      -7.226  13.304  20.789  0.00  0.00    +0.000 Br
ENDBRANCH  22  30
ENDBRANCH  20  24
ENDBRANCH  18  20
ENDBRANCH   1  18
TORSDOF 10
ENDMDL
MODEL 6
REMARK VINA RESULT:      -6.8      1.801      2.468
REMARK  Name = 
REMARK  13 active torsions:
REMARK  status: ('A' for Active; 'I' for Inactive)
REMARK    1  A    between atoms: C_1  and  C_2
REMARK    2  A    between atoms: C_5  and  C_6
REMARK    3  A    between atoms: N_8  and  C_9
REMARK    4  A    between atoms: C_9  and  N_11
REMARK    5  A    between atoms: N_11  and  C_12
REMARK    6  A    between atoms: C_15  and  N_16
REMARK    7  A    between atoms: C_17  and  C_19
REMARK    8  A    between atoms: C_19  and  C_20
REMARK    9  A    between atoms: C_20  and  C_21
REMARK   10  A    between atoms: C_21  and  C_22
REMARK   11  A    between atoms: C_22  and  N_23
REMARK   12  A    between atoms: N_23  and  C_24
REMARK   13  A    between atoms: N_23  and  C_25
REMARK                            x       y       z     vdW  Elec       q    Type
REMARK                         _______ _______ _______ _____ _____    ______ ____
ROOT
ATOM      1  C   UNL     1       1.474   9.239  19.534  0.00  0.00    +0.000 A 
ATOM      2  C   UNL     1       1.572   8.225  20.483  0.00  0.00    +0.000 A 
ATOM      3  C   UNL     1       2.061   6.967  20.126  0.00  0.00    +0.000 A 
ATOM      4  C   UNL     1       2.452   6.697  18.819  0.00  0.00    +0.000 A 
ATOM      5  C   UNL     1       2.336   7.711  17.861  0.00  0.00    +0.000 A 
ATOM      6  C   UNL     1       1.829   8.973  18.212  0.00  0.00    +0.000 A 
ENDROOT
BRANCH   4   7
ATOM      7  N   UNL     1       2.936   5.434  18.409  0.00  0.00    +0.000 N 
ATOM      8  C   UNL     1       2.226   4.476  17.705  0.00  0.00    +0.000 C 
ATOM      9  O   UNL     1       1.038   4.524  17.399  0.00  0.00    +0.000 OA
ATOM     10  H   UNL     1       3.902   5.230  18.634  0.00  0.00    +0.000 HD
BRANCH   8  11
ATOM     11  C   UNL     1       3.061   3.285  17.278  0.00  0.00    +0.000 C 
BRANCH  11  12
ATOM     12  C   UNL     1       4.506   3.438  17.762  0.00  0.00    +0.000 C 
BRANCH  12  13
ATOM     13  C   UNL     1       5.487   3.562  16.593  0.00  0.00    +0.000 C 
BRANCH  13  14
ATOM     14  C   UNL     1       6.449   4.744  16.782  0.00  0.00    +0.000 C 
BRANCH  14  15
ATOM     15  N   UNL     1       6.485   5.653  15.623  0.00  0.00    +0.000 NA
ATOM     16  C   UNL     1       6.646   4.942  14.354  0.00  0.00    +0.000 C 
ATOM     17  C   UNL     1       5.260   6.457  15.584  0.00  0.00    +0.000 C 
ENDBRANCH  14  15
ENDBRANCH  13  14
ENDBRANCH  12  13
ENDBRANCH  11  12
ENDBRANCH   8  11
ENDBRANCH   4   7
BRANCH   1  18
ATOM     18  N   UNL     1       0.954  10.505  19.861  0.00  0.00    +0.000 N 
ATOM     19  H   UNL     1       0.943  10.745  20.848  0.00  0.00    +0.000 HD
BRANCH  18  20
ATOM     20  C   UNL     1       0.738  11.571  19.012  0.00  0.00    +0.000 C 
ATOM     21  S   UNL     1       2.070  12.457  18.540  0.00  0.00    +0.000 S 
BRANCH  20  24
ATOM     22  C   UNL     1      -1.696  11.824  19.602  0.00  0.00    +0.000 C 
ATOM     23  O   UNL     1      -1.605  11.786  20.825  0.00  0.00    +0.000 OA
ATOM     24  N   UNL     1      -0.604  11.823  18.739  0.00  0.00    +0.000 N 
ATOM     25  H   UNL     1      -0.796  11.883  17.754  0.00  0.00    +0.000 HD
BRANCH  22  30
ATOM     26  C   UNL     1      -7.133  12.431  17.553  0.00  0.00    +0.000 C 
ATOM     27  C   UNL     1      -5.734  12.259  18.075  0.00  0.00    +0.000 A 
ATOM     28  C   UNL     1      -4.759  11.639  17.276  0.00  0.00    +0.000 A 
ATOM     29  C   UNL     1      -3.439  11.473  17.732  0.00  0.00    +0.000 A 
ATOM     30  C   UNL     1      -3.071  11.924  19.005  0.00  0.00    +0.000 A 
ATOM     31  C   UNL     1      -4.050  12.540  19.803  0.00  0.00    +0.000 A 
ATOM     32  C   UNL     1      -5.360  12.707  19.347  0.00  0.00    +0.000 A 
ATOM     33 BR   UNL     1      -6.587  13.565  20.518  0.00  0.00    +0.000 Br
ENDBRANCH  22  30
ENDBRANCH  20  24
ENDBRANCH  18  20
ENDBRANCH   1  18
TORSDOF 10
ENDMDL
MODEL 7
REMARK VINA RESULT:      -6.8      2.367      3.011
REMARK  Name = 
REMARK  13 active torsions:
REMARK  status: ('A' for Active; 'I' for Inactive)
REMARK    1  A    between atoms: C_1  and  C_2
REMARK    2  A    between atoms: C_5  and  C_6
REMARK    3  A    between atoms: N_8  and  C_9
REMARK    4  A    between atoms: C_9  and  N_11
REMARK    5  A    between atoms: N_11  and  C_12
REMARK    6  A    between atoms: C_15  and  N_16
REMARK    7  A    between atoms: C_17  and  C_19
REMARK    8  A    between atoms: C_19  and  C_20
REMARK    9  A    between atoms: C_20  and  C_21
REMARK   10  A    between atoms: C_21  and  C_22
REMARK   11  A    between atoms: C_22  and  N_23
REMARK   12  A    between atoms: N_23  and  C_24
REMARK   13  A    between atoms: N_23  and  C_25
REMARK                            x       y       z     vdW  Elec       q    Type
REMARK                         _______ _______ _______ _____ _____    ______ ____
ROOT
ATOM      1  C   UNL     1       1.026   9.850  18.768  0.00  0.00    +0.000 A 
ATOM      2  C   UNL     1       0.895   9.426  20.088  0.00  0.00    +0.000 A 
ATOM      3  C   UNL     1       1.477   8.229  20.507  0.00  0.00    +0.000 A 
ATOM      4  C   UNL     1       2.191   7.431  19.619  0.00  0.00    +0.000 A 
ATOM      5  C   UNL     1       2.306   7.848  18.287  0.00  0.00    +0.000 A 
ATOM      6  C   UNL     1       1.708   9.043  17.856  0.00  0.00    +0.000 A 
ENDROOT
BRANCH   4   7
ATOM      7  N   UNL     1       2.781   6.203  19.994  0.00  0.00    +0.000 N 
ATOM      8  C   UNL     1       2.107   5.054  20.370  0.00  0.00    +0.000 C 
ATOM      9  O   UNL     1       0.895   4.933  20.525  0.00  0.00    +0.000 OA
ATOM     10  H   UNL     1       3.792   6.164  19.959  0.00  0.00    +0.000 HD
BRANCH   8  11
ATOM     11  C   UNL     1       3.010   3.853  20.570  0.00  0.00    +0.000 C 
BRANCH  11  12
ATOM     12  C   UNL     1       2.878   2.876  19.399  0.00  0.00    +0.000 C 
BRANCH  12  13
ATOM     13  C   UNL     1       4.157   2.818  18.559  0.00  0.00    +0.000 C 
BRANCH  13  14
ATOM     14  C   UNL     1       5.125   3.953  18.920  0.00  0.00    +0.000 C 
BRANCH  14  15
ATOM     15  N   UNL     1       5.665   4.652  17.740  0.00  0.00    +0.000 NA
ATOM     16  C   UNL     1       7.126   4.610  17.680  0.00  0.00    +0.000 C 
ATOM     17  C   UNL     1       5.106   4.066  16.518  0.00  0.00    +0.000 C 
ENDBRANCH  14  15
ENDBRANCH  13  14
ENDBRANCH  12  13
ENDBRANCH  11  12
ENDBRANCH   8  11
ENDBRANCH   4   7
BRANCH   1  18
ATOM     18  N   UNL     1       0.421  11.036  18.311  0.00  0.00    +0.000 N 
ATOM     19  H   UNL     1      -0.300  10.929  17.604  0.00  0.00    +0.000 HD
BRANCH  18  20
ATOM     20  C   UNL     1       0.461  12.283  18.902  0.00  0.00    +0.000 C 
ATOM     21  S   UNL     1       1.790  13.239  18.584  0.00  0.00    +0.000 S 
BRANCH  20  24
ATOM     22  C   UNL     1      -0.602  12.534  21.169  0.00  0.00    +0.000 C 
ATOM     23  O   UNL     1       0.409  12.494  21.864  0.00  0.00    +0.000 OA
ATOM     24  N   UNL     1      -0.591  12.535  19.778  0.00  0.00    +0.000 N 
ATOM     25  H   UNL     1      -1.480  12.596  19.311  0.00  0.00    +0.000 HD
BRANCH  22  30
ATOM     26  C   UNL     1      -5.910  12.997  23.567  0.00  0.00    +0.000 C 
ATOM     27  C   UNL     1      -4.537  12.885  22.963  0.00  0.00    +0.000 A 
ATOM     28  C   UNL     1      -3.471  12.393  23.734  0.00  0.00    +0.000 A 
ATOM     29  C   UNL     1      -2.178  12.267  23.195  0.00  0.00    +0.000 A 
ATOM     30  C   UNL     1      -1.929  12.635  21.868  0.00  0.00    +0.000 A 
ATOM     31  C   UNL     1      -2.997  13.131  21.102  0.00  0.00    +0.000 A 
ATOM     32  C   UNL     1      -4.282  13.253  21.637  0.00  0.00    +0.000 A 
ATOM     33 BR   UNL     1      -5.642  13.926  20.494  0.00  0.00    +0.000 Br
ENDBRANCH  22  30
ENDBRANCH  20  24
ENDBRANCH  18  20
ENDBRANCH   1  18
TORSDOF 10
ENDMDL
MODEL 8
REMARK VINA RESULT:      -6.8      1.359      1.947
REMARK  Name = 
REMARK  13 active torsions:
REMARK  status: ('A' for Active; 'I' for Inactive)
REMARK    1  A    between atoms: C_1  and  C_2
REMARK    2  A    between atoms: C_5  and  C_6
REMARK    3  A    between atoms: N_8  and  C_9
REMARK    4  A    between atoms: C_9  and  N_11
REMARK    5  A    between atoms: N_11  and  C_12
REMARK    6  A    between atoms: C_15  and  N_16
REMARK    7  A    between atoms: C_17  and  C_19
REMARK    8  A    between atoms: C_19  and  C_20
REMARK    9  A    between atoms: C_20  and  C_21
REMARK   10  A    between atoms: C_21  and  C_22
REMARK   11  A    between atoms: C_22  and  N_23
REMARK   12  A    between atoms: N_23  and  C_24
REMARK   13  A    between atoms: N_23  and  C_25
REMARK                            x       y       z     vdW  Elec       q    Type
REMARK                         _______ _______ _______ _____ _____    ______ ____
ROOT
ATOM      1  C   UNL     1       1.127   9.772  18.701  0.00  0.00    +0.000 A 
ATOM      2  C   UNL     1       1.968   9.090  17.826  0.00  0.00    +0.000 A 
ATOM      3  C   UNL     1       2.562   7.886  18.209  0.00  0.00    +0.000 A 
ATOM      4  C   UNL     1       2.335   7.347  19.472  0.00  0.00    +0.000 A 
ATOM      5  C   UNL     1       1.505   8.043  20.359  0.00  0.00    +0.000 A 
ATOM      6  C   UNL     1       0.919   9.264  19.983  0.00  0.00    +0.000 A 
ENDROOT
BRANCH   4   7
ATOM      7  N   UNL     1       2.929   6.142  19.909  0.00  0.00    +0.000 N 
ATOM      8  C   UNL     1       2.614   4.869  19.466  0.00  0.00    +0.000 C 
ATOM      9  O   UNL     1       1.712   4.565  18.691  0.00  0.00    +0.000 OA
ATOM     10  H   UNL     1       3.670   6.231  20.593  0.00  0.00    +0.000 HD
BRANCH   8  11
ATOM     11  C   UNL     1       3.527   3.788  20.011  0.00  0.00    +0.000 C 
BRANCH  11  12
ATOM     12  C   UNL     1       4.664   3.496  19.028  0.00  0.00    +0.000 C 
BRANCH  12  13
ATOM     13  C   UNL     1       5.712   4.613  19.022  0.00  0.00    +0.000 C 
BRANCH  13  14
ATOM     14  C   UNL     1       6.418   4.721  17.662  0.00  0.00    +0.000 C 
BRANCH  14  15
ATOM     15  N   UNL     1       5.482   4.744  16.524  0.00  0.00    +0.000 NA
ATOM     16  C   UNL     1       5.211   6.100  16.046  0.00  0.00    +0.000 C 
ATOM     17  C   UNL     1       6.017   3.934  15.426  0.00  0.00    +0.000 C 
ENDBRANCH  14  15
ENDBRANCH  13  14
ENDBRANCH  12  13
ENDBRANCH  11  12
ENDBRANCH   8  11
ENDBRANCH   4   7
BRANCH   1  18
ATOM     18  N   UNL     1       0.542  11.003  18.351  0.00  0.00    +0.000 N 
ATOM     19  H   UNL     1       0.278  11.114  17.376  0.00  0.00    +0.000 HD
BRANCH  18  20
ATOM     20  C   UNL     1       0.010  11.954  19.198  0.00  0.00    +0.000 C 
ATOM     21  S   UNL     1       1.053  12.694  20.269  0.00  0.00    +0.000 S 
BRANCH  20  24
ATOM     22  C   UNL     1      -2.314  11.224  18.568  0.00  0.00    +0.000 C 
ATOM     23  O   UNL     1      -2.075  10.062  18.253  0.00  0.00    +0.000 OA
ATOM     24  N   UNL     1      -1.372  12.095  19.104  0.00  0.00    +0.000 N 
ATOM     25  H   UNL     1      -1.686  13.019  19.350  0.00  0.00    +0.000 HD
BRANCH  22  30
ATOM     26  C   UNL     1      -7.764  13.306  18.255  0.00  0.00    +0.000 C 
ATOM     27  C   UNL     1      -6.366  12.757  18.328  0.00  0.00    +0.000 A 
ATOM     28  C   UNL     1      -5.795  12.142  17.202  0.00  0.00    +0.000 A 
ATOM     29  C   UNL     1      -4.487  11.627  17.235  0.00  0.00    +0.000 A 
ATOM     30  C   UNL     1      -3.725  11.717  18.406  0.00  0.00    +0.000 A 
ATOM     31  C   UNL     1      -4.301  12.328  19.532  0.00  0.00    +0.000 A 
ATOM     32  C   UNL     1      -5.600  12.842  19.496  0.00  0.00    +0.000 A 
ATOM     33 BR   UNL     1      -6.259  13.654  21.082  0.00  0.00    +0.000 Br
ENDBRANCH  22  30
ENDBRANCH  20  24
ENDBRANCH  18  20
ENDBRANCH   1  18
TORSDOF 10
ENDMDL
MODEL 9
REMARK VINA RESULT:      -6.8      2.117      2.755
REMARK  Name = 
REMARK  13 active torsions:
REMARK  status: ('A' for Active; 'I' for Inactive)
REMARK    1  A    between atoms: C_1  and  C_2
REMARK    2  A    between atoms: C_5  and  C_6
REMARK    3  A    between atoms: N_8  and  C_9
REMARK    4  A    between atoms: C_9  and  N_11
REMARK    5  A    between atoms: N_11  and  C_12
REMARK    6  A    between atoms: C_15  and  N_16
REMARK    7  A    between atoms: C_17  and  C_19
REMARK    8  A    between atoms: C_19  and  C_20
REMARK    9  A    between atoms: C_20  and  C_21
REMARK   10  A    between atoms: C_21  and  C_22
REMARK   11  A    between atoms: C_22  and  N_23
REMARK   12  A    between atoms: N_23  and  C_24
REMARK   13  A    between atoms: N_23  and  C_25
REMARK                            x       y       z     vdW  Elec       q    Type
REMARK                         _______ _______ _______ _____ _____    ______ ____
ROOT
ATOM      1  C   UNL     1       1.304   9.670  18.557  0.00  0.00    +0.000 A 
ATOM      2  C   UNL     1       2.068   8.859  17.722  0.00  0.00    +0.000 A 
ATOM      3  C   UNL     1       2.574   7.644  18.187  0.00  0.00    +0.000 A 
ATOM      4  C   UNL     1       2.335   7.222  19.491  0.00  0.00    +0.000 A 
ATOM      5  C   UNL     1       1.583   8.047  20.336  0.00  0.00    +0.000 A 
ATOM      6  C   UNL     1       1.086   9.278  19.878  0.00  0.00    +0.000 A 
ENDROOT
BRANCH   4   7
ATOM      7  N   UNL     1       2.843   6.009  20.010  0.00  0.00    +0.000 N 
ATOM      8  C   UNL     1       2.479   4.734  19.611  0.00  0.00    +0.000 C 
ATOM      9  O   UNL     1       1.597   4.442  18.809  0.00  0.00    +0.000 OA
ATOM     10  H   UNL     1       3.557   6.092  20.723  0.00  0.00    +0.000 HD
BRANCH   8  11
ATOM     11  C   UNL     1       3.307   3.635  20.246  0.00  0.00    +0.000 C 
BRANCH  11  12
ATOM     12  C   UNL     1       4.220   2.977  19.208  0.00  0.00    +0.000 C 
BRANCH  12  13
ATOM     13  C   UNL     1       5.106   4.005  18.497  0.00  0.00    +0.000 C 
BRANCH  13  14
ATOM     14  C   UNL     1       4.918   3.960  16.974  0.00  0.00    +0.000 C 
BRANCH  14  15
ATOM     15  N   UNL     1       5.370   5.189  16.298  0.00  0.00    +0.000 NA
ATOM     16  C   UNL     1       5.844   6.206  17.236  0.00  0.00    +0.000 C 
ATOM     17  C   UNL     1       6.435   4.866  15.344  0.00  0.00    +0.000 C 
ENDBRANCH  14  15
ENDBRANCH  13  14
ENDBRANCH  12  13
ENDBRANCH  11  12
ENDBRANCH   8  11
ENDBRANCH   4   7
BRANCH   1  18
ATOM     18  N   UNL     1       0.809  10.914  18.123  0.00  0.00    +0.000 N 
ATOM     19  H   UNL     1       0.222  10.900  17.295  0.00  0.00    +0.000 HD
BRANCH  18  20
ATOM     20  C   UNL     1       0.766  12.097  18.833  0.00  0.00    +0.000 C 
ATOM     21  S   UNL     1       2.198  12.932  19.017  0.00  0.00    +0.000 S 
BRANCH  20  24
ATOM     22  C   UNL     1      -0.875  12.356  20.724  0.00  0.00    +0.000 C 
ATOM     23  O   UNL     1      -0.099  12.251  21.670  0.00  0.00    +0.000 OA
ATOM     24  N   UNL     1      -0.477  12.385  19.391  0.00  0.00    +0.000 N 
ATOM     25  H   UNL     1      -1.197  12.500  18.698  0.00  0.00    +0.000 HD
BRANCH  22  30
ATOM     26  C   UNL     1      -6.474  12.993  22.263  0.00  0.00    +0.000 C 
ATOM     27  C   UNL     1      -5.038  12.818  21.856  0.00  0.00    +0.000 A 
ATOM     28  C   UNL     1      -4.687  12.842  20.495  0.00  0.00    +0.000 A 
ATOM     29  C   UNL     1      -3.351  12.692  20.083  0.00  0.00    +0.000 A 
ATOM     30  C   UNL     1      -2.338  12.511  21.031  0.00  0.00    +0.000 A 
ATOM     31  C   UNL     1      -2.692  12.483  22.390  0.00  0.00    +0.000 A 
ATOM     32  C   UNL     1      -4.019  12.636  22.799  0.00  0.00    +0.000 A 
ATOM     33 BR   UNL     1      -4.367  12.590  24.666  0.00  0.00    +0.000 Br
ENDBRANCH  22  30
ENDBRANCH  20  24
ENDBRANCH  18  20
ENDBRANCH   1  18
TORSDOF 10
ENDMDL
