MODEL 1
REMARK VINA RESULT:      -9.3      0.000      0.000
REMARK  Name = 
REMARK  6 active torsions:
REMARK  status: ('A' for Active; 'I' for Inactive)
REMARK    1  A    between atoms: C_1  and  C_2
REMARK    2  A    between atoms: C_4  and  N_5
REMARK    3  A    between atoms: C_7  and  N_8
REMARK    4  A    between atoms: C_12  and  C_13
REMARK    5  A    between atoms: C_19  and  C_20
REMARK    6  A    between atoms: C_24  and  O_25
REMARK                            x       y       z     vdW  Elec       q    Type
REMARK                         _______ _______ _______ _____ _____    ______ ____
ROOT
ATOM      1  C   UNL     1       0.592   8.674  21.612  0.00  0.00    +0.000 C 
ATOM      2  C   UNL     1       1.199   8.654  20.229  0.00  0.00    +0.000 A 
ATOM      3  C   UNL     1       2.013   7.531  19.954  0.00  0.00    +0.000 A 
ATOM      4  C   UNL     1       2.648   7.358  18.722  0.00  0.00    +0.000 A 
ATOM      5  C   UNL     1       2.473   8.328  17.741  0.00  0.00    +0.000 A 
ATOM      6  C   UNL     1       1.691   9.461  18.013  0.00  0.00    +0.000 A 
ATOM      7  C   UNL     1       1.027   9.666  19.250  0.00  0.00    +0.000 A 
ENDROOT
BRANCH   7   8
ATOM      8  C   UNL     1       0.170  10.882  19.420  0.00  0.00    +0.000 A 
ATOM      9  C   UNL     1      -1.160  10.924  18.949  0.00  0.00    +0.000 A 
ATOM     10  F   UNL     1      -1.689   9.874  18.298  0.00  0.00    +0.000 F 
ATOM     11  C   UNL     1      -2.000  12.032  19.119  0.00  0.00    +0.000 A 
ATOM     12  C   UNL     1      -1.534  13.131  19.817  0.00  0.00    +0.000 A 
ATOM     13  C   UNL     1      -0.234  13.153  20.284  0.00  0.00    +0.000 A 
ATOM     14  C   UNL     1       0.609  12.064  20.043  0.00  0.00    +0.000 A 
ATOM     15  F   UNL     1       1.890  12.220  20.401  0.00  0.00    +0.000 F 
BRANCH  12  16
ATOM     16  O   UNL     1      -2.316  14.220  20.051  0.00  0.00    +0.000 OA
ATOM     17  H   UNL     1      -2.023  14.657  20.869  0.00  0.00    +0.000 HD
ENDBRANCH  12  16
ENDBRANCH   7   8
BRANCH   4  18
ATOM     18  N   UNL     1       3.470   6.223  18.485  0.00  0.00    +0.000 N 
ATOM     19  C   UNL     1       3.264   4.948  18.945  0.00  0.00    +0.000 A 
ATOM     20  C   UNL     1       4.298   4.168  18.500  0.00  0.00    +0.000 A 
ATOM     21  C   UNL     1       5.131   5.064  17.778  0.00  0.00    +0.000 A 
ATOM     22  N   UNL     1       4.615   6.311  17.754  0.00  0.00    +0.000 NA
BRANCH  20  23
ATOM     23  N   UNL     1       4.480   2.810  18.718  0.00  0.00    +0.000 N 
ATOM     24  C   UNL     1       3.640   1.825  18.262  0.00  0.00    +0.000 C 
ATOM     25  N   UNL     1       4.075   0.576  18.594  0.00  0.00    +0.000 N 
ATOM     26  O   UNL     1       2.614   1.949  17.613  0.00  0.00    +0.000 OA
ATOM     27  H   UNL     1       5.331   2.540  19.193  0.00  0.00    +0.000 HD
ATOM     28  H   UNL     1       4.534   0.451  19.481  0.00  0.00    +0.000 HD
ATOM     29  H   UNL     1       3.408  -0.149  18.350  0.00  0.00    +0.000 HD
ENDBRANCH  20  23
BRANCH  21  30
ATOM     30  C   UNL     1       6.406   4.747  17.127  0.00  0.00    +0.000 C 
ATOM     31  N   UNL     1       7.422   4.432  17.988  0.00  0.00    +0.000 N 
ATOM     32  O   UNL     1       6.564   4.748  15.909  0.00  0.00    +0.000 OA
ATOM     33  H   UNL     1       7.230   4.429  18.985  0.00  0.00    +0.000 HD
ATOM     34  H   UNL     1       8.321   4.156  17.631  0.00  0.00    +0.000 HD
ENDBRANCH  21  30
ENDBRANCH   4  18
TORSDOF 5
ENDMDL
MODEL 2
REMARK VINA RESULT:      -9.2      0.161      1.568
REMARK  Name = 
REMARK  6 active torsions:
REMARK  status: ('A' for Active; 'I' for Inactive)
REMARK    1  A    between atoms: C_1  and  C_2
REMARK    2  A    between atoms: C_4  and  N_5
REMARK    3  A    between atoms: C_7  and  N_8
REMARK    4  A    between atoms: C_12  and  C_13
REMARK    5  A    between atoms: C_19  and  C_20
REMARK    6  A    between atoms: C_24  and  O_25
REMARK                            x       y       z     vdW  Elec       q    Type
REMARK                         _______ _______ _______ _____ _____    ______ ____
ROOT
ATOM      1  C   UNL     1       0.576   8.699  21.744  0.00  0.00    +0.000 C 
ATOM      2  C   UNL     1       1.142   8.678  20.345  0.00  0.00    +0.000 A 
ATOM      3  C   UNL     1       1.960   7.563  20.051  0.00  0.00    +0.000 A 
ATOM      4  C   UNL     1       2.561   7.391  18.802  0.00  0.00    +0.000 A 
ATOM      5  C   UNL     1       2.346   8.353  17.822  0.00  0.00    +0.000 A 
ATOM      6  C   UNL     1       1.559   9.478  18.110  0.00  0.00    +0.000 A 
ATOM      7  C   UNL     1       0.930   9.683  19.365  0.00  0.00    +0.000 A 
ENDROOT
BRANCH   7   8
ATOM      8  C   UNL     1       0.065  10.890  19.555  0.00  0.00    +0.000 A 
ATOM      9  C   UNL     1       0.539  12.048  20.211  0.00  0.00    +0.000 A 
ATOM     10  F   UNL     1       1.783  12.086  20.717  0.00  0.00    +0.000 F 
ATOM     11  C   UNL     1      -0.232  13.205  20.376  0.00  0.00    +0.000 A 
ATOM     12  C   UNL     1      -1.506  13.250  19.842  0.00  0.00    +0.000 A 
ATOM     13  C   UNL     1      -2.029  12.140  19.207  0.00  0.00    +0.000 A 
ATOM     14  C   UNL     1      -1.268  10.971  19.113  0.00  0.00    +0.000 A 
ATOM     15  F   UNL     1      -1.894   9.899  18.611  0.00  0.00    +0.000 F 
BRANCH  12  16
ATOM     16  O   UNL     1      -2.288  14.360  19.935  0.00  0.00    +0.000 OA
ATOM     17  H   UNL     1      -2.794  14.329  20.765  0.00  0.00    +0.000 HD
ENDBRANCH  12  16
ENDBRANCH   7   8
BRANCH   4  18
ATOM     18  N   UNL     1       3.388   6.263  18.546  0.00  0.00    +0.000 N 
ATOM     19  C   UNL     1       3.191   4.982  18.989  0.00  0.00    +0.000 A 
ATOM     20  C   UNL     1       4.228   4.213  18.531  0.00  0.00    +0.000 A 
ATOM     21  C   UNL     1       5.053   5.123  17.817  0.00  0.00    +0.000 A 
ATOM     22  N   UNL     1       4.530   6.368  17.812  0.00  0.00    +0.000 NA
BRANCH  20  23
ATOM     23  N   UNL     1       4.418   2.854  18.729  0.00  0.00    +0.000 N 
ATOM     24  C   UNL     1       3.614   1.867  18.214  0.00  0.00    +0.000 C 
ATOM     25  N   UNL     1       4.050   0.618  18.540  0.00  0.00    +0.000 N 
ATOM     26  O   UNL     1       2.619   1.992  17.519  0.00  0.00    +0.000 OA
ATOM     27  H   UNL     1       5.249   2.584  19.238  0.00  0.00    +0.000 HD
ATOM     28  H   UNL     1       4.469   0.480  19.445  0.00  0.00    +0.000 HD
ATOM     29  H   UNL     1       3.406  -0.111  18.250  0.00  0.00    +0.000 HD
ENDBRANCH  20  23
BRANCH  21  30
ATOM     30  C   UNL     1       6.328   4.823  17.159  0.00  0.00    +0.000 C 
ATOM     31  N   UNL     1       7.322   4.412  18.003  0.00  0.00    +0.000 N 
ATOM     32  O   UNL     1       6.502   4.916  15.945  0.00  0.00    +0.000 OA
ATOM     33  H   UNL     1       7.117   4.335  18.994  0.00  0.00    +0.000 HD
ATOM     34  H   UNL     1       8.218   4.139  17.635  0.00  0.00    +0.000 HD
ENDBRANCH  21  30
ENDBRANCH   4  18
TORSDOF 5
ENDMDL
MODEL 3
REMARK VINA RESULT:      -9.2      1.012      1.061
REMARK  Name = 
REMARK  6 active torsions:
REMARK  status: ('A' for Active; 'I' for Inactive)
REMARK    1  A    between atoms: C_1  and  C_2
REMARK    2  A    between atoms: C_4  and  N_5
REMARK    3  A    between atoms: C_7  and  N_8
REMARK    4  A    between atoms: C_12  and  C_13
REMARK    5  A    between atoms: C_19  and  C_20
REMARK    6  A    between atoms: C_24  and  O_25
REMARK                            x       y       z     vdW  Elec       q    Type
REMARK                         _______ _______ _______ _____ _____    ______ ____
ROOT
ATOM      1  C   UNL     1       0.538   8.770  21.751  0.00  0.00    +0.000 C 
ATOM      2  C   UNL     1       1.083   8.746  20.343  0.00  0.00    +0.000 A 
ATOM      3  C   UNL     1       1.963   7.675  20.065  0.00  0.00    +0.000 A 
ATOM      4  C   UNL     1       2.554   7.506  18.811  0.00  0.00    +0.000 A 
ATOM      5  C   UNL     1       2.266   8.427  17.810  0.00  0.00    +0.000 A 
ATOM      6  C   UNL     1       1.416   9.509  18.082  0.00  0.00    +0.000 A 
ATOM      7  C   UNL     1       0.794   9.709  19.341  0.00  0.00    +0.000 A 
ENDROOT
BRANCH   7   8
ATOM      8  C   UNL     1      -0.141  10.866  19.514  0.00  0.00    +0.000 A 
ATOM      9  C   UNL     1      -1.429  10.871  18.934  0.00  0.00    +0.000 A 
ATOM     10  F   UNL     1      -1.842   9.842  18.176  0.00  0.00    +0.000 F 
ATOM     11  C   UNL     1      -2.340  11.921  19.102  0.00  0.00    +0.000 A 
ATOM     12  C   UNL     1      -1.997  12.992  19.904  0.00  0.00    +0.000 A 
ATOM     13  C   UNL     1      -0.742  13.049  20.482  0.00  0.00    +0.000 A 
ATOM     14  C   UNL     1       0.178  12.024  20.245  0.00  0.00    +0.000 A 
ATOM     15  F   UNL     1       1.414  12.220  20.721  0.00  0.00    +0.000 F 
BRANCH  12  16
ATOM     16  O   UNL     1      -2.855  14.023  20.139  0.00  0.00    +0.000 OA
ATOM     17  H   UNL     1      -2.511  14.830  19.718  0.00  0.00    +0.000 HD
ENDBRANCH  12  16
ENDBRANCH   7   8
BRANCH   4  18
ATOM     18  N   UNL     1       3.446   6.425  18.570  0.00  0.00    +0.000 N 
ATOM     19  C   UNL     1       3.707   5.373  19.409  0.00  0.00    +0.000 A 
ATOM     20  C   UNL     1       4.635   4.570  18.800  0.00  0.00    +0.000 A 
ATOM     21  C   UNL     1       4.918   5.226  17.573  0.00  0.00    +0.000 A 
ATOM     22  N   UNL     1       4.179   6.347  17.426  0.00  0.00    +0.000 NA
BRANCH  20  23
ATOM     23  N   UNL     1       5.171   3.388  19.288  0.00  0.00    +0.000 N 
ATOM     24  C   UNL     1       4.436   2.349  19.804  0.00  0.00    +0.000 C 
ATOM     25  N   UNL     1       5.216   1.297  20.180  0.00  0.00    +0.000 N 
ATOM     26  O   UNL     1       3.225   2.274  19.934  0.00  0.00    +0.000 OA
ATOM     27  H   UNL     1       6.171   3.271  19.189  0.00  0.00    +0.000 HD
ATOM     28  H   UNL     1       6.124   1.491  20.570  0.00  0.00    +0.000 HD
ATOM     29  H   UNL     1       4.692   0.569  20.656  0.00  0.00    +0.000 HD
ENDBRANCH  20  23
BRANCH  21  30
ATOM     30  C   UNL     1       5.886   4.806  16.555  0.00  0.00    +0.000 C 
ATOM     31  N   UNL     1       5.461   4.962  15.264  0.00  0.00    +0.000 N 
ATOM     32  O   UNL     1       6.999   4.358  16.822  0.00  0.00    +0.000 OA
ATOM     33  H   UNL     1       4.539   5.355  15.101  0.00  0.00    +0.000 HD
ATOM     34  H   UNL     1       6.075   4.744  14.498  0.00  0.00    +0.000 HD
ENDBRANCH  21  30
ENDBRANCH   4  18
TORSDOF 5
ENDMDL
MODEL 4
REMARK VINA RESULT:      -9.0      1.057      2.450
REMARK  Name = 
REMARK  6 active torsions:
REMARK  status: ('A' for Active; 'I' for Inactive)
REMARK    1  A    between atoms: C_1  and  C_2
REMARK    2  A    between atoms: C_4  and  N_5
REMARK    3  A    between atoms: C_7  and  N_8
REMARK    4  A    between atoms: C_12  and  C_13
REMARK    5  A    between atoms: C_19  and  C_20
REMARK    6  A    between atoms: C_24  and  O_25
REMARK                            x       y       z     vdW  Elec       q    Type
REMARK                         _______ _______ _______ _____ _____    ______ ____
ROOT
ATOM      1  C   UNL     1       0.464   8.934  21.908  0.00  0.00    +0.000 C 
ATOM      2  C   UNL     1       0.953   8.858  20.482  0.00  0.00    +0.000 A 
ATOM      3  C   UNL     1       1.784   7.751  20.196  0.00  0.00    +0.000 A 
ATOM      4  C   UNL     1       2.320   7.533  18.925  0.00  0.00    +0.000 A 
ATOM      5  C   UNL     1       2.026   8.441  17.914  0.00  0.00    +0.000 A 
ATOM      6  C   UNL     1       1.225   9.559  18.192  0.00  0.00    +0.000 A 
ATOM      7  C   UNL     1       0.660   9.809  19.469  0.00  0.00    +0.000 A 
ENDROOT
BRANCH   7   8
ATOM      8  C   UNL     1      -0.227  11.002  19.649  0.00  0.00    +0.000 A 
ATOM      9  C   UNL     1      -1.555  11.018  19.171  0.00  0.00    +0.000 A 
ATOM     10  F   UNL     1      -2.055   9.964  18.505  0.00  0.00    +0.000 F 
ATOM     11  C   UNL     1      -2.421  12.103  19.350  0.00  0.00    +0.000 A 
ATOM     12  C   UNL     1      -1.986  13.205  20.064  0.00  0.00    +0.000 A 
ATOM     13  C   UNL     1      -0.689  13.252  20.539  0.00  0.00    +0.000 A 
ATOM     14  C   UNL     1       0.181  12.186  20.289  0.00  0.00    +0.000 A 
ATOM     15  F   UNL     1       1.455  12.368  20.657  0.00  0.00    +0.000 F 
BRANCH  12  16
ATOM     16  O   UNL     1      -2.794  14.272  20.306  0.00  0.00    +0.000 OA
ATOM     17  H   UNL     1      -3.561  13.984  20.830  0.00  0.00    +0.000 HD
ENDBRANCH  12  16
ENDBRANCH   7   8
BRANCH   4  18
ATOM     18  N   UNL     1       3.162   6.415  18.677  0.00  0.00    +0.000 N 
ATOM     19  C   UNL     1       4.328   6.408  17.957  0.00  0.00    +0.000 A 
ATOM     20  C   UNL     1       4.812   5.127  17.950  0.00  0.00    +0.000 A 
ATOM     21  C   UNL     1       3.850   4.383  18.684  0.00  0.00    +0.000 A 
ATOM     22  N   UNL     1       2.855   5.173  19.142  0.00  0.00    +0.000 NA
BRANCH  20  23
ATOM     23  N   UNL     1       5.978   4.672  17.353  0.00  0.00    +0.000 N 
ATOM     24  C   UNL     1       7.223   4.718  17.930  0.00  0.00    +0.000 C 
ATOM     25  N   UNL     1       8.186   4.174  17.134  0.00  0.00    +0.000 N 
ATOM     26  O   UNL     1       7.529   5.154  19.028  0.00  0.00    +0.000 OA
ATOM     27  H   UNL     1       5.878   4.218  16.454  0.00  0.00    +0.000 HD
ATOM     28  H   UNL     1       8.108   4.299  16.138  0.00  0.00    +0.000 HD
ATOM     29  H   UNL     1       9.121   4.297  17.509  0.00  0.00    +0.000 HD
ENDBRANCH  20  23
BRANCH  21  30
ATOM     30  C   UNL     1       3.863   2.939  18.939  0.00  0.00    +0.000 C 
ATOM     31  N   UNL     1       4.855   2.519  19.782  0.00  0.00    +0.000 N 
ATOM     32  O   UNL     1       3.049   2.157  18.453  0.00  0.00    +0.000 OA
ATOM     33  H   UNL     1       5.489   3.211  20.170  0.00  0.00    +0.000 HD
ATOM     34  H   UNL     1       4.915   1.552  20.052  0.00  0.00    +0.000 HD
ENDBRANCH  21  30
ENDBRANCH   4  18
TORSDOF 5
ENDMDL
MODEL 5
REMARK VINA RESULT:      -8.8      1.223      2.966
REMARK  Name = 
REMARK  6 active torsions:
REMARK  status: ('A' for Active; 'I' for Inactive)
REMARK    1  A    between atoms: C_1  and  C_2
REMARK    2  A    between atoms: C_4  and  N_5
REMARK    3  A    between atoms: C_7  and  N_8
REMARK    4  A    between atoms: C_12  and  C_13
REMARK    5  A    between atoms: C_19  and  C_20
REMARK    6  A    between atoms: C_24  and  O_25
REMARK                            x       y       z     vdW  Elec       q    Type
REMARK                         _______ _______ _______ _____ _____    ______ ____
ROOT
ATOM      1  C   UNL     1       0.459   8.951  21.986  0.00  0.00    +0.000 C 
ATOM      2  C   UNL     1       0.943   8.870  20.559  0.00  0.00    +0.000 A 
ATOM      3  C   UNL     1       1.789   7.773  20.278  0.00  0.00    +0.000 A 
ATOM      4  C   UNL     1       2.322   7.552  19.007  0.00  0.00    +0.000 A 
ATOM      5  C   UNL     1       2.011   8.447  17.990  0.00  0.00    +0.000 A 
ATOM      6  C   UNL     1       1.196   9.556  18.262  0.00  0.00    +0.000 A 
ATOM      7  C   UNL     1       0.632   9.808  19.540  0.00  0.00    +0.000 A 
ENDROOT
BRANCH   7   8
ATOM      8  C   UNL     1      -0.271  10.990  19.714  0.00  0.00    +0.000 A 
ATOM      9  C   UNL     1       0.135  12.133  20.437  0.00  0.00    +0.000 A 
ATOM     10  F   UNL     1       1.343  12.179  21.023  0.00  0.00    +0.000 F 
ATOM     11  C   UNL     1      -0.671  13.268  20.592  0.00  0.00    +0.000 A 
ATOM     12  C   UNL     1      -1.909  13.306  19.979  0.00  0.00    +0.000 A 
ATOM     13  C   UNL     1      -2.366  12.208  19.275  0.00  0.00    +0.000 A 
ATOM     14  C   UNL     1      -1.574  11.059  19.191  0.00  0.00    +0.000 A 
ATOM     15  F   UNL     1      -2.143   9.993  18.614  0.00  0.00    +0.000 F 
BRANCH  12  16
ATOM     16  O   UNL     1      -2.721  14.396  20.059  0.00  0.00    +0.000 OA
ATOM     17  H   UNL     1      -2.571  14.847  20.907  0.00  0.00    +0.000 HD
ENDBRANCH  12  16
ENDBRANCH   7   8
BRANCH   4  18
ATOM     18  N   UNL     1       3.180   6.444  18.764  0.00  0.00    +0.000 N 
ATOM     19  C   UNL     1       4.282   6.420  17.950  0.00  0.00    +0.000 A 
ATOM     20  C   UNL     1       4.807   5.156  17.989  0.00  0.00    +0.000 A 
ATOM     21  C   UNL     1       3.935   4.438  18.851  0.00  0.00    +0.000 A 
ATOM     22  N   UNL     1       2.954   5.229  19.337  0.00  0.00    +0.000 NA
BRANCH  20  23
ATOM     23  N   UNL     1       5.935   4.694  17.328  0.00  0.00    +0.000 N 
ATOM     24  C   UNL     1       7.209   4.724  17.838  0.00  0.00    +0.000 C 
ATOM     25  N   UNL     1       8.123   4.177  16.988  0.00  0.00    +0.000 N 
ATOM     26  O   UNL     1       7.578   5.149  18.921  0.00  0.00    +0.000 OA
ATOM     27  H   UNL     1       5.782   4.248  16.433  0.00  0.00    +0.000 HD
ATOM     28  H   UNL     1       7.993   4.309  15.998  0.00  0.00    +0.000 HD
ATOM     29  H   UNL     1       9.078   4.287  17.313  0.00  0.00    +0.000 HD
ENDBRANCH  20  23
BRANCH  21  30
ATOM     30  C   UNL     1       4.020   3.017  19.201  0.00  0.00    +0.000 C 
ATOM     31  N   UNL     1       2.974   2.257  18.755  0.00  0.00    +0.000 N 
ATOM     32  O   UNL     1       4.954   2.529  19.833  0.00  0.00    +0.000 OA
ATOM     33  H   UNL     1       2.238   2.708  18.221  0.00  0.00    +0.000 HD
ATOM     34  H   UNL     1       2.969   1.262  18.908  0.00  0.00    +0.000 HD
ENDBRANCH  21  30
ENDBRANCH   4  18
TORSDOF 5
ENDMDL
MODEL 6
REMARK VINA RESULT:      -8.8      0.833      2.901
REMARK  Name = 
REMARK  6 active torsions:
REMARK  status: ('A' for Active; 'I' for Inactive)
REMARK    1  A    between atoms: C_1  and  C_2
REMARK    2  A    between atoms: C_4  and  N_5
REMARK    3  A    between atoms: C_7  and  N_8
REMARK    4  A    between atoms: C_12  and  C_13
REMARK    5  A    between atoms: C_19  and  C_20
REMARK    6  A    between atoms: C_24  and  O_25
REMARK                            x       y       z     vdW  Elec       q    Type
REMARK                         _______ _______ _______ _____ _____    ______ ____
ROOT
ATOM      1  C   UNL     1       0.536   8.727  21.912  0.00  0.00    +0.000 C 
ATOM      2  C   UNL     1       1.043   8.667  20.491  0.00  0.00    +0.000 A 
ATOM      3  C   UNL     1       1.871   7.559  20.201  0.00  0.00    +0.000 A 
ATOM      4  C   UNL     1       2.422   7.355  18.934  0.00  0.00    +0.000 A 
ATOM      5  C   UNL     1       2.146   8.278  17.931  0.00  0.00    +0.000 A 
ATOM      6  C   UNL     1       1.348   9.397  18.214  0.00  0.00    +0.000 A 
ATOM      7  C   UNL     1       0.768   9.633  19.487  0.00  0.00    +0.000 A 
ENDROOT
BRANCH   7   8
ATOM      8  C   UNL     1      -0.115  10.828  19.672  0.00  0.00    +0.000 A 
ATOM      9  C   UNL     1       0.310  11.958  20.405  0.00  0.00    +0.000 A 
ATOM     10  F   UNL     1       1.519  11.978  20.991  0.00  0.00    +0.000 F 
ATOM     11  C   UNL     1      -0.476  13.105  20.570  0.00  0.00    +0.000 A 
ATOM     12  C   UNL     1      -1.714  13.169  19.958  0.00  0.00    +0.000 A 
ATOM     13  C   UNL     1      -2.190  12.085  19.245  0.00  0.00    +0.000 A 
ATOM     14  C   UNL     1      -1.417  10.924  19.151  0.00  0.00    +0.000 A 
ATOM     15  F   UNL     1      -2.005   9.872  18.565  0.00  0.00    +0.000 F 
BRANCH  12  16
ATOM     16  O   UNL     1      -2.507  14.272  20.048  0.00  0.00    +0.000 OA
ATOM     17  H   UNL     1      -2.419  14.799  19.235  0.00  0.00    +0.000 HD
ENDBRANCH  12  16
ENDBRANCH   7   8
BRANCH   4  18
ATOM     18  N   UNL     1       3.262   6.236  18.682  0.00  0.00    +0.000 N 
ATOM     19  C   UNL     1       4.449   6.237  17.997  0.00  0.00    +0.000 A 
ATOM     20  C   UNL     1       4.921   4.951  17.971  0.00  0.00    +0.000 A 
ATOM     21  C   UNL     1       3.930   4.198  18.655  0.00  0.00    +0.000 A 
ATOM     22  N   UNL     1       2.929   4.985  19.104  0.00  0.00    +0.000 NA
BRANCH  20  23
ATOM     23  N   UNL     1       6.101   4.501  17.398  0.00  0.00    +0.000 N 
ATOM     24  C   UNL     1       6.626   4.966  16.217  0.00  0.00    +0.000 C 
ATOM     25  N   UNL     1       7.811   4.371  15.905  0.00  0.00    +0.000 N 
ATOM     26  O   UNL     1       6.171   5.823  15.476  0.00  0.00    +0.000 OA
ATOM     27  H   UNL     1       6.634   3.828  17.932  0.00  0.00    +0.000 HD
ATOM     28  H   UNL     1       7.935   3.401  16.142  0.00  0.00    +0.000 HD
ATOM     29  H   UNL     1       8.153   4.635  14.986  0.00  0.00    +0.000 HD
ENDBRANCH  20  23
BRANCH  21  30
ATOM     30  C   UNL     1       3.924   2.748  18.872  0.00  0.00    +0.000 C 
ATOM     31  N   UNL     1       4.869   2.299  19.753  0.00  0.00    +0.000 N 
ATOM     32  O   UNL     1       3.131   1.984  18.324  0.00  0.00    +0.000 OA
ATOM     33  H   UNL     1       5.486   2.976  20.191  0.00  0.00    +0.000 HD
ATOM     34  H   UNL     1       4.910   1.324  19.999  0.00  0.00    +0.000 HD
ENDBRANCH  21  30
ENDBRANCH   4  18
TORSDOF 5
ENDMDL
MODEL 7
REMARK VINA RESULT:      -8.7      1.125      2.546
REMARK  Name = 
REMARK  6 active torsions:
REMARK  status: ('A' for Active; 'I' for Inactive)
REMARK    1  A    between atoms: C_1  and  C_2
REMARK    2  A    between atoms: C_4  and  N_5
REMARK    3  A    between atoms: C_7  and  N_8
REMARK    4  A    between atoms: C_12  and  C_13
REMARK    5  A    between atoms: C_19  and  C_20
REMARK    6  A    between atoms: C_24  and  O_25
REMARK                            x       y       z     vdW  Elec       q    Type
REMARK                         _______ _______ _______ _____ _____    ______ ____
ROOT
ATOM      1  C   UNL     1       0.468   8.712  21.850  0.00  0.00    +0.000 C 
ATOM      2  C   UNL     1       0.992   8.687  20.434  0.00  0.00    +0.000 A 
ATOM      3  C   UNL     1       1.870   7.618  20.144  0.00  0.00    +0.000 A 
ATOM      4  C   UNL     1       2.442   7.449  18.881  0.00  0.00    +0.000 A 
ATOM      5  C   UNL     1       2.137   8.368  17.884  0.00  0.00    +0.000 A 
ATOM      6  C   UNL     1       1.289   9.450  18.168  0.00  0.00    +0.000 A 
ATOM      7  C   UNL     1       0.687   9.649  19.436  0.00  0.00    +0.000 A 
ENDROOT
BRANCH   7   8
ATOM      8  C   UNL     1      -0.248  10.805  19.622  0.00  0.00    +0.000 A 
ATOM      9  C   UNL     1      -1.541  10.812  19.054  0.00  0.00    +0.000 A 
ATOM     10  F   UNL     1      -1.961   9.785  18.296  0.00  0.00    +0.000 F 
ATOM     11  C   UNL     1      -2.452  11.860  19.234  0.00  0.00    +0.000 A 
ATOM     12  C   UNL     1      -2.101  12.929  20.037  0.00  0.00    +0.000 A 
ATOM     13  C   UNL     1      -0.841  12.984  20.603  0.00  0.00    +0.000 A 
ATOM     14  C   UNL     1       0.077  11.960  20.354  0.00  0.00    +0.000 A 
ATOM     15  F   UNL     1       1.317  12.156  20.819  0.00  0.00    +0.000 F 
BRANCH  12  16
ATOM     16  O   UNL     1      -2.958  13.958  20.283  0.00  0.00    +0.000 OA
ATOM     17  H   UNL     1      -2.642  14.756  19.826  0.00  0.00    +0.000 HD
ENDBRANCH  12  16
ENDBRANCH   7   8
BRANCH   4  18
ATOM     18  N   UNL     1       3.331   6.369  18.628  0.00  0.00    +0.000 N 
ATOM     19  C   UNL     1       4.419   6.378  17.795  0.00  0.00    +0.000 A 
ATOM     20  C   UNL     1       4.986   5.131  17.830  0.00  0.00    +0.000 A 
ATOM     21  C   UNL     1       4.154   4.389  18.710  0.00  0.00    +0.000 A 
ATOM     22  N   UNL     1       3.156   5.151  19.210  0.00  0.00    +0.000 NA
BRANCH  20  23
ATOM     23  N   UNL     1       6.117   4.704  17.151  0.00  0.00    +0.000 N 
ATOM     24  C   UNL     1       6.558   5.223  15.959  0.00  0.00    +0.000 C 
ATOM     25  N   UNL     1       7.713   4.638  15.532  0.00  0.00    +0.000 N 
ATOM     26  O   UNL     1       6.058   6.117  15.295  0.00  0.00    +0.000 OA
ATOM     27  H   UNL     1       6.682   4.002  17.612  0.00  0.00    +0.000 HD
ATOM     28  H   UNL     1       7.845   3.657  15.713  0.00  0.00    +0.000 HD
ATOM     29  H   UNL     1       7.989   4.944  14.605  0.00  0.00    +0.000 HD
ENDBRANCH  20  23
BRANCH  21  30
ATOM     30  C   UNL     1       4.292   2.974  19.065  0.00  0.00    +0.000 C 
ATOM     31  N   UNL     1       3.735   2.104  18.168  0.00  0.00    +0.000 N 
ATOM     32  O   UNL     1       4.869   2.582  20.077  0.00  0.00    +0.000 OA
ATOM     33  H   UNL     1       3.287   2.482  17.339  0.00  0.00    +0.000 HD
ATOM     34  H   UNL     1       3.821   1.111  18.304  0.00  0.00    +0.000 HD
ENDBRANCH  21  30
ENDBRANCH   4  18
TORSDOF 5
ENDMDL
MODEL 8
REMARK VINA RESULT:      -8.5      4.131      9.293
REMARK  Name = 
REMARK  6 active torsions:
REMARK  status: ('A' for Active; 'I' for Inactive)
REMARK    1  A    between atoms: C_1  and  C_2
REMARK    2  A    between atoms: C_4  and  N_5
REMARK    3  A    between atoms: C_7  and  N_8
REMARK    4  A    between atoms: C_12  and  C_13
REMARK    5  A    between atoms: C_19  and  C_20
REMARK    6  A    between atoms: C_24  and  O_25
REMARK                            x       y       z     vdW  Elec       q    Type
REMARK                         _______ _______ _______ _____ _____    ______ ____
ROOT
ATOM      1  C   UNL     1       3.517   7.223  17.001  0.00  0.00    +0.000 C 
ATOM      2  C   UNL     1       2.703   7.315  18.269  0.00  0.00    +0.000 A 
ATOM      3  C   UNL     1       2.185   8.600  18.551  0.00  0.00    +0.000 A 
ATOM      4  C   UNL     1       1.410   8.856  19.684  0.00  0.00    +0.000 A 
ATOM      5  C   UNL     1       1.148   7.810  20.561  0.00  0.00    +0.000 A 
ATOM      6  C   UNL     1       1.680   6.537  20.307  0.00  0.00    +0.000 A 
ATOM      7  C   UNL     1       2.466   6.240  19.164  0.00  0.00    +0.000 A 
ENDROOT
BRANCH   7   8
ATOM      8  C   UNL     1       2.940   4.835  18.955  0.00  0.00    +0.000 A 
ATOM      9  C   UNL     1       4.241   4.428  19.325  0.00  0.00    +0.000 A 
ATOM     10  F   UNL     1       5.109   5.309  19.850  0.00  0.00    +0.000 F 
ATOM     11  C   UNL     1       4.706   3.117  19.174  0.00  0.00    +0.000 A 
ATOM     12  C   UNL     1       3.852   2.149  18.680  0.00  0.00    +0.000 A 
ATOM     13  C   UNL     1       2.573   2.494  18.283  0.00  0.00    +0.000 A 
ATOM     14  C   UNL     1       2.152   3.823  18.378  0.00  0.00    +0.000 A 
ATOM     15  F   UNL     1       0.956   4.101  17.844  0.00  0.00    +0.000 F 
BRANCH  12  16
ATOM     16  O   UNL     1       4.232   0.849  18.548  0.00  0.00    +0.000 OA
ATOM     17  H   UNL     1       5.133   0.740  18.898  0.00  0.00    +0.000 HD
ENDBRANCH  12  16
ENDBRANCH   7   8
BRANCH   4  18
ATOM     18  N   UNL     1       0.917  10.164  19.943  0.00  0.00    +0.000 N 
ATOM     19  C   UNL     1       0.776  10.763  21.167  0.00  0.00    +0.000 A 
ATOM     20  C   UNL     1       0.251  12.012  20.968  0.00  0.00    +0.000 A 
ATOM     21  C   UNL     1       0.070  12.098  19.562  0.00  0.00    +0.000 A 
ATOM     22  N   UNL     1       0.493  10.978  18.937  0.00  0.00    +0.000 NA
BRANCH  20  23
ATOM     23  N   UNL     1      -0.037  12.966  21.933  0.00  0.00    +0.000 N 
ATOM     24  C   UNL     1      -1.140  12.946  22.749  0.00  0.00    +0.000 C 
ATOM     25  N   UNL     1      -1.157  13.989  23.627  0.00  0.00    +0.000 N 
ATOM     26  O   UNL     1      -2.043  12.124  22.778  0.00  0.00    +0.000 OA
ATOM     27  H   UNL     1       0.658  13.686  22.076  0.00  0.00    +0.000 HD
ATOM     28  H   UNL     1      -0.797  14.877  23.319  0.00  0.00    +0.000 HD
ATOM     29  H   UNL     1      -2.018  14.037  24.163  0.00  0.00    +0.000 HD
ENDBRANCH  20  23
BRANCH  21  30
ATOM     30  C   UNL     1      -0.508  13.221  18.818  0.00  0.00    +0.000 C 
ATOM     31  N   UNL     1      -1.059  12.883  17.612  0.00  0.00    +0.000 N 
ATOM     32  O   UNL     1      -0.516  14.378  19.234  0.00  0.00    +0.000 OA
ATOM     33  H   UNL     1      -1.041  11.909  17.326  0.00  0.00    +0.000 HD
ATOM     34  H   UNL     1      -1.520  13.580  17.053  0.00  0.00    +0.000 HD
ENDBRANCH  21  30
ENDBRANCH   4  18
TORSDOF 5
ENDMDL
MODEL 9
REMARK VINA RESULT:      -8.4      4.153      9.188
REMARK  Name = 
REMARK  6 active torsions:
REMARK  status: ('A' for Active; 'I' for Inactive)
REMARK    1  A    between atoms: C_1  and  C_2
REMARK    2  A    between atoms: C_4  and  N_5
REMARK    3  A    between atoms: C_7  and  N_8
REMARK    4  A    between atoms: C_12  and  C_13
REMARK    5  A    between atoms: C_19  and  C_20
REMARK    6  A    between atoms: C_24  and  O_25
REMARK                            x       y       z     vdW  Elec       q    Type
REMARK                         _______ _______ _______ _____ _____    ______ ____
ROOT
ATOM      1  C   UNL     1       3.474   7.018  17.189  0.00  0.00    +0.000 C 
ATOM      2  C   UNL     1       2.695   7.188  18.471  0.00  0.00    +0.000 A 
ATOM      3  C   UNL     1       2.171   8.484  18.681  0.00  0.00    +0.000 A 
ATOM      4  C   UNL     1       1.426   8.809  19.817  0.00  0.00    +0.000 A 
ATOM      5  C   UNL     1       1.199   7.822  20.769  0.00  0.00    +0.000 A 
ATOM      6  C   UNL     1       1.737   6.539  20.585  0.00  0.00    +0.000 A 
ATOM      7  C   UNL     1       2.494   6.173  19.442  0.00  0.00    +0.000 A 
ENDROOT
BRANCH   7   8
ATOM      8  C   UNL     1       2.977   4.761  19.314  0.00  0.00    +0.000 A 
ATOM      9  C   UNL     1       2.085   3.688  19.101  0.00  0.00    +0.000 A 
ATOM     10  F   UNL     1       0.760   3.902  19.040  0.00  0.00    +0.000 F 
ATOM     11  C   UNL     1       2.505   2.361  18.945  0.00  0.00    +0.000 A 
ATOM     12  C   UNL     1       3.857   2.075  18.955  0.00  0.00    +0.000 A 
ATOM     13  C   UNL     1       4.775   3.084  19.178  0.00  0.00    +0.000 A 
ATOM     14  C   UNL     1       4.331   4.390  19.401  0.00  0.00    +0.000 A 
ATOM     15  F   UNL     1       5.269   5.279  19.750  0.00  0.00    +0.000 F 
BRANCH  12  16
ATOM     16  O   UNL     1       4.328   0.812  18.767  0.00  0.00    +0.000 OA
ATOM     17  H   UNL     1       4.657   0.723  17.856  0.00  0.00    +0.000 HD
ENDBRANCH  12  16
ENDBRANCH   7   8
BRANCH   4  18
ATOM     18  N   UNL     1       0.926  10.127  20.002  0.00  0.00    +0.000 N 
ATOM     19  C   UNL     1       0.803  10.801  21.189  0.00  0.00    +0.000 A 
ATOM     20  C   UNL     1       0.264  12.031  20.921  0.00  0.00    +0.000 A 
ATOM     21  C   UNL     1       0.055  12.026  19.516  0.00  0.00    +0.000 A 
ATOM     22  N   UNL     1       0.476  10.872  18.955  0.00  0.00    +0.000 NA
BRANCH  20  23
ATOM     23  N   UNL     1      -0.014  13.042  21.829  0.00  0.00    +0.000 N 
ATOM     24  C   UNL     1      -1.099  13.063  22.670  0.00  0.00    +0.000 C 
ATOM     25  N   UNL     1      -1.109  14.160  23.478  0.00  0.00    +0.000 N 
ATOM     26  O   UNL     1      -1.991  12.237  22.771  0.00  0.00    +0.000 OA
ATOM     27  H   UNL     1       0.676  13.777  21.910  0.00  0.00    +0.000 HD
ATOM     28  H   UNL     1      -0.765  15.030  23.106  0.00  0.00    +0.000 HD
ATOM     29  H   UNL     1      -1.958  14.235  24.029  0.00  0.00    +0.000 HD
ENDBRANCH  20  23
BRANCH  21  30
ATOM     30  C   UNL     1      -0.547  13.096  18.713  0.00  0.00    +0.000 C 
ATOM     31  N   UNL     1      -1.288  12.661  17.649  0.00  0.00    +0.000 N 
ATOM     32  O   UNL     1      -0.417  14.291  18.970  0.00  0.00    +0.000 OA
ATOM     33  H   UNL     1      -1.377  11.662  17.495  0.00  0.00    +0.000 HD
ATOM     34  H   UNL     1      -1.777  13.321  17.069  0.00  0.00    +0.000 HD
ENDBRANCH  21  30
ENDBRANCH   4  18
TORSDOF 5
ENDMDL
