MODEL 1
REMARK VINA RESULT:      -6.8      0.000      0.000
REMARK  Name = 
REMARK  9 active torsions:
REMARK  status: ('A' for Active; 'I' for Inactive)
REMARK    1  A    between atoms: C_2  and  C_3
REMARK    2  A    between atoms: C_3  and  N_4
REMARK    3  A    between atoms: N_4  and  C_5
REMARK    4  A    between atoms: N_4  and  S_17
REMARK    5  A    between atoms: C_8  and  C_9
REMARK    6  A    between atoms: N_11  and  C_12
REMARK    7  A    between atoms: C_12  and  C_13
REMARK    8  A    between atoms: C_12  and  C_14
REMARK    9  A    between atoms: S_17  and  C_18
REMARK                            x       y       z     vdW  Elec       q    Type
REMARK                         _______ _______ _______ _____ _____    ______ ____
ROOT
ATOM      1  C   UNL     1       4.679   5.788  17.718  0.00  0.00    +0.000 A 
ATOM      2  C   UNL     1       4.343   6.999  17.116  0.00  0.00    +0.000 A 
ATOM      3  C   UNL     1       3.353   7.810  17.688  0.00  0.00    +0.000 A 
ATOM      4  C   UNL     1       2.700   7.423  18.870  0.00  0.00    +0.000 A 
ATOM      5  C   UNL     1       3.036   6.200  19.462  0.00  0.00    +0.000 A 
ATOM      6  C   UNL     1       4.025   5.391  18.886  0.00  0.00    +0.000 A 
ENDROOT
BRANCH   4   7
ATOM      7  C   UNL     1       1.642   8.326  19.417  0.00  0.00    +0.000 C 
ATOM      8  O   UNL     1       1.213   8.135  20.550  0.00  0.00    +0.000 OA
ATOM      9  N   UNL     1       1.173   9.326  18.587  0.00  0.00    +0.000 N 
ATOM     10  H   UNL     1       1.540   9.421  17.652  0.00  0.00    +0.000 HD
BRANCH   9  11
ATOM     11  C   UNL     1       0.146  10.269  19.018  0.00  0.00    +0.000 C 
ATOM     12  C   UNL     1       0.697  11.694  19.055  0.00  0.00    +0.000 C 
ATOM     13  C   UNL     1      -1.068  10.193  18.094  0.00  0.00    +0.000 C 
ENDBRANCH   9  11
ENDBRANCH   4   7
BRANCH   1  14
ATOM     14  N   UNL     1       5.675   4.927  17.159  0.00  0.00    +0.000 N 
BRANCH  14  15
ATOM     15  S   UNL     1       7.302   5.323  17.347  0.00  0.00    +0.000 S 
ATOM     16  C   UNL     1       7.400   5.773  19.072  0.00  0.00    +0.000 C 
ATOM     17  O   UNL     1       8.119   4.143  17.155  0.00  0.00    +0.000 OA
ATOM     18  O   UNL     1       7.552   6.531  16.588  0.00  0.00    +0.000 OA
ENDBRANCH  14  15
BRANCH  14  19
ATOM     19  C   UNL     1       5.289   3.924  16.157  0.00  0.00    +0.000 C 
BRANCH  19  21
ATOM     20  C   UNL     1       6.130   3.873  13.789  0.00  0.00    +0.000 C 
ATOM     21  C   UNL     1       5.473   4.488  14.782  0.00  0.00    +0.000 C 
ENDBRANCH  19  21
ENDBRANCH  14  19
ENDBRANCH   1  14
TORSDOF 6
ENDMDL
MODEL 2
REMARK VINA RESULT:      -6.8      0.274      1.114
REMARK  Name = 
REMARK  9 active torsions:
REMARK  status: ('A' for Active; 'I' for Inactive)
REMARK    1  A    between atoms: C_2  and  C_3
REMARK    2  A    between atoms: C_3  and  N_4
REMARK    3  A    between atoms: N_4  and  C_5
REMARK    4  A    between atoms: N_4  and  S_17
REMARK    5  A    between atoms: C_8  and  C_9
REMARK    6  A    between atoms: N_11  and  C_12
REMARK    7  A    between atoms: C_12  and  C_13
REMARK    8  A    between atoms: C_12  and  C_14
REMARK    9  A    between atoms: S_17  and  C_18
REMARK                            x       y       z     vdW  Elec       q    Type
REMARK                         _______ _______ _______ _____ _____    ______ ____
ROOT
ATOM      1  C   UNL     1       4.636   5.695  17.806  0.00  0.00    +0.000 A 
ATOM      2  C   UNL     1       3.975   5.300  18.968  0.00  0.00    +0.000 A 
ATOM      3  C   UNL     1       3.004   6.136  19.535  0.00  0.00    +0.000 A 
ATOM      4  C   UNL     1       2.678   7.367  18.942  0.00  0.00    +0.000 A 
ATOM      5  C   UNL     1       3.354   7.761  17.781  0.00  0.00    +0.000 A 
ATOM      6  C   UNL     1       4.325   6.923  17.218  0.00  0.00    +0.000 A 
ENDROOT
BRANCH   4   7
ATOM      7  C   UNL     1       1.645   8.218  19.608  0.00  0.00    +0.000 C 
ATOM      8  O   UNL     1       1.310   7.967  20.761  0.00  0.00    +0.000 OA
ATOM      9  N   UNL     1       1.092   9.241  18.863  0.00  0.00    +0.000 N 
ATOM     10  H   UNL     1       1.382   9.385  17.908  0.00  0.00    +0.000 HD
BRANCH   9  11
ATOM     11  C   UNL     1       0.080  10.137  19.413  0.00  0.00    +0.000 C 
ATOM     12  C   UNL     1       0.717  11.432  19.917  0.00  0.00    +0.000 C 
ATOM     13  C   UNL     1      -0.987  10.443  18.365  0.00  0.00    +0.000 C 
ENDBRANCH   9  11
ENDBRANCH   4   7
BRANCH   1  14
ATOM     14  N   UNL     1       5.641   4.876  17.203  0.00  0.00    +0.000 N 
BRANCH  14  15
ATOM     15  S   UNL     1       7.259   5.322  17.347  0.00  0.00    +0.000 S 
ATOM     16  C   UNL     1       7.388   5.786  19.067  0.00  0.00    +0.000 C 
ATOM     17  O   UNL     1       8.107   4.166  17.141  0.00  0.00    +0.000 OA
ATOM     18  O   UNL     1       7.453   6.531  16.575  0.00  0.00    +0.000 OA
ENDBRANCH  14  15
BRANCH  14  19
ATOM     19  C   UNL     1       5.256   3.874  16.200  0.00  0.00    +0.000 C 
BRANCH  19  21
ATOM     20  C   UNL     1       6.272   3.935  13.901  0.00  0.00    +0.000 C 
ATOM     21  C   UNL     1       5.445   4.441  14.826  0.00  0.00    +0.000 C 
ENDBRANCH  19  21
ENDBRANCH  14  19
ENDBRANCH   1  14
TORSDOF 6
ENDMDL
MODEL 3
REMARK VINA RESULT:      -6.7      1.269      1.533
REMARK  Name = 
REMARK  9 active torsions:
REMARK  status: ('A' for Active; 'I' for Inactive)
REMARK    1  A    between atoms: C_2  and  C_3
REMARK    2  A    between atoms: C_3  and  N_4
REMARK    3  A    between atoms: N_4  and  C_5
REMARK    4  A    between atoms: N_4  and  S_17
REMARK    5  A    between atoms: C_8  and  C_9
REMARK    6  A    between atoms: N_11  and  C_12
REMARK    7  A    between atoms: C_12  and  C_13
REMARK    8  A    between atoms: C_12  and  C_14
REMARK    9  A    between atoms: S_17  and  C_18
REMARK                            x       y       z     vdW  Elec       q    Type
REMARK                         _______ _______ _______ _____ _____    ______ ____
ROOT
ATOM      1  C   UNL     1       4.645   5.851  17.656  0.00  0.00    +0.000 A 
ATOM      2  C   UNL     1       4.433   7.069  17.012  0.00  0.00    +0.000 A 
ATOM      3  C   UNL     1       3.427   7.932  17.467  0.00  0.00    +0.000 A 
ATOM      4  C   UNL     1       2.631   7.589  18.573  0.00  0.00    +0.000 A 
ATOM      5  C   UNL     1       2.842   6.359  19.207  0.00  0.00    +0.000 A 
ATOM      6  C   UNL     1       3.849   5.499  18.748  0.00  0.00    +0.000 A 
ENDROOT
BRANCH   4   7
ATOM      7  C   UNL     1       1.563   8.547  18.995  0.00  0.00    +0.000 C 
ATOM      8  O   UNL     1       1.008   9.242  18.150  0.00  0.00    +0.000 OA
ATOM      9  N   UNL     1       1.277   8.620  20.345  0.00  0.00    +0.000 N 
ATOM     10  H   UNL     1       1.785   8.047  21.001  0.00  0.00    +0.000 HD
BRANCH   9  11
ATOM     11  C   UNL     1       0.250   9.515  20.869  0.00  0.00    +0.000 C 
ATOM     12  C   UNL     1      -0.357   8.952  22.154  0.00  0.00    +0.000 C 
ATOM     13  C   UNL     1       0.832  10.904  21.120  0.00  0.00    +0.000 C 
ENDBRANCH   9  11
ENDBRANCH   4   7
BRANCH   1  14
ATOM     14  N   UNL     1       5.654   4.939  17.215  0.00  0.00    +0.000 N 
BRANCH  14  15
ATOM     15  S   UNL     1       7.275   5.346  17.421  0.00  0.00    +0.000 S 
ATOM     16  C   UNL     1       7.356   5.775  19.152  0.00  0.00    +0.000 C 
ATOM     17  O   UNL     1       8.105   4.176  17.220  0.00  0.00    +0.000 OA
ATOM     18  O   UNL     1       7.521   6.566  16.679  0.00  0.00    +0.000 OA
ENDBRANCH  14  15
BRANCH  14  19
ATOM     19  C   UNL     1       5.295   3.846  16.300  0.00  0.00    +0.000 C 
BRANCH  19  21
ATOM     20  C   UNL     1       6.346   4.027  14.024  0.00  0.00    +0.000 C 
ATOM     21  C   UNL     1       5.366   4.331  14.885  0.00  0.00    +0.000 C 
ENDBRANCH  19  21
ENDBRANCH  14  19
ENDBRANCH   1  14
TORSDOF 6
ENDMDL
MODEL 4
REMARK VINA RESULT:      -6.6      1.277      1.888
REMARK  Name = 
REMARK  9 active torsions:
REMARK  status: ('A' for Active; 'I' for Inactive)
REMARK    1  A    between atoms: C_2  and  C_3
REMARK    2  A    between atoms: C_3  and  N_4
REMARK    3  A    between atoms: N_4  and  C_5
REMARK    4  A    between atoms: N_4  and  S_17
REMARK    5  A    between atoms: C_8  and  C_9
REMARK    6  A    between atoms: N_11  and  C_12
REMARK    7  A    between atoms: C_12  and  C_13
REMARK    8  A    between atoms: C_12  and  C_14
REMARK    9  A    between atoms: S_17  and  C_18
REMARK                            x       y       z     vdW  Elec       q    Type
REMARK                         _______ _______ _______ _____ _____    ______ ____
ROOT
ATOM      1  C   UNL     1       4.635   5.833  17.625  0.00  0.00    +0.000 A 
ATOM      2  C   UNL     1       3.807   5.531  18.705  0.00  0.00    +0.000 A 
ATOM      3  C   UNL     1       2.820   6.443  19.103  0.00  0.00    +0.000 A 
ATOM      4  C   UNL     1       2.645   7.657  18.419  0.00  0.00    +0.000 A 
ATOM      5  C   UNL     1       3.487   7.958  17.342  0.00  0.00    +0.000 A 
ATOM      6  C   UNL     1       4.473   7.044  16.948  0.00  0.00    +0.000 A 
ENDROOT
BRANCH   4   7
ATOM      7  C   UNL     1       1.585   8.592  18.906  0.00  0.00    +0.000 C 
ATOM      8  O   UNL     1       1.028   9.340  18.109  0.00  0.00    +0.000 OA
ATOM      9  N   UNL     1       1.308   8.585  20.260  0.00  0.00    +0.000 N 
ATOM     10  H   UNL     1       1.818   7.970  20.876  0.00  0.00    +0.000 HD
BRANCH   9  11
ATOM     11  C   UNL     1       0.290   9.451  20.845  0.00  0.00    +0.000 C 
ATOM     12  C   UNL     1      -0.296   8.824  22.110  0.00  0.00    +0.000 C 
ATOM     13  C   UNL     1       0.876  10.826  21.156  0.00  0.00    +0.000 C 
ENDBRANCH   9  11
ENDBRANCH   4   7
BRANCH   1  14
ATOM     14  N   UNL     1       5.660   4.934  17.196  0.00  0.00    +0.000 N 
BRANCH  14  15
ATOM     15  S   UNL     1       7.273   5.348  17.449  0.00  0.00    +0.000 S 
ATOM     16  C   UNL     1       7.306   5.762  19.185  0.00  0.00    +0.000 C 
ATOM     17  O   UNL     1       8.115   4.184  17.260  0.00  0.00    +0.000 OA
ATOM     18  O   UNL     1       7.531   6.576  16.725  0.00  0.00    +0.000 OA
ENDBRANCH  14  15
BRANCH  14  19
ATOM     19  C   UNL     1       5.333   3.852  16.257  0.00  0.00    +0.000 C 
BRANCH  19  21
ATOM     20  C   UNL     1       6.313   3.918  13.943  0.00  0.00    +0.000 C 
ATOM     21  C   UNL     1       5.432   4.359  14.852  0.00  0.00    +0.000 C 
ENDBRANCH  19  21
ENDBRANCH  14  19
ENDBRANCH   1  14
TORSDOF 6
ENDMDL
MODEL 5
REMARK VINA RESULT:      -6.5      2.972      7.072
REMARK  Name = 
REMARK  9 active torsions:
REMARK  status: ('A' for Active; 'I' for Inactive)
REMARK    1  A    between atoms: C_2  and  C_3
REMARK    2  A    between atoms: C_3  and  N_4
REMARK    3  A    between atoms: N_4  and  C_5
REMARK    4  A    between atoms: N_4  and  S_17
REMARK    5  A    between atoms: C_8  and  C_9
REMARK    6  A    between atoms: N_11  and  C_12
REMARK    7  A    between atoms: C_12  and  C_13
REMARK    8  A    between atoms: C_12  and  C_14
REMARK    9  A    between atoms: S_17  and  C_18
REMARK                            x       y       z     vdW  Elec       q    Type
REMARK                         _______ _______ _______ _____ _____    ______ ____
ROOT
ATOM      1  C   UNL     1       3.868   4.539  18.896  0.00  0.00    +0.000 A 
ATOM      2  C   UNL     1       5.216   4.839  19.089  0.00  0.00    +0.000 A 
ATOM      3  C   UNL     1       6.106   4.774  18.009  0.00  0.00    +0.000 A 
ATOM      4  C   UNL     1       5.656   4.418  16.726  0.00  0.00    +0.000 A 
ATOM      5  C   UNL     1       4.304   4.108  16.542  0.00  0.00    +0.000 A 
ATOM      6  C   UNL     1       3.417   4.174  17.626  0.00  0.00    +0.000 A 
ENDROOT
BRANCH   4   7
ATOM      7  C   UNL     1       6.662   4.351  15.622  0.00  0.00    +0.000 C 
ATOM      8  O   UNL     1       7.846   4.546  15.872  0.00  0.00    +0.000 OA
ATOM      9  N   UNL     1       6.187   4.098  14.349  0.00  0.00    +0.000 N 
ATOM     10  H   UNL     1       5.198   3.974  14.194  0.00  0.00    +0.000 HD
BRANCH   9  11
ATOM     11  C   UNL     1       7.078   4.004  13.197  0.00  0.00    +0.000 C 
ATOM     12  C   UNL     1       6.371   3.338  12.017  0.00  0.00    +0.000 C 
ATOM     13  C   UNL     1       7.584   5.389  12.801  0.00  0.00    +0.000 C 
ENDBRANCH   9  11
ENDBRANCH   4   7
BRANCH   1  14
ATOM     14  N   UNL     1       2.932   4.583  19.975  0.00  0.00    +0.000 N 
BRANCH  14  15
ATOM     15  S   UNL     1       2.639   3.184  20.866  0.00  0.00    +0.000 S 
ATOM     16  C   UNL     1       1.202   2.497  20.060  0.00  0.00    +0.000 C 
ATOM     17  O   UNL     1       3.731   2.250  20.687  0.00  0.00    +0.000 OA
ATOM     18  O   UNL     1       2.218   3.587  22.192  0.00  0.00    +0.000 OA
ENDBRANCH  14  15
BRANCH  14  19
ATOM     19  C   UNL     1       1.998   5.713  20.081  0.00  0.00    +0.000 C 
BRANCH  19  21
ATOM     20  C   UNL     1       2.237   7.683  18.537  0.00  0.00    +0.000 C 
ATOM     21  C   UNL     1       2.661   6.961  19.583  0.00  0.00    +0.000 C 
ENDBRANCH  19  21
ENDBRANCH  14  19
ENDBRANCH   1  14
TORSDOF 6
ENDMDL
MODEL 6
REMARK VINA RESULT:      -6.5      2.996      7.057
REMARK  Name = 
REMARK  9 active torsions:
REMARK  status: ('A' for Active; 'I' for Inactive)
REMARK    1  A    between atoms: C_2  and  C_3
REMARK    2  A    between atoms: C_3  and  N_4
REMARK    3  A    between atoms: N_4  and  C_5
REMARK    4  A    between atoms: N_4  and  S_17
REMARK    5  A    between atoms: C_8  and  C_9
REMARK    6  A    between atoms: N_11  and  C_12
REMARK    7  A    between atoms: C_12  and  C_13
REMARK    8  A    between atoms: C_12  and  C_14
REMARK    9  A    between atoms: S_17  and  C_18
REMARK                            x       y       z     vdW  Elec       q    Type
REMARK                         _______ _______ _______ _____ _____    ______ ____
ROOT
ATOM      1  C   UNL     1       3.898   4.452  18.851  0.00  0.00    +0.000 A 
ATOM      2  C   UNL     1       3.460   4.088  17.579  0.00  0.00    +0.000 A 
ATOM      3  C   UNL     1       4.370   4.047  16.514  0.00  0.00    +0.000 A 
ATOM      4  C   UNL     1       5.725   4.361  16.713  0.00  0.00    +0.000 A 
ATOM      5  C   UNL     1       6.155   4.736  17.991  0.00  0.00    +0.000 A 
ATOM      6  C   UNL     1       5.241   4.777  19.053  0.00  0.00    +0.000 A 
ENDROOT
BRANCH   4   7
ATOM      7  C   UNL     1       6.639   4.315  15.530  0.00  0.00    +0.000 C 
ATOM      8  O   UNL     1       7.814   4.641  15.663  0.00  0.00    +0.000 OA
ATOM      9  N   UNL     1       6.090   3.931  14.322  0.00  0.00    +0.000 N 
ATOM     10  H   UNL     1       5.110   3.702  14.262  0.00  0.00    +0.000 HD
BRANCH   9  11
ATOM     11  C   UNL     1       6.889   3.846  13.104  0.00  0.00    +0.000 C 
ATOM     12  C   UNL     1       6.083   3.215  11.968  0.00  0.00    +0.000 C 
ATOM     13  C   UNL     1       7.388   5.230  12.696  0.00  0.00    +0.000 C 
ENDBRANCH   9  11
ENDBRANCH   4   7
BRANCH   1  14
ATOM     14  N   UNL     1       2.998   4.517  19.960  0.00  0.00    +0.000 N 
BRANCH  14  15
ATOM     15  S   UNL     1       2.723   3.130  20.876  0.00  0.00    +0.000 S 
ATOM     16  C   UNL     1       1.371   2.349  20.010  0.00  0.00    +0.000 C 
ATOM     17  O   UNL     1       3.869   2.247  20.787  0.00  0.00    +0.000 OA
ATOM     18  O   UNL     1       2.207   3.547  22.163  0.00  0.00    +0.000 OA
ENDBRANCH  14  15
BRANCH  14  19
ATOM     19  C   UNL     1       2.080   5.657  20.085  0.00  0.00    +0.000 C 
BRANCH  19  21
ATOM     20  C   UNL     1       2.303   7.622  18.533  0.00  0.00    +0.000 C 
ATOM     21  C   UNL     1       2.743   6.897  19.571  0.00  0.00    +0.000 C 
ENDBRANCH  19  21
ENDBRANCH  14  19
ENDBRANCH   1  14
TORSDOF 6
ENDMDL
MODEL 7
REMARK VINA RESULT:      -6.5      0.810      1.444
REMARK  Name = 
REMARK  9 active torsions:
REMARK  status: ('A' for Active; 'I' for Inactive)
REMARK    1  A    between atoms: C_2  and  C_3
REMARK    2  A    between atoms: C_3  and  N_4
REMARK    3  A    between atoms: N_4  and  C_5
REMARK    4  A    between atoms: N_4  and  S_17
REMARK    5  A    between atoms: C_8  and  C_9
REMARK    6  A    between atoms: N_11  and  C_12
REMARK    7  A    between atoms: C_12  and  C_13
REMARK    8  A    between atoms: C_12  and  C_14
REMARK    9  A    between atoms: S_17  and  C_18
REMARK                            x       y       z     vdW  Elec       q    Type
REMARK                         _______ _______ _______ _____ _____    ______ ____
ROOT
ATOM      1  C   UNL     1       4.534   5.789  18.026  0.00  0.00    +0.000 A 
ATOM      2  C   UNL     1       3.848   5.556  19.217  0.00  0.00    +0.000 A 
ATOM      3  C   UNL     1       2.859   6.455  19.639  0.00  0.00    +0.000 A 
ATOM      4  C   UNL     1       2.541   7.588  18.871  0.00  0.00    +0.000 A 
ATOM      5  C   UNL     1       3.241   7.820  17.682  0.00  0.00    +0.000 A 
ATOM      6  C   UNL     1       4.230   6.919  17.264  0.00  0.00    +0.000 A 
ENDROOT
BRANCH   4   7
ATOM      7  C   UNL     1       1.489   8.515  19.388  0.00  0.00    +0.000 C 
ATOM      8  O   UNL     1       1.073   8.378  20.533  0.00  0.00    +0.000 OA
ATOM      9  N   UNL     1       1.010   9.476  18.518  0.00  0.00    +0.000 N 
ATOM     10  H   UNL     1       1.365   9.526  17.575  0.00  0.00    +0.000 HD
BRANCH   9  11
ATOM     11  C   UNL     1      -0.013  10.437  18.916  0.00  0.00    +0.000 C 
ATOM     12  C   UNL     1       0.520  11.867  18.822  0.00  0.00    +0.000 C 
ATOM     13  C   UNL     1      -1.260  10.278  18.050  0.00  0.00    +0.000 C 
ENDBRANCH   9  11
ENDBRANCH   4   7
BRANCH   1  14
ATOM     14  N   UNL     1       5.556   4.902  17.568  0.00  0.00    +0.000 N 
BRANCH  14  15
ATOM     15  S   UNL     1       7.153   5.180  18.029  0.00  0.00    +0.000 S 
ATOM     16  C   UNL     1       7.438   6.852  17.469  0.00  0.00    +0.000 C 
ATOM     17  O   UNL     1       7.254   5.179  19.474  0.00  0.00    +0.000 OA
ATOM     18  O   UNL     1       7.999   4.323  17.225  0.00  0.00    +0.000 OA
ENDBRANCH  14  15
BRANCH  14  19
ATOM     19  C   UNL     1       5.278   3.986  16.453  0.00  0.00    +0.000 C 
BRANCH  19  21
ATOM     20  C   UNL     1       6.213   4.198  14.129  0.00  0.00    +0.000 C 
ATOM     21  C   UNL     1       5.504   4.694  15.153  0.00  0.00    +0.000 C 
ENDBRANCH  19  21
ENDBRANCH  14  19
ENDBRANCH   1  14
TORSDOF 6
ENDMDL
MODEL 8
REMARK VINA RESULT:      -6.3      3.943      7.431
REMARK  Name = 
REMARK  9 active torsions:
REMARK  status: ('A' for Active; 'I' for Inactive)
REMARK    1  A    between atoms: C_2  and  C_3
REMARK    2  A    between atoms: C_3  and  N_4
REMARK    3  A    between atoms: N_4  and  C_5
REMARK    4  A    between atoms: N_4  and  S_17
REMARK    5  A    between atoms: C_8  and  C_9
REMARK    6  A    between atoms: N_11  and  C_12
REMARK    7  A    between atoms: C_12  and  C_13
REMARK    8  A    between atoms: C_12  and  C_14
REMARK    9  A    between atoms: S_17  and  C_18
REMARK                            x       y       z     vdW  Elec       q    Type
REMARK                         _______ _______ _______ _____ _____    ______ ____
ROOT
ATOM      1  C   UNL     1       1.112   9.661  19.170  0.00  0.00    +0.000 A 
ATOM      2  C   UNL     1       1.802   9.046  18.126  0.00  0.00    +0.000 A 
ATOM      3  C   UNL     1       2.385   7.787  18.324  0.00  0.00    +0.000 A 
ATOM      4  C   UNL     1       2.274   7.128  19.559  0.00  0.00    +0.000 A 
ATOM      5  C   UNL     1       1.589   7.757  20.605  0.00  0.00    +0.000 A 
ATOM      6  C   UNL     1       1.008   9.016  20.404  0.00  0.00    +0.000 A 
ENDROOT
BRANCH   4   7
ATOM      7  C   UNL     1       2.935   5.795  19.708  0.00  0.00    +0.000 C 
ATOM      8  O   UNL     1       4.118   5.672  19.411  0.00  0.00    +0.000 OA
ATOM      9  N   UNL     1       2.151   4.746  20.149  0.00  0.00    +0.000 N 
ATOM     10  H   UNL     1       1.174   4.896  20.351  0.00  0.00    +0.000 HD
BRANCH   9  11
ATOM     11  C   UNL     1       2.691   3.404  20.336  0.00  0.00    +0.000 C 
ATOM     12  C   UNL     1       2.118   2.758  21.598  0.00  0.00    +0.000 C 
ATOM     13  C   UNL     1       2.396   2.536  19.114  0.00  0.00    +0.000 C 
ENDBRANCH   9  11
ENDBRANCH   4   7
BRANCH   1  14
ATOM     14  N   UNL     1       0.513  10.949  19.012  0.00  0.00    +0.000 N 
BRANCH  14  15
ATOM     15  S   UNL     1       1.424  12.325  19.353  0.00  0.00    +0.000 S 
ATOM     16  C   UNL     1       0.315  13.651  18.904  0.00  0.00    +0.000 C 
ATOM     17  O   UNL     1       1.661  12.416  20.779  0.00  0.00    +0.000 OA
ATOM     18  O   UNL     1       2.525  12.369  18.413  0.00  0.00    +0.000 OA
ENDBRANCH  14  15
BRANCH  14  19
ATOM     19  C   UNL     1      -0.947  11.063  18.894  0.00  0.00    +0.000 C 
BRANCH  19  21
ATOM     20  C   UNL     1      -2.699   9.854  17.555  0.00  0.00    +0.000 C 
ATOM     21  C   UNL     1      -1.426  10.225  17.748  0.00  0.00    +0.000 C 
ENDBRANCH  19  21
ENDBRANCH  14  19
ENDBRANCH   1  14
TORSDOF 6
ENDMDL
MODEL 9
REMARK VINA RESULT:      -6.3      2.604      4.044
REMARK  Name = 
REMARK  9 active torsions:
REMARK  status: ('A' for Active; 'I' for Inactive)
REMARK    1  A    between atoms: C_2  and  C_3
REMARK    2  A    between atoms: C_3  and  N_4
REMARK    3  A    between atoms: N_4  and  C_5
REMARK    4  A    between atoms: N_4  and  S_17
REMARK    5  A    between atoms: C_8  and  C_9
REMARK    6  A    between atoms: N_11  and  C_12
REMARK    7  A    between atoms: C_12  and  C_13
REMARK    8  A    between atoms: C_12  and  C_14
REMARK    9  A    between atoms: S_17  and  C_18
REMARK                            x       y       z     vdW  Elec       q    Type
REMARK                         _______ _______ _______ _____ _____    ______ ____
ROOT
ATOM      1  C   UNL     1       2.506   5.960  19.238  0.00  0.00    +0.000 A 
ATOM      2  C   UNL     1       2.080   6.624  20.386  0.00  0.00    +0.000 A 
ATOM      3  C   UNL     1       1.679   7.965  20.307  0.00  0.00    +0.000 A 
ATOM      4  C   UNL     1       1.690   8.648  19.079  0.00  0.00    +0.000 A 
ATOM      5  C   UNL     1       2.129   7.977  17.932  0.00  0.00    +0.000 A 
ATOM      6  C   UNL     1       2.531   6.636  18.016  0.00  0.00    +0.000 A 
ENDROOT
BRANCH   4   7
ATOM      7  C   UNL     1       1.267  10.082  19.068  0.00  0.00    +0.000 C 
ATOM      8  O   UNL     1       1.843  10.875  18.331  0.00  0.00    +0.000 OA
ATOM      9  N   UNL     1       0.250  10.448  19.928  0.00  0.00    +0.000 N 
ATOM     10  H   UNL     1      -0.171   9.760  20.535  0.00  0.00    +0.000 HD
BRANCH   9  11
ATOM     11  C   UNL     1      -0.248  11.817  19.998  0.00  0.00    +0.000 C 
ATOM     12  C   UNL     1      -1.721  11.882  19.594  0.00  0.00    +0.000 C 
ATOM     13  C   UNL     1      -0.057  12.383  21.403  0.00  0.00    +0.000 C 
ENDBRANCH   9  11
ENDBRANCH   4   7
BRANCH   1  14
ATOM     14  N   UNL     1       2.934   4.596  19.280  0.00  0.00    +0.000 N 
BRANCH  14  15
ATOM     15  S   UNL     1       4.573   4.244  19.117  0.00  0.00    +0.000 S 
ATOM     16  C   UNL     1       4.738   3.938  17.366  0.00  0.00    +0.000 C 
ATOM     17  O   UNL     1       5.361   5.418  19.433  0.00  0.00    +0.000 OA
ATOM     18  O   UNL     1       4.821   2.983  19.784  0.00  0.00    +0.000 OA
ENDBRANCH  14  15
BRANCH  14  19
ATOM     19  C   UNL     1       1.947   3.520  19.119  0.00  0.00    +0.000 C 
BRANCH  19  21
ATOM     20  C   UNL     1       1.588   2.732  21.479  0.00  0.00    +0.000 C 
ATOM     21  C   UNL     1       1.157   3.369  20.383  0.00  0.00    +0.000 C 
ENDBRANCH  19  21
ENDBRANCH  14  19
ENDBRANCH   1  14
TORSDOF 6
ENDMDL
