MODEL 1
REMARK VINA RESULT:      -8.1      0.000      0.000
REMARK  Name = 
REMARK  6 active torsions:
REMARK  status: ('A' for Active; 'I' for Inactive)
REMARK    1  A    between atoms: C_2  and  C_3
REMARK    2  A    between atoms: C_3  and  C_4
REMARK    3  A    between atoms: C_4  and  C_5
REMARK    4  A    between atoms: N_11  and  N_12
REMARK    5  A    between atoms: C_13  and  C_15
REMARK    6  A    between atoms: C_15  and  C_16
REMARK                            x       y       z     vdW  Elec       q    Type
REMARK                         _______ _______ _______ _____ _____    ______ ____
ROOT
ATOM      1  O   UNL     1       8.407   7.238  18.841  0.00  0.00    +0.000 OA
ATOM      2  C   UNL     1       7.956   7.969  17.964  0.00  0.00    +0.000 C 
ATOM      3  N   UNL     1       6.986   7.556  17.076  0.00  0.00    +0.000 N 
ATOM      4  H   UNL     1       6.609   8.160  16.350  0.00  0.00    +0.000 HD
ENDROOT
BRANCH   3   5
ATOM      5  N   UNL     1       6.492   6.243  17.103  0.00  0.00    +0.000 N 
ATOM      6  C   UNL     1       5.545   5.925  16.149  0.00  0.00    +0.000 C 
ATOM      7  O   UNL     1       5.144   6.745  15.325  0.00  0.00    +0.000 OA
ATOM      8  H   UNL     1       6.918   5.575  17.742  0.00  0.00    +0.000 HD
BRANCH   6   9
ATOM      9  C   UNL     1       5.011   4.504  16.205  0.00  0.00    +0.000 C 
BRANCH   9  10
ATOM     10  C   UNL     1       3.803   4.344  17.097  0.00  0.00    +0.000 A 
ATOM     11  C   UNL     1       3.323   5.433  17.837  0.00  0.00    +0.000 A 
ATOM     12  C   UNL     1       2.202   5.295  18.657  0.00  0.00    +0.000 A 
ATOM     13  C   UNL     1       1.536   4.074  18.730  0.00  0.00    +0.000 A 
ATOM     14  C   UNL     1       1.990   2.990  17.983  0.00  0.00    +0.000 A 
ATOM     15  C   UNL     1       3.117   3.123  17.170  0.00  0.00    +0.000 A 
ENDBRANCH   9  10
ENDBRANCH   6   9
ENDBRANCH   3   5
BRANCH   2  16
ATOM     16  C   UNL     1       8.368   9.425  17.787  0.00  0.00    +0.000 C 
BRANCH  16  17
ATOM     17  C   UNL     1       9.084   9.952  19.033  0.00  0.00    +0.000 C 
BRANCH  17  18
ATOM     18  C   UNL     1       9.903  11.189  18.746  0.00  0.00    +0.000 A 
ATOM     19  C   UNL     1       9.453  12.144  17.824  0.00  0.00    +0.000 A 
ATOM     20  C   UNL     1      10.239  13.258  17.517  0.00  0.00    +0.000 A 
ATOM     21  C   UNL     1      11.475  13.435  18.138  0.00  0.00    +0.000 A 
ATOM     22  C   UNL     1      11.921  12.504  19.074  0.00  0.00    +0.000 A 
ATOM     23  C   UNL     1      11.141  11.385  19.375  0.00  0.00    +0.000 A 
ENDBRANCH  17  18
ENDBRANCH  16  17
ENDBRANCH   2  16
TORSDOF 6
ENDMDL
MODEL 2
REMARK VINA RESULT:      -8.0      1.546      1.980
REMARK  Name = 
REMARK  6 active torsions:
REMARK  status: ('A' for Active; 'I' for Inactive)
REMARK    1  A    between atoms: C_2  and  C_3
REMARK    2  A    between atoms: C_3  and  C_4
REMARK    3  A    between atoms: C_4  and  C_5
REMARK    4  A    between atoms: N_11  and  N_12
REMARK    5  A    between atoms: C_13  and  C_15
REMARK    6  A    between atoms: C_15  and  C_16
REMARK                            x       y       z     vdW  Elec       q    Type
REMARK                         _______ _______ _______ _____ _____    ______ ____
ROOT
ATOM      1  O   UNL     1       6.996   7.780  16.764  0.00  0.00    +0.000 OA
ATOM      2  C   UNL     1       7.622   7.405  17.752  0.00  0.00    +0.000 C 
ATOM      3  N   UNL     1       7.656   6.088  18.156  0.00  0.00    +0.000 N 
ATOM      4  H   UNL     1       8.175   5.774  18.972  0.00  0.00    +0.000 HD
ENDROOT
BRANCH   3   5
ATOM      5  N   UNL     1       6.925   5.103  17.474  0.00  0.00    +0.000 N 
ATOM      6  C   UNL     1       5.711   4.746  18.028  0.00  0.00    +0.000 C 
ATOM      7  O   UNL     1       5.291   5.253  19.067  0.00  0.00    +0.000 OA
ATOM      8  H   UNL     1       7.269   4.779  16.573  0.00  0.00    +0.000 HD
BRANCH   6   9
ATOM      9  C   UNL     1       4.945   3.666  17.285  0.00  0.00    +0.000 C 
BRANCH   9  10
ATOM     10  C   UNL     1       3.592   3.361  17.881  0.00  0.00    +0.000 A 
ATOM     11  C   UNL     1       2.490   4.174  17.585  0.00  0.00    +0.000 A 
ATOM     12  C   UNL     1       1.234   3.893  18.125  0.00  0.00    +0.000 A 
ATOM     13  C   UNL     1       1.062   2.786  18.952  0.00  0.00    +0.000 A 
ATOM     14  C   UNL     1       2.145   1.957  19.239  0.00  0.00    +0.000 A 
ATOM     15  C   UNL     1       3.404   2.242  18.706  0.00  0.00    +0.000 A 
ENDBRANCH   9  10
ENDBRANCH   6   9
ENDBRANCH   3   5
BRANCH   2  16
ATOM     16  C   UNL     1       8.476   8.331  18.609  0.00  0.00    +0.000 C 
BRANCH  16  17
ATOM     17  C   UNL     1       8.509   9.747  18.030  0.00  0.00    +0.000 C 
BRANCH  17  18
ATOM     18  C   UNL     1       9.496  10.640  18.746  0.00  0.00    +0.000 A 
ATOM     19  C   UNL     1       9.433  10.800  20.137  0.00  0.00    +0.000 A 
ATOM     20  C   UNL     1      10.308  11.672  20.790  0.00  0.00    +0.000 A 
ATOM     21  C   UNL     1      11.262  12.380  20.062  0.00  0.00    +0.000 A 
ATOM     22  C   UNL     1      11.349  12.211  18.681  0.00  0.00    +0.000 A 
ATOM     23  C   UNL     1      10.468  11.348  18.026  0.00  0.00    +0.000 A 
ENDBRANCH  17  18
ENDBRANCH  16  17
ENDBRANCH   2  16
TORSDOF 6
ENDMDL
MODEL 3
REMARK VINA RESULT:      -8.0      1.522      2.081
REMARK  Name = 
REMARK  6 active torsions:
REMARK  status: ('A' for Active; 'I' for Inactive)
REMARK    1  A    between atoms: C_2  and  C_3
REMARK    2  A    between atoms: C_3  and  C_4
REMARK    3  A    between atoms: C_4  and  C_5
REMARK    4  A    between atoms: N_11  and  N_12
REMARK    5  A    between atoms: C_13  and  C_15
REMARK    6  A    between atoms: C_15  and  C_16
REMARK                            x       y       z     vdW  Elec       q    Type
REMARK                         _______ _______ _______ _____ _____    ______ ____
ROOT
ATOM      1  O   UNL     1       7.777   6.854  16.405  0.00  0.00    +0.000 OA
ATOM      2  C   UNL     1       7.500   7.201  17.550  0.00  0.00    +0.000 C 
ATOM      3  N   UNL     1       6.381   6.748  18.215  0.00  0.00    +0.000 N 
ATOM      4  H   UNL     1       6.150   7.032  19.164  0.00  0.00    +0.000 HD
ENDROOT
BRANCH   3   5
ATOM      5  N   UNL     1       5.463   5.892  17.588  0.00  0.00    +0.000 N 
ATOM      6  C   UNL     1       5.564   4.550  17.899  0.00  0.00    +0.000 C 
ATOM      7  O   UNL     1       6.417   4.121  18.674  0.00  0.00    +0.000 OA
ATOM      8  H   UNL     1       4.720   6.303  17.026  0.00  0.00    +0.000 HD
BRANCH   6   9
ATOM      9  C   UNL     1       4.573   3.639  17.197  0.00  0.00    +0.000 C 
BRANCH   9  10
ATOM     10  C   UNL     1       3.330   3.355  18.006  0.00  0.00    +0.000 A 
ATOM     11  C   UNL     1       3.419   2.643  19.210  0.00  0.00    +0.000 A 
ATOM     12  C   UNL     1       2.276   2.384  19.968  0.00  0.00    +0.000 A 
ATOM     13  C   UNL     1       1.035   2.851  19.541  0.00  0.00    +0.000 A 
ATOM     14  C   UNL     1       0.936   3.578  18.357  0.00  0.00    +0.000 A 
ATOM     15  C   UNL     1       2.077   3.830  17.593  0.00  0.00    +0.000 A 
ENDBRANCH   9  10
ENDBRANCH   6   9
ENDBRANCH   3   5
BRANCH   2  16
ATOM     16  C   UNL     1       8.381   8.119  18.388  0.00  0.00    +0.000 C 
BRANCH  16  17
ATOM     17  C   UNL     1       8.242   9.577  17.943  0.00  0.00    +0.000 C 
BRANCH  17  18
ATOM     18  C   UNL     1       9.270  10.477  18.588  0.00  0.00    +0.000 A 
ATOM     19  C   UNL     1      10.242  11.121  17.811  0.00  0.00    +0.000 A 
ATOM     20  C   UNL     1      11.228  11.905  18.415  0.00  0.00    +0.000 A 
ATOM     21  C   UNL     1      11.242  12.066  19.800  0.00  0.00    +0.000 A 
ATOM     22  C   UNL     1      10.265  11.450  20.580  0.00  0.00    +0.000 A 
ATOM     23  C   UNL     1       9.286  10.658  19.978  0.00  0.00    +0.000 A 
ENDBRANCH  17  18
ENDBRANCH  16  17
ENDBRANCH   2  16
TORSDOF 6
ENDMDL
MODEL 4
REMARK VINA RESULT:      -7.9      1.198      1.633
REMARK  Name = 
REMARK  6 active torsions:
REMARK  status: ('A' for Active; 'I' for Inactive)
REMARK    1  A    between atoms: C_2  and  C_3
REMARK    2  A    between atoms: C_3  and  C_4
REMARK    3  A    between atoms: C_4  and  C_5
REMARK    4  A    between atoms: N_11  and  N_12
REMARK    5  A    between atoms: C_13  and  C_15
REMARK    6  A    between atoms: C_15  and  C_16
REMARK                            x       y       z     vdW  Elec       q    Type
REMARK                         _______ _______ _______ _____ _____    ______ ____
ROOT
ATOM      1  O   UNL     1       8.062   6.712  18.565  0.00  0.00    +0.000 OA
ATOM      2  C   UNL     1       7.703   7.574  17.767  0.00  0.00    +0.000 C 
ATOM      3  N   UNL     1       6.874   7.301  16.701  0.00  0.00    +0.000 N 
ATOM      4  H   UNL     1       6.573   8.013  16.039  0.00  0.00    +0.000 HD
ENDROOT
BRANCH   3   5
ATOM      5  N   UNL     1       6.430   5.995  16.443  0.00  0.00    +0.000 N 
ATOM      6  C   UNL     1       5.094   5.742  16.689  0.00  0.00    +0.000 C 
ATOM      7  O   UNL     1       4.333   6.606  17.121  0.00  0.00    +0.000 OA
ATOM      8  H   UNL     1       7.072   5.341  16.003  0.00  0.00    +0.000 HD
BRANCH   6   9
ATOM      9  C   UNL     1       4.638   4.318  16.421  0.00  0.00    +0.000 C 
BRANCH   9  10
ATOM     10  C   UNL     1       3.775   3.740  17.517  0.00  0.00    +0.000 A 
ATOM     11  C   UNL     1       2.401   3.557  17.310  0.00  0.00    +0.000 A 
ATOM     12  C   UNL     1       1.599   3.014  18.315  0.00  0.00    +0.000 A 
ATOM     13  C   UNL     1       2.163   2.631  19.530  0.00  0.00    +0.000 A 
ATOM     14  C   UNL     1       3.532   2.789  19.740  0.00  0.00    +0.000 A 
ATOM     15  C   UNL     1       4.334   3.340  18.739  0.00  0.00    +0.000 A 
ENDBRANCH   9  10
ENDBRANCH   6   9
ENDBRANCH   3   5
BRANCH   2  16
ATOM     16  C   UNL     1       8.080   9.045  17.889  0.00  0.00    +0.000 C 
BRANCH  16  17
ATOM     17  C   UNL     1       9.027   9.276  19.069  0.00  0.00    +0.000 C 
BRANCH  17  18
ATOM     18  C   UNL     1       9.570  10.686  19.105  0.00  0.00    +0.000 A 
ATOM     19  C   UNL     1       9.769  11.342  20.328  0.00  0.00    +0.000 A 
ATOM     20  C   UNL     1      10.214  12.666  20.357  0.00  0.00    +0.000 A 
ATOM     21  C   UNL     1      10.477  13.342  19.167  0.00  0.00    +0.000 A 
ATOM     22  C   UNL     1      10.305  12.692  17.947  0.00  0.00    +0.000 A 
ATOM     23  C   UNL     1       9.851  11.372  17.915  0.00  0.00    +0.000 A 
ENDBRANCH  17  18
ENDBRANCH  16  17
ENDBRANCH   2  16
TORSDOF 6
ENDMDL
MODEL 5
REMARK VINA RESULT:      -7.8      1.328      1.909
REMARK  Name = 
REMARK  6 active torsions:
REMARK  status: ('A' for Active; 'I' for Inactive)
REMARK    1  A    between atoms: C_2  and  C_3
REMARK    2  A    between atoms: C_3  and  C_4
REMARK    3  A    between atoms: C_4  and  C_5
REMARK    4  A    between atoms: N_11  and  N_12
REMARK    5  A    between atoms: C_13  and  C_15
REMARK    6  A    between atoms: C_15  and  C_16
REMARK                            x       y       z     vdW  Elec       q    Type
REMARK                         _______ _______ _______ _____ _____    ______ ____
ROOT
ATOM      1  O   UNL     1       6.150   8.186  17.582  0.00  0.00    +0.000 OA
ATOM      2  C   UNL     1       7.306   7.771  17.576  0.00  0.00    +0.000 C 
ATOM      3  N   UNL     1       7.673   6.598  16.952  0.00  0.00    +0.000 N 
ATOM      4  H   UNL     1       8.629   6.253  16.943  0.00  0.00    +0.000 HD
ENDROOT
BRANCH   3   5
ATOM      5  N   UNL     1       6.719   5.783  16.323  0.00  0.00    +0.000 N 
ATOM      6  C   UNL     1       6.268   4.696  17.047  0.00  0.00    +0.000 C 
ATOM      7  O   UNL     1       6.684   4.444  18.176  0.00  0.00    +0.000 OA
ATOM      8  H   UNL     1       6.338   6.082  15.428  0.00  0.00    +0.000 HD
BRANCH   6   9
ATOM      9  C   UNL     1       5.249   3.818  16.342  0.00  0.00    +0.000 C 
BRANCH   9  10
ATOM     10  C   UNL     1       3.946   3.678  17.091  0.00  0.00    +0.000 A 
ATOM     11  C   UNL     1       3.494   2.414  17.492  0.00  0.00    +0.000 A 
ATOM     12  C   UNL     1       2.295   2.277  18.193  0.00  0.00    +0.000 A 
ATOM     13  C   UNL     1       1.544   3.404  18.518  0.00  0.00    +0.000 A 
ATOM     14  C   UNL     1       1.992   4.669  18.143  0.00  0.00    +0.000 A 
ATOM     15  C   UNL     1       3.187   4.807  17.434  0.00  0.00    +0.000 A 
ENDBRANCH   9  10
ENDBRANCH   6   9
ENDBRANCH   3   5
BRANCH   2  16
ATOM     16  C   UNL     1       8.474   8.523  18.201  0.00  0.00    +0.000 C 
BRANCH  16  17
ATOM     17  C   UNL     1       8.376  10.025  17.925  0.00  0.00    +0.000 C 
BRANCH  17  18
ATOM     18  C   UNL     1       9.489  10.806  18.585  0.00  0.00    +0.000 A 
ATOM     19  C   UNL     1      10.533  11.343  17.820  0.00  0.00    +0.000 A 
ATOM     20  C   UNL     1      11.592  12.014  18.437  0.00  0.00    +0.000 A 
ATOM     21  C   UNL     1      11.610  12.167  19.823  0.00  0.00    +0.000 A 
ATOM     22  C   UNL     1      10.564  11.658  20.591  0.00  0.00    +0.000 A 
ATOM     23  C   UNL     1       9.510  10.979  19.976  0.00  0.00    +0.000 A 
ENDBRANCH  17  18
ENDBRANCH  16  17
ENDBRANCH   2  16
TORSDOF 6
ENDMDL
MODEL 6
REMARK VINA RESULT:      -7.8      1.104      9.491
REMARK  Name = 
REMARK  6 active torsions:
REMARK  status: ('A' for Active; 'I' for Inactive)
REMARK    1  A    between atoms: C_2  and  C_3
REMARK    2  A    between atoms: C_3  and  C_4
REMARK    3  A    between atoms: C_4  and  C_5
REMARK    4  A    between atoms: N_11  and  N_12
REMARK    5  A    between atoms: C_13  and  C_15
REMARK    6  A    between atoms: C_15  and  C_16
REMARK                            x       y       z     vdW  Elec       q    Type
REMARK                         _______ _______ _______ _____ _____    ______ ____
ROOT
ATOM      1  O   UNL     1       4.995   6.717  16.515  0.00  0.00    +0.000 OA
ATOM      2  C   UNL     1       5.939   6.122  17.029  0.00  0.00    +0.000 C 
ATOM      3  N   UNL     1       7.101   6.756  17.407  0.00  0.00    +0.000 N 
ATOM      4  H   UNL     1       7.884   6.267  17.835  0.00  0.00    +0.000 HD
ENDROOT
BRANCH   3   5
ATOM      5  N   UNL     1       7.286   8.128  17.177  0.00  0.00    +0.000 N 
ATOM      6  C   UNL     1       8.159   8.781  18.025  0.00  0.00    +0.000 C 
ATOM      7  O   UNL     1       8.738   8.200  18.942  0.00  0.00    +0.000 OA
ATOM      8  H   UNL     1       6.858   8.545  16.353  0.00  0.00    +0.000 HD
BRANCH   6   9
ATOM      9  C   UNL     1       8.332  10.268  17.769  0.00  0.00    +0.000 C 
BRANCH   9  10
ATOM     10  C   UNL     1       9.502  10.878  18.504  0.00  0.00    +0.000 A 
ATOM     11  C   UNL     1       9.444  11.063  19.892  0.00  0.00    +0.000 A 
ATOM     12  C   UNL     1      10.525  11.619  20.579  0.00  0.00    +0.000 A 
ATOM     13  C   UNL     1      11.681  11.978  19.890  0.00  0.00    +0.000 A 
ATOM     14  C   UNL     1      11.758  11.780  18.513  0.00  0.00    +0.000 A 
ATOM     15  C   UNL     1      10.675  11.233  17.823  0.00  0.00    +0.000 A 
ENDBRANCH   9  10
ENDBRANCH   6   9
ENDBRANCH   3   5
BRANCH   2  16
ATOM     16  C   UNL     1       5.916   4.635  17.360  0.00  0.00    +0.000 C 
BRANCH  16  17
ATOM     17  C   UNL     1       4.867   3.898  16.524  0.00  0.00    +0.000 C 
BRANCH  17  18
ATOM     18  C   UNL     1       3.659   3.496  17.339  0.00  0.00    +0.000 A 
ATOM     19  C   UNL     1       3.562   2.207  17.880  0.00  0.00    +0.000 A 
ATOM     20  C   UNL     1       2.418   1.818  18.583  0.00  0.00    +0.000 A 
ATOM     21  C   UNL     1       1.369   2.718  18.763  0.00  0.00    +0.000 A 
ATOM     22  C   UNL     1       1.466   4.010  18.249  0.00  0.00    +0.000 A 
ATOM     23  C   UNL     1       2.603   4.396  17.538  0.00  0.00    +0.000 A 
ENDBRANCH  17  18
ENDBRANCH  16  17
ENDBRANCH   2  16
TORSDOF 6
ENDMDL
MODEL 7
REMARK VINA RESULT:      -7.7      1.206      1.382
REMARK  Name = 
REMARK  6 active torsions:
REMARK  status: ('A' for Active; 'I' for Inactive)
REMARK    1  A    between atoms: C_2  and  C_3
REMARK    2  A    between atoms: C_3  and  C_4
REMARK    3  A    between atoms: C_4  and  C_5
REMARK    4  A    between atoms: N_11  and  N_12
REMARK    5  A    between atoms: C_13  and  C_15
REMARK    6  A    between atoms: C_15  and  C_16
REMARK                            x       y       z     vdW  Elec       q    Type
REMARK                         _______ _______ _______ _____ _____    ______ ____
ROOT
ATOM      1  O   UNL     1       8.163   6.996  18.736  0.00  0.00    +0.000 OA
ATOM      2  C   UNL     1       7.807   7.839  17.916  0.00  0.00    +0.000 C 
ATOM      3  N   UNL     1       6.775   7.623  17.029  0.00  0.00    +0.000 N 
ATOM      4  H   UNL     1       6.476   8.319  16.350  0.00  0.00    +0.000 HD
ENDROOT
BRANCH   3   5
ATOM      5  N   UNL     1       6.101   6.393  16.986  0.00  0.00    +0.000 N 
ATOM      6  C   UNL     1       6.610   5.445  16.119  0.00  0.00    +0.000 C 
ATOM      7  O   UNL     1       7.593   5.664  15.413  0.00  0.00    +0.000 OA
ATOM      8  H   UNL     1       5.350   6.226  17.652  0.00  0.00    +0.000 HD
BRANCH   6   9
ATOM      9  C   UNL     1       5.856   4.127  16.075  0.00  0.00    +0.000 C 
BRANCH   9  10
ATOM     10  C   UNL     1       4.816   3.985  17.160  0.00  0.00    +0.000 A 
ATOM     11  C   UNL     1       3.453   4.009  16.839  0.00  0.00    +0.000 A 
ATOM     12  C   UNL     1       2.486   3.868  17.836  0.00  0.00    +0.000 A 
ATOM     13  C   UNL     1       2.871   3.684  19.162  0.00  0.00    +0.000 A 
ATOM     14  C   UNL     1       4.224   3.638  19.492  0.00  0.00    +0.000 A 
ATOM     15  C   UNL     1       5.192   3.787  18.497  0.00  0.00    +0.000 A 
ENDBRANCH   9  10
ENDBRANCH   6   9
ENDBRANCH   3   5
BRANCH   2  16
ATOM     16  C   UNL     1       8.417   9.231  17.820  0.00  0.00    +0.000 C 
BRANCH  16  17
ATOM     17  C   UNL     1       8.946   9.698  19.178  0.00  0.00    +0.000 C 
BRANCH  17  18
ATOM     18  C   UNL     1       9.933  10.836  19.053  0.00  0.00    +0.000 A 
ATOM     19  C   UNL     1      10.313  11.313  17.791  0.00  0.00    +0.000 A 
ATOM     20  C   UNL     1      11.269  12.325  17.675  0.00  0.00    +0.000 A 
ATOM     21  C   UNL     1      11.844  12.879  18.818  0.00  0.00    +0.000 A 
ATOM     22  C   UNL     1      11.455  12.428  20.078  0.00  0.00    +0.000 A 
ATOM     23  C   UNL     1      10.507  11.410  20.195  0.00  0.00    +0.000 A 
ENDBRANCH  17  18
ENDBRANCH  16  17
ENDBRANCH   2  16
TORSDOF 6
ENDMDL
MODEL 8
REMARK VINA RESULT:      -7.7      4.912      7.912
REMARK  Name = 
REMARK  6 active torsions:
REMARK  status: ('A' for Active; 'I' for Inactive)
REMARK    1  A    between atoms: C_2  and  C_3
REMARK    2  A    between atoms: C_3  and  C_4
REMARK    3  A    between atoms: C_4  and  C_5
REMARK    4  A    between atoms: N_11  and  N_12
REMARK    5  A    between atoms: C_13  and  C_15
REMARK    6  A    between atoms: C_15  and  C_16
REMARK                            x       y       z     vdW  Elec       q    Type
REMARK                         _______ _______ _______ _____ _____    ______ ____
ROOT
ATOM      1  O   UNL     1       8.219   4.119  17.562  0.00  0.00    +0.000 OA
ATOM      2  C   UNL     1       7.340   4.960  17.728  0.00  0.00    +0.000 C 
ATOM      3  N   UNL     1       6.845   5.733  16.700  0.00  0.00    +0.000 N 
ATOM      4  H   UNL     1       6.116   6.429  16.834  0.00  0.00    +0.000 HD
ENDROOT
BRANCH   3   5
ATOM      5  N   UNL     1       7.364   5.628  15.401  0.00  0.00    +0.000 N 
ATOM      6  C   UNL     1       6.599   4.927  14.490  0.00  0.00    +0.000 C 
ATOM      7  O   UNL     1       5.526   4.410  14.797  0.00  0.00    +0.000 OA
ATOM      8  H   UNL     1       8.208   6.147  15.170  0.00  0.00    +0.000 HD
BRANCH   6   9
ATOM      9  C   UNL     1       7.186   4.810  13.094  0.00  0.00    +0.000 C 
BRANCH   9  10
ATOM     10  C   UNL     1       6.656   3.635  12.308  0.00  0.00    +0.000 A 
ATOM     11  C   UNL     1       7.536   2.667  11.806  0.00  0.00    +0.000 A 
ATOM     12  C   UNL     1       7.053   1.573  11.086  0.00  0.00    +0.000 A 
ATOM     13  C   UNL     1       5.684   1.423  10.878  0.00  0.00    +0.000 A 
ATOM     14  C   UNL     1       4.796   2.368  11.389  0.00  0.00    +0.000 A 
ATOM     15  C   UNL     1       5.278   3.468  12.101  0.00  0.00    +0.000 A 
ENDBRANCH   9  10
ENDBRANCH   6   9
ENDBRANCH   3   5
BRANCH   2  16
ATOM     16  C   UNL     1       6.655   5.210  19.066  0.00  0.00    +0.000 C 
BRANCH  16  17
ATOM     17  C   UNL     1       5.181   5.573  18.873  0.00  0.00    +0.000 C 
BRANCH  17  18
ATOM     18  C   UNL     1       4.321   4.362  18.594  0.00  0.00    +0.000 A 
ATOM     19  C   UNL     1       4.474   3.190  19.347  0.00  0.00    +0.000 A 
ATOM     20  C   UNL     1       3.719   2.053  19.048  0.00  0.00    +0.000 A 
ATOM     21  C   UNL     1       2.796   2.080  18.005  0.00  0.00    +0.000 A 
ATOM     22  C   UNL     1       2.619   3.248  17.265  0.00  0.00    +0.000 A 
ATOM     23  C   UNL     1       3.379   4.382  17.555  0.00  0.00    +0.000 A 
ENDBRANCH  17  18
ENDBRANCH  16  17
ENDBRANCH   2  16
TORSDOF 6
ENDMDL
MODEL 9
REMARK VINA RESULT:      -7.6      1.460      2.125
REMARK  Name = 
REMARK  6 active torsions:
REMARK  status: ('A' for Active; 'I' for Inactive)
REMARK    1  A    between atoms: C_2  and  C_3
REMARK    2  A    between atoms: C_3  and  C_4
REMARK    3  A    between atoms: C_4  and  C_5
REMARK    4  A    between atoms: N_11  and  N_12
REMARK    5  A    between atoms: C_13  and  C_15
REMARK    6  A    between atoms: C_15  and  C_16
REMARK                            x       y       z     vdW  Elec       q    Type
REMARK                         _______ _______ _______ _____ _____    ______ ____
ROOT
ATOM      1  O   UNL     1       7.505   6.701  16.429  0.00  0.00    +0.000 OA
ATOM      2  C   UNL     1       7.423   6.948  17.629  0.00  0.00    +0.000 C 
ATOM      3  N   UNL     1       6.588   6.252  18.476  0.00  0.00    +0.000 N 
ATOM      4  H   UNL     1       6.519   6.452  19.471  0.00  0.00    +0.000 HD
ENDROOT
BRANCH   3   5
ATOM      5  N   UNL     1       5.742   5.243  17.991  0.00  0.00    +0.000 N 
ATOM      6  C   UNL     1       4.464   5.630  17.638  0.00  0.00    +0.000 C 
ATOM      7  O   UNL     1       4.078   6.793  17.750  0.00  0.00    +0.000 OA
ATOM      8  H   UNL     1       6.131   4.316  17.831  0.00  0.00    +0.000 HD
BRANCH   6   9
ATOM      9  C   UNL     1       3.559   4.520  17.133  0.00  0.00    +0.000 C 
BRANCH   9  10
ATOM     10  C   UNL     1       2.681   3.917  18.203  0.00  0.00    +0.000 A 
ATOM     11  C   UNL     1       2.610   2.526  18.355  0.00  0.00    +0.000 A 
ATOM     12  C   UNL     1       1.808   1.961  19.348  0.00  0.00    +0.000 A 
ATOM     13  C   UNL     1       1.084   2.780  20.212  0.00  0.00    +0.000 A 
ATOM     14  C   UNL     1       1.162   4.165  20.083  0.00  0.00    +0.000 A 
ATOM     15  C   UNL     1       1.957   4.732  19.085  0.00  0.00    +0.000 A 
ENDBRANCH   9  10
ENDBRANCH   6   9
ENDBRANCH   3   5
BRANCH   2  16
ATOM     16  C   UNL     1       8.267   8.003  18.332  0.00  0.00    +0.000 C 
BRANCH  16  17
ATOM     17  C   UNL     1       8.129   9.366  17.650  0.00  0.00    +0.000 C 
BRANCH  17  18
ATOM     18  C   UNL     1       8.849  10.462  18.401  0.00  0.00    +0.000 A 
ATOM     19  C   UNL     1       8.974  11.743  17.846  0.00  0.00    +0.000 A 
ATOM     20  C   UNL     1       9.690  12.739  18.515  0.00  0.00    +0.000 A 
ATOM     21  C   UNL     1      10.277  12.468  19.751  0.00  0.00    +0.000 A 
ATOM     22  C   UNL     1      10.138  11.204  20.322  0.00  0.00    +0.000 A 
ATOM     23  C   UNL     1       9.431  10.206  19.650  0.00  0.00    +0.000 A 
ENDBRANCH  17  18
ENDBRANCH  16  17
ENDBRANCH   2  16
TORSDOF 6
ENDMDL
