MODEL 1
REMARK VINA RESULT:      -8.1      0.000      0.000
REMARK  Name = 
REMARK  2 active torsions:
REMARK  status: ('A' for Active; 'I' for Inactive)
REMARK    1  A    between atoms: C_1  and  N_2
REMARK    2  A    between atoms: C_13  and  C_15
REMARK                            x       y       z     vdW  Elec       q    Type
REMARK                         _______ _______ _______ _____ _____    ______ ____
ROOT
ATOM      1  C   UNL     1       4.972   6.425  15.649  0.00  0.00    +0.000 C 
ATOM      2  N   UNL     1       5.667   5.944  16.843  0.00  0.00    +0.000 N 
ATOM      3  C   UNL     1       7.050   5.976  16.836  0.00  0.00    +0.000 C 
ATOM      4  O   UNL     1       7.717   6.114  15.807  0.00  0.00    +0.000 OA
ATOM      5  C   UNL     1       7.728   6.061  18.192  0.00  0.00    +0.000 C 
ATOM      6  C   UNL     1       6.983   5.442  19.358  0.00  0.00    +0.000 C 
ATOM      7  C   UNL     1       5.497   5.741  19.279  0.00  0.00    +0.000 C 
ATOM      8  C   UNL     1       4.903   5.262  17.931  0.00  0.00    +0.000 C 
ATOM      9  C   UNL     1       4.988   3.721  17.753  0.00  0.00    +0.000 C 
ATOM     10  C   UNL     1       4.163   2.966  18.802  0.00  0.00    +0.000 C 
ATOM     11  C   UNL     1       2.709   3.443  18.837  0.00  0.00    +0.000 C 
ATOM     12  N   UNL     1       2.615   4.901  18.929  0.00  0.00    +0.000 N 
ATOM     13  C   UNL     1       1.815   5.465  19.930  0.00  0.00    +0.000 C 
ATOM     14  O   UNL     1       1.260   4.785  20.792  0.00  0.00    +0.000 OA
ATOM     15  C   UNL     1       3.396   5.631  17.926  0.00  0.00    +0.000 C 
ENDROOT
BRANCH  13  16
ATOM     16  C   UNL     1       1.650   6.943  20.030  0.00  0.00    +0.000 A 
ATOM     17  C   UNL     1       1.223   7.580  21.215  0.00  0.00    +0.000 A 
ATOM     18  C   UNL     1       0.926   8.945  21.230  0.00  0.00    +0.000 A 
ATOM     19  C   UNL     1       1.175   9.662  20.082  0.00  0.00    +0.000 A 
ATOM     20  C   UNL     1       1.699   9.070  18.956  0.00  0.00    +0.000 A 
ATOM     21  C   UNL     1       1.941   7.714  18.893  0.00  0.00    +0.000 A 
ATOM     22  O   UNL     1       1.916   9.966  17.958  0.00  0.00    +0.000 OA
ATOM     23  C   UNL     1       1.466  11.187  18.582  0.00  0.00    +0.000 C 
ATOM     24  O   UNL     1       0.963  10.993  19.919  0.00  0.00    +0.000 OA
ENDBRANCH  13  16
TORSDOF 1
ENDMDL
MODEL 2
REMARK VINA RESULT:      -7.9      0.939      1.533
REMARK  Name = 
REMARK  2 active torsions:
REMARK  status: ('A' for Active; 'I' for Inactive)
REMARK    1  A    between atoms: C_1  and  N_2
REMARK    2  A    between atoms: C_13  and  C_15
REMARK                            x       y       z     vdW  Elec       q    Type
REMARK                         _______ _______ _______ _____ _____    ______ ____
ROOT
ATOM      1  C   UNL     1       5.083   4.844  15.651  0.00  0.00    +0.000 C 
ATOM      2  N   UNL     1       5.771   4.854  16.941  0.00  0.00    +0.000 N 
ATOM      3  C   UNL     1       7.154   4.834  16.930  0.00  0.00    +0.000 C 
ATOM      4  O   UNL     1       7.818   4.529  15.936  0.00  0.00    +0.000 OA
ATOM      5  C   UNL     1       7.845   5.429  18.145  0.00  0.00    +0.000 C 
ATOM      6  C   UNL     1       7.090   5.350  19.457  0.00  0.00    +0.000 C 
ATOM      7  C   UNL     1       5.614   5.642  19.256  0.00  0.00    +0.000 C 
ATOM      8  C   UNL     1       4.994   4.688  18.207  0.00  0.00    +0.000 C 
ATOM      9  C   UNL     1       5.026   3.201  18.656  0.00  0.00    +0.000 C 
ATOM     10  C   UNL     1       4.185   2.954  19.915  0.00  0.00    +0.000 C 
ATOM     11  C   UNL     1       2.747   3.454  19.749  0.00  0.00    +0.000 C 
ATOM     12  N   UNL     1       2.703   4.830  19.252  0.00  0.00    +0.000 N 
ATOM     13  C   UNL     1       1.930   5.772  19.942  0.00  0.00    +0.000 C 
ATOM     14  O   UNL     1       1.359   5.511  20.999  0.00  0.00    +0.000 OA
ATOM     15  C   UNL     1       3.500   5.074  18.046  0.00  0.00    +0.000 C 
ENDROOT
BRANCH  13  16
ATOM     16  C   UNL     1       1.815   7.173  19.443  0.00  0.00    +0.000 A 
ATOM     17  C   UNL     1       2.188   7.544  18.133  0.00  0.00    +0.000 A 
ATOM     18  C   UNL     1       2.216   8.887  17.748  0.00  0.00    +0.000 A 
ATOM     19  C   UNL     1       1.759   9.818  18.654  0.00  0.00    +0.000 A 
ATOM     20  C   UNL     1       1.287   9.453  19.893  0.00  0.00    +0.000 A 
ATOM     21  C   UNL     1       1.306   8.142  20.323  0.00  0.00    +0.000 A 
ATOM     22  O   UNL     1       0.836  10.518  20.606  0.00  0.00    +0.000 OA
ATOM     23  C   UNL     1       1.082  11.594  19.676  0.00  0.00    +0.000 C 
ATOM     24  O   UNL     1       1.700  11.159  18.448  0.00  0.00    +0.000 OA
ENDBRANCH  13  16
TORSDOF 1
ENDMDL
MODEL 3
REMARK VINA RESULT:      -7.2      3.513      7.783
REMARK  Name = 
REMARK  2 active torsions:
REMARK  status: ('A' for Active; 'I' for Inactive)
REMARK    1  A    between atoms: C_1  and  N_2
REMARK    2  A    between atoms: C_13  and  C_15
REMARK                            x       y       z     vdW  Elec       q    Type
REMARK                         _______ _______ _______ _____ _____    ______ ____
ROOT
ATOM      1  C   UNL     1       2.757  13.632  20.913  0.00  0.00    +0.000 C 
ATOM      2  N   UNL     1       1.401  13.611  20.367  0.00  0.00    +0.000 N 
ATOM      3  C   UNL     1       0.990  14.707  19.630  0.00  0.00    +0.000 C 
ATOM      4  O   UNL     1       1.579  15.791  19.645  0.00  0.00    +0.000 OA
ATOM      5  C   UNL     1      -0.105  14.458  18.607  0.00  0.00    +0.000 C 
ATOM      6  C   UNL     1      -1.078  13.339  18.920  0.00  0.00    +0.000 C 
ATOM      7  C   UNL     1      -0.360  12.139  19.509  0.00  0.00    +0.000 C 
ATOM      8  C   UNL     1       0.446  12.535  20.770  0.00  0.00    +0.000 C 
ATOM      9  C   UNL     1      -0.460  13.036  21.927  0.00  0.00    +0.000 C 
ATOM     10  C   UNL     1      -1.417  11.949  22.433  0.00  0.00    +0.000 C 
ATOM     11  C   UNL     1      -0.672  10.671  22.825  0.00  0.00    +0.000 C 
ATOM     12  N   UNL     1       0.244  10.229  21.772  0.00  0.00    +0.000 N 
ATOM     13  C   UNL     1       0.172   8.903  21.327  0.00  0.00    +0.000 C 
ATOM     14  O   UNL     1      -0.690   8.120  21.722  0.00  0.00    +0.000 OA
ATOM     15  C   UNL     1       1.165  11.260  21.286  0.00  0.00    +0.000 C 
ENDROOT
BRANCH  13  16
ATOM     16  C   UNL     1       1.118   8.395  20.292  0.00  0.00    +0.000 A 
ATOM     17  C   UNL     1       1.296   9.037  19.048  0.00  0.00    +0.000 A 
ATOM     18  C   UNL     1       2.069   8.451  18.042  0.00  0.00    +0.000 A 
ATOM     19  C   UNL     1       2.738   7.288  18.351  0.00  0.00    +0.000 A 
ATOM     20  C   UNL     1       2.661   6.717  19.600  0.00  0.00    +0.000 A 
ATOM     21  C   UNL     1       1.857   7.239  20.591  0.00  0.00    +0.000 A 
ATOM     22  O   UNL     1       3.440   5.608  19.707  0.00  0.00    +0.000 OA
ATOM     23  C   UNL     1       4.012   5.546  18.383  0.00  0.00    +0.000 C 
ATOM     24  O   UNL     1       3.543   6.592  17.508  0.00  0.00    +0.000 OA
ENDBRANCH  13  16
TORSDOF 1
ENDMDL
MODEL 4
REMARK VINA RESULT:      -7.1      4.534      7.797
REMARK  Name = 
REMARK  2 active torsions:
REMARK  status: ('A' for Active; 'I' for Inactive)
REMARK    1  A    between atoms: C_1  and  N_2
REMARK    2  A    between atoms: C_13  and  C_15
REMARK                            x       y       z     vdW  Elec       q    Type
REMARK                         _______ _______ _______ _____ _____    ______ ____
ROOT
ATOM      1  C   UNL     1       2.010   8.779  18.957  0.00  0.00    +0.000 C 
ATOM      2  N   UNL     1       1.137   9.256  20.029  0.00  0.00    +0.000 N 
ATOM      3  C   UNL     1       0.888   8.395  21.083  0.00  0.00    +0.000 C 
ATOM      4  O   UNL     1       1.120   7.184  21.036  0.00  0.00    +0.000 OA
ATOM      5  C   UNL     1       0.520   9.042  22.407  0.00  0.00    +0.000 C 
ATOM      6  C   UNL     1      -0.186  10.381  22.331  0.00  0.00    +0.000 C 
ATOM      7  C   UNL     1       0.419  11.256  21.248  0.00  0.00    +0.000 C 
ATOM      8  C   UNL     1       0.393  10.542  19.874  0.00  0.00    +0.000 C 
ATOM      9  C   UNL     1      -1.050  10.263  19.371  0.00  0.00    +0.000 C 
ATOM     10  C   UNL     1      -1.842  11.553  19.125  0.00  0.00    +0.000 C 
ATOM     11  C   UNL     1      -1.101  12.509  18.186  0.00  0.00    +0.000 C 
ATOM     12  N   UNL     1       0.285  12.721  18.608  0.00  0.00    +0.000 N 
ATOM     13  C   UNL     1       0.754  14.032  18.750  0.00  0.00    +0.000 C 
ATOM     14  O   UNL     1       0.022  15.013  18.622  0.00  0.00    +0.000 OA
ATOM     15  C   UNL     1       1.051  11.493  18.839  0.00  0.00    +0.000 C 
ENDROOT
BRANCH  13  16
ATOM     16  C   UNL     1       2.173  14.296  19.127  0.00  0.00    +0.000 A 
ATOM     17  C   UNL     1       2.587  14.431  20.469  0.00  0.00    +0.000 A 
ATOM     18  C   UNL     1       3.888  14.834  20.782  0.00  0.00    +0.000 A 
ATOM     19  C   UNL     1       4.775  14.981  19.740  0.00  0.00    +0.000 A 
ATOM     20  C   UNL     1       4.409  14.740  18.436  0.00  0.00    +0.000 A 
ATOM     21  C   UNL     1       3.116  14.403  18.093  0.00  0.00    +0.000 A 
ATOM     22  O   UNL     1       5.449  14.890  17.574  0.00  0.00    +0.000 OA
ATOM     23  C   UNL     1       6.508  15.257  18.483  0.00  0.00    +0.000 C 
ATOM     24  O   UNL     1       6.077  15.349  19.856  0.00  0.00    +0.000 OA
ENDBRANCH  13  16
TORSDOF 1
ENDMDL
MODEL 5
REMARK VINA RESULT:      -7.1      3.203      5.913
REMARK  Name = 
REMARK  2 active torsions:
REMARK  status: ('A' for Active; 'I' for Inactive)
REMARK    1  A    between atoms: C_1  and  N_2
REMARK    2  A    between atoms: C_13  and  C_15
REMARK                            x       y       z     vdW  Elec       q    Type
REMARK                         _______ _______ _______ _____ _____    ______ ____
ROOT
ATOM      1  C   UNL     1       4.707   2.135  20.822  0.00  0.00    +0.000 C 
ATOM      2  N   UNL     1       3.604   3.018  20.446  0.00  0.00    +0.000 N 
ATOM      3  C   UNL     1       2.584   3.196  21.363  0.00  0.00    +0.000 C 
ATOM      4  O   UNL     1       2.412   2.455  22.334  0.00  0.00    +0.000 OA
ATOM      5  C   UNL     1       1.802   4.494  21.256  0.00  0.00    +0.000 C 
ATOM      6  C   UNL     1       1.704   5.111  19.875  0.00  0.00    +0.000 C 
ATOM      7  C   UNL     1       3.025   5.006  19.135  0.00  0.00    +0.000 C 
ATOM      8  C   UNL     1       3.501   3.535  19.047  0.00  0.00    +0.000 C 
ATOM      9  C   UNL     1       2.535   2.641  18.222  0.00  0.00    +0.000 C 
ATOM     10  C   UNL     1       2.442   3.082  16.756  0.00  0.00    +0.000 C 
ATOM     11  C   UNL     1       3.821   3.166  16.096  0.00  0.00    +0.000 C 
ATOM     12  N   UNL     1       4.764   3.944  16.903  0.00  0.00    +0.000 N 
ATOM     13  C   UNL     1       5.473   4.987  16.295  0.00  0.00    +0.000 C 
ATOM     14  O   UNL     1       5.269   5.334  15.132  0.00  0.00    +0.000 OA
ATOM     15  C   UNL     1       4.863   3.526  18.304  0.00  0.00    +0.000 C 
ENDROOT
BRANCH  13  16
ATOM     16  C   UNL     1       6.481   5.771  17.064  0.00  0.00    +0.000 A 
ATOM     17  C   UNL     1       7.331   5.179  18.023  0.00  0.00    +0.000 A 
ATOM     18  C   UNL     1       8.152   5.964  18.837  0.00  0.00    +0.000 A 
ATOM     19  C   UNL     1       8.184   7.318  18.590  0.00  0.00    +0.000 A 
ATOM     20  C   UNL     1       7.444   7.889  17.581  0.00  0.00    +0.000 A 
ATOM     21  C   UNL     1       6.578   7.147  16.804  0.00  0.00    +0.000 A 
ATOM     22  O   UNL     1       7.664   9.226  17.475  0.00  0.00    +0.000 OA
ATOM     23  C   UNL     1       8.623   9.430  18.534  0.00  0.00    +0.000 C 
ATOM     24  O   UNL     1       8.931   8.227  19.267  0.00  0.00    +0.000 OA
ENDBRANCH  13  16
TORSDOF 1
ENDMDL
MODEL 6
REMARK VINA RESULT:      -7.0      8.744     10.675
REMARK  Name = 
REMARK  2 active torsions:
REMARK  status: ('A' for Active; 'I' for Inactive)
REMARK    1  A    between atoms: C_1  and  N_2
REMARK    2  A    between atoms: C_13  and  C_15
REMARK                            x       y       z     vdW  Elec       q    Type
REMARK                         _______ _______ _______ _____ _____    ______ ____
ROOT
ATOM      1  C   UNL     1      10.250  12.997  21.241  0.00  0.00    +0.000 C 
ATOM      2  N   UNL     1      10.788  13.244  19.903  0.00  0.00    +0.000 N 
ATOM      3  C   UNL     1      11.588  12.264  19.343  0.00  0.00    +0.000 C 
ATOM      4  O   UNL     1      12.092  11.348  19.998  0.00  0.00    +0.000 OA
ATOM      5  C   UNL     1      11.643  12.227  17.826  0.00  0.00    +0.000 C 
ATOM      6  C   UNL     1      11.438  13.547  17.111  0.00  0.00    +0.000 C 
ATOM      7  C   UNL     1      10.338  14.360  17.769  0.00  0.00    +0.000 C 
ATOM      8  C   UNL     1      10.636  14.589  19.271  0.00  0.00    +0.000 C 
ATOM      9  C   UNL     1      11.920  15.433  19.505  0.00  0.00    +0.000 C 
ATOM     10  C   UNL     1      11.796  16.852  18.937  0.00  0.00    +0.000 C 
ATOM     11  C   UNL     1      10.554  17.573  19.466  0.00  0.00    +0.000 C 
ATOM     12  N   UNL     1       9.347  16.756  19.321  0.00  0.00    +0.000 N 
ATOM     13  C   UNL     1       8.225  17.315  18.697  0.00  0.00    +0.000 C 
ATOM     14  O   UNL     1       8.242  18.434  18.185  0.00  0.00    +0.000 OA
ATOM     15  C   UNL     1       9.454  15.400  19.865  0.00  0.00    +0.000 C 
ENDROOT
BRANCH  13  16
ATOM     16  C   UNL     1       6.958  16.538  18.573  0.00  0.00    +0.000 A 
ATOM     17  C   UNL     1       6.912  15.252  17.992  0.00  0.00    +0.000 A 
ATOM     18  C   UNL     1       5.690  14.619  17.748  0.00  0.00    +0.000 A 
ATOM     19  C   UNL     1       4.549  15.244  18.197  0.00  0.00    +0.000 A 
ATOM     20  C   UNL     1       4.595  16.445  18.866  0.00  0.00    +0.000 A 
ATOM     21  C   UNL     1       5.780  17.122  19.065  0.00  0.00    +0.000 A 
ATOM     22  O   UNL     1       3.364  16.857  19.269  0.00  0.00    +0.000 OA
ATOM     23  C   UNL     1       2.539  15.781  18.774  0.00  0.00    +0.000 C 
ATOM     24  O   UNL     1       3.283  14.771  18.063  0.00  0.00    +0.000 OA
ENDBRANCH  13  16
TORSDOF 1
ENDMDL
MODEL 7
REMARK VINA RESULT:      -7.0      4.201      8.123
REMARK  Name = 
REMARK  2 active torsions:
REMARK  status: ('A' for Active; 'I' for Inactive)
REMARK    1  A    between atoms: C_1  and  N_2
REMARK    2  A    between atoms: C_13  and  C_15
REMARK                            x       y       z     vdW  Elec       q    Type
REMARK                         _______ _______ _______ _____ _____    ______ ____
ROOT
ATOM      1  C   UNL     1       4.034  14.077  21.631  0.00  0.00    +0.000 C 
ATOM      2  N   UNL     1       3.799  14.547  20.266  0.00  0.00    +0.000 N 
ATOM      3  C   UNL     1       4.754  15.370  19.697  0.00  0.00    +0.000 C 
ATOM      4  O   UNL     1       5.627  15.944  20.353  0.00  0.00    +0.000 OA
ATOM      5  C   UNL     1       4.831  15.363  18.180  0.00  0.00    +0.000 C 
ATOM      6  C   UNL     1       3.542  15.065  17.441  0.00  0.00    +0.000 C 
ATOM      7  C   UNL     1       2.764  13.955  18.125  0.00  0.00    +0.000 C 
ATOM      8  C   UNL     1       2.480  14.304  19.607  0.00  0.00    +0.000 C 
ATOM      9  C   UNL     1       1.570  15.553  19.764  0.00  0.00    +0.000 C 
ATOM     10  C   UNL     1       0.174  15.338  19.167  0.00  0.00    +0.000 C 
ATOM     11  C   UNL     1      -0.501  14.084  19.730  0.00  0.00    +0.000 C 
ATOM     12  N   UNL     1       0.376  12.914  19.657  0.00  0.00    +0.000 N 
ATOM     13  C   UNL     1      -0.112  11.741  19.068  0.00  0.00    +0.000 C 
ATOM     14  O   UNL     1      -1.216  11.683  18.528  0.00  0.00    +0.000 OA
ATOM     15  C   UNL     1       1.710  13.109  20.230  0.00  0.00    +0.000 C 
ENDROOT
BRANCH  13  16
ATOM     16  C   UNL     1       0.727  10.509  19.017  0.00  0.00    +0.000 A 
ATOM     17  C   UNL     1       1.599  10.230  17.943  0.00  0.00    +0.000 A 
ATOM     18  C   UNL     1       2.250   8.997  17.849  0.00  0.00    +0.000 A 
ATOM     19  C   UNL     1       2.100   8.117  18.897  0.00  0.00    +0.000 A 
ATOM     20  C   UNL     1       1.342   8.429  20.002  0.00  0.00    +0.000 A 
ATOM     21  C   UNL     1       0.638   9.611  20.093  0.00  0.00    +0.000 A 
ATOM     22  O   UNL     1       1.372   7.445  20.939  0.00  0.00    +0.000 OA
ATOM     23  C   UNL     1       2.230   6.479  20.296  0.00  0.00    +0.000 C 
ATOM     24  O   UNL     1       2.668   6.887  18.984  0.00  0.00    +0.000 OA
ENDBRANCH  13  16
TORSDOF 1
ENDMDL
MODEL 8
REMARK VINA RESULT:      -7.0      4.137      7.985
REMARK  Name = 
REMARK  2 active torsions:
REMARK  status: ('A' for Active; 'I' for Inactive)
REMARK    1  A    between atoms: C_1  and  N_2
REMARK    2  A    between atoms: C_13  and  C_15
REMARK                            x       y       z     vdW  Elec       q    Type
REMARK                         _______ _______ _______ _____ _____    ______ ____
ROOT
ATOM      1  C   UNL     1       3.693  14.130  21.738  0.00  0.00    +0.000 C 
ATOM      2  N   UNL     1       3.515  14.448  20.322  0.00  0.00    +0.000 N 
ATOM      3  C   UNL     1       4.537  15.129  19.684  0.00  0.00    +0.000 C 
ATOM      4  O   UNL     1       5.438  15.715  20.289  0.00  0.00    +0.000 OA
ATOM      5  C   UNL     1       4.638  14.935  18.181  0.00  0.00    +0.000 C 
ATOM      6  C   UNL     1       3.343  14.641  17.450  0.00  0.00    +0.000 C 
ATOM      7  C   UNL     1       2.477  13.678  18.240  0.00  0.00    +0.000 C 
ATOM      8  C   UNL     1       2.194  14.220  19.663  0.00  0.00    +0.000 C 
ATOM      9  C   UNL     1       1.374  15.540  19.649  0.00  0.00    +0.000 C 
ATOM     10  C   UNL     1      -0.024  15.352  19.046  0.00  0.00    +0.000 C 
ATOM     11  C   UNL     1      -0.797  14.225  19.736  0.00  0.00    +0.000 C 
ATOM     12  N   UNL     1      -0.006  12.996  19.824  0.00  0.00    +0.000 N 
ATOM     13  C   UNL     1      -0.566  11.798  19.365  0.00  0.00    +0.000 C 
ATOM     14  O   UNL     1      -1.663  11.752  18.808  0.00  0.00    +0.000 OA
ATOM     15  C   UNL     1       1.329  13.165  20.403  0.00  0.00    +0.000 C 
ENDROOT
BRANCH  13  16
ATOM     16  C   UNL     1       0.182  10.514  19.481  0.00  0.00    +0.000 A 
ATOM     17  C   UNL     1       0.213   9.761  20.675  0.00  0.00    +0.000 A 
ATOM     18  C   UNL     1       1.049   8.648  20.801  0.00  0.00    +0.000 A 
ATOM     19  C   UNL     1       1.749   8.250  19.684  0.00  0.00    +0.000 A 
ATOM     20  C   UNL     1       1.636   8.912  18.483  0.00  0.00    +0.000 A 
ATOM     21  C   UNL     1       0.869  10.049  18.348  0.00  0.00    +0.000 A 
ATOM     22  O   UNL     1       2.368   8.323  17.501  0.00  0.00    +0.000 OA
ATOM     23  C   UNL     1       2.956   7.219  18.222  0.00  0.00    +0.000 C 
ATOM     24  O   UNL     1       2.592   7.188  19.617  0.00  0.00    +0.000 OA
ENDBRANCH  13  16
TORSDOF 1
ENDMDL
MODEL 9
REMARK VINA RESULT:      -6.9      6.983      9.671
REMARK  Name = 
REMARK  2 active torsions:
REMARK  status: ('A' for Active; 'I' for Inactive)
REMARK    1  A    between atoms: C_1  and  N_2
REMARK    2  A    between atoms: C_13  and  C_15
REMARK                            x       y       z     vdW  Elec       q    Type
REMARK                         _______ _______ _______ _____ _____    ______ ____
ROOT
ATOM      1  C   UNL     1       2.937  15.040  18.440  0.00  0.00    +0.000 C 
ATOM      2  N   UNL     1       1.768  15.900  18.620  0.00  0.00    +0.000 N 
ATOM      3  C   UNL     1       1.734  17.092  17.918  0.00  0.00    +0.000 C 
ATOM      4  O   UNL     1       2.729  17.590  17.386  0.00  0.00    +0.000 OA
ATOM      5  C   UNL     1       0.357  17.662  17.629  0.00  0.00    +0.000 C 
ATOM      6  C   UNL     1      -0.733  17.333  18.629  0.00  0.00    +0.000 C 
ATOM      7  C   UNL     1      -0.637  15.889  19.086  0.00  0.00    +0.000 C 
ATOM      8  C   UNL     1       0.761  15.583  19.677  0.00  0.00    +0.000 C 
ATOM      9  C   UNL     1       1.062  16.406  20.960  0.00  0.00    +0.000 C 
ATOM     10  C   UNL     1       0.101  16.071  22.107  0.00  0.00    +0.000 C 
ATOM     11  C   UNL     1       0.067  14.570  22.405  0.00  0.00    +0.000 C 
ATOM     12  N   UNL     1      -0.140  13.778  21.191  0.00  0.00    +0.000 N 
ATOM     13  C   UNL     1      -1.162  12.821  21.176  0.00  0.00    +0.000 C 
ATOM     14  O   UNL     1      -1.950  12.680  22.110  0.00  0.00    +0.000 OA
ATOM     15  C   UNL     1       0.777  14.088  20.091  0.00  0.00    +0.000 C 
ENDROOT
BRANCH  13  16
ATOM     16  C   UNL     1      -1.377  11.956  19.980  0.00  0.00    +0.000 A 
ATOM     17  C   UNL     1      -0.512  10.890  19.651  0.00  0.00    +0.000 A 
ATOM     18  C   UNL     1      -0.649  10.201  18.443  0.00  0.00    +0.000 A 
ATOM     19  C   UNL     1      -1.723  10.525  17.645  0.00  0.00    +0.000 A 
ATOM     20  C   UNL     1      -2.637  11.485  18.013  0.00  0.00    +0.000 A 
ATOM     21  C   UNL     1      -2.491  12.224  19.169  0.00  0.00    +0.000 A 
ATOM     22  O   UNL     1      -3.645  11.608  17.111  0.00  0.00    +0.000 OA
ATOM     23  C   UNL     1      -3.260  10.619  16.133  0.00  0.00    +0.000 C 
ATOM     24  O   UNL     1      -2.022   9.952  16.451  0.00  0.00    +0.000 OA
ENDBRANCH  13  16
TORSDOF 1
ENDMDL
