MODEL 1
REMARK VINA RESULT:      -6.4      0.000      0.000
REMARK  Name = 
REMARK  7 active torsions:
REMARK  status: ('A' for Active; 'I' for Inactive)
REMARK    1  A    between atoms: C_1  and  C_2
REMARK    2  A    between atoms: C_2  and  O_3
REMARK    3  A    between atoms: O_3  and  C_4
REMARK    4  A    between atoms: C_4  and  C_6
REMARK    5  A    between atoms: C_8  and  N_9
REMARK    6  A    between atoms: C_10  and  C_12
REMARK    7  A    between atoms: C_19  and  C_20
REMARK                            x       y       z     vdW  Elec       q    Type
REMARK                         _______ _______ _______ _____ _____    ______ ____
ROOT
ATOM      1  C   UNL     1       4.298   5.047  17.516  0.00  0.00    +0.000 A 
ATOM      2  S   UNL     1       4.288   6.688  18.006  0.00  0.00    +0.000 S 
ATOM      3  C   UNL     1       2.685   6.630  18.523  0.00  0.00    +0.000 A 
ATOM      4  C   UNL     1       2.128   5.390  18.301  0.00  0.00    +0.000 A 
ATOM      5  C   UNL     1       3.058   4.453  17.727  0.00  0.00    +0.000 A 
ATOM      6  C   UNL     1       2.722   3.025  17.426  0.00  0.00    +0.000 C 
ENDROOT
BRANCH   3   7
ATOM      7  N   UNL     1       2.058   7.728  19.079  0.00  0.00    +0.000 N 
ATOM      8  C   UNL     1       1.711   8.908  18.440  0.00  0.00    +0.000 C 
ATOM      9  O   UNL     1       1.925   9.197  17.267  0.00  0.00    +0.000 OA
ATOM     10  H   UNL     1       1.839   7.680  20.068  0.00  0.00    +0.000 HD
BRANCH   8  11
ATOM     11  C   UNL     1       1.041   9.838  19.328  0.00  0.00    +0.000 A 
ATOM     12  C   UNL     1       0.699  11.167  19.158  0.00  0.00    +0.000 A 
ATOM     13  C   UNL     1       0.040  11.575  20.344  0.00  0.00    +0.000 A 
ATOM     14  C   UNL     1       0.025  10.474  21.168  0.00  0.00    +0.000 A 
ATOM     15 BR   UNL     1      -0.723  10.420  22.877  0.00  0.00    +0.000 Br
ATOM     16  O   UNL     1       0.632   9.416  20.567  0.00  0.00    +0.000 OA
ENDBRANCH   8  11
ENDBRANCH   3   7
BRANCH   1  17
ATOM     17  C   UNL     1       5.524   4.435  17.016  0.00  0.00    +0.000 C 
ATOM     18  O   UNL     1       5.737   4.130  15.847  0.00  0.00    +0.000 OA
BRANCH  17  19
ATOM     19  O   UNL     1       6.372   4.146  18.044  0.00  0.00    +0.000 OA
BRANCH  19  21
ATOM     20  C   UNL     1       7.804   5.903  18.796  0.00  0.00    +0.000 C 
ATOM     21  C   UNL     1       7.704   4.657  17.933  0.00  0.00    +0.000 C 
ENDBRANCH  19  21
ENDBRANCH  17  19
ENDBRANCH   1  17
TORSDOF 5
ENDMDL
MODEL 2
REMARK VINA RESULT:      -6.3      1.369      2.004
REMARK  Name = 
REMARK  7 active torsions:
REMARK  status: ('A' for Active; 'I' for Inactive)
REMARK    1  A    between atoms: C_1  and  C_2
REMARK    2  A    between atoms: C_2  and  O_3
REMARK    3  A    between atoms: O_3  and  C_4
REMARK    4  A    between atoms: C_4  and  C_6
REMARK    5  A    between atoms: C_8  and  N_9
REMARK    6  A    between atoms: C_10  and  C_12
REMARK    7  A    between atoms: C_19  and  C_20
REMARK                            x       y       z     vdW  Elec       q    Type
REMARK                         _______ _______ _______ _____ _____    ______ ____
ROOT
ATOM      1  C   UNL     1       4.994   5.249  17.066  0.00  0.00    +0.000 A 
ATOM      2  S   UNL     1       4.636   6.872  17.482  0.00  0.00    +0.000 S 
ATOM      3  C   UNL     1       3.209   6.461  18.280  0.00  0.00    +0.000 A 
ATOM      4  C   UNL     1       2.966   5.106  18.212  0.00  0.00    +0.000 A 
ATOM      5  C   UNL     1       4.002   4.385  17.520  0.00  0.00    +0.000 A 
ATOM      6  C   UNL     1       4.006   2.898  17.343  0.00  0.00    +0.000 C 
ENDROOT
BRANCH   3   7
ATOM      7  N   UNL     1       2.417   7.411  18.893  0.00  0.00    +0.000 N 
ATOM      8  C   UNL     1       1.955   8.597  18.345  0.00  0.00    +0.000 C 
ATOM      9  O   UNL     1       2.192   9.027  17.221  0.00  0.00    +0.000 OA
ATOM     10  H   UNL     1       2.153   7.237  19.856  0.00  0.00    +0.000 HD
BRANCH   8  11
ATOM     11  C   UNL     1       1.123   9.343  19.270  0.00  0.00    +0.000 A 
ATOM     12  C   UNL     1       0.329  10.459  19.078  0.00  0.00    +0.000 A 
ATOM     13  C   UNL     1      -0.276  10.750  20.325  0.00  0.00    +0.000 A 
ATOM     14  C   UNL     1       0.189   9.800  21.205  0.00  0.00    +0.000 A 
ATOM     15 BR   UNL     1      -0.276   9.685  23.007  0.00  0.00    +0.000 Br
ATOM     16  O   UNL     1       1.041   8.944  20.580  0.00  0.00    +0.000 OA
ENDBRANCH   8  11
ENDBRANCH   3   7
BRANCH   1  17
ATOM     17  C   UNL     1       6.238   4.921  16.381  0.00  0.00    +0.000 C 
ATOM     18  O   UNL     1       7.243   4.466  16.917  0.00  0.00    +0.000 OA
BRANCH  17  19
ATOM     19  O   UNL     1       6.175   5.287  15.068  0.00  0.00    +0.000 OA
BRANCH  19  21
ATOM     20  C   UNL     1       6.440   3.841  13.187  0.00  0.00    +0.000 C 
ATOM     21  C   UNL     1       5.457   4.409  14.196  0.00  0.00    +0.000 C 
ENDBRANCH  19  21
ENDBRANCH  17  19
ENDBRANCH   1  17
TORSDOF 5
ENDMDL
MODEL 3
REMARK VINA RESULT:      -6.2      1.791      2.851
REMARK  Name = 
REMARK  7 active torsions:
REMARK  status: ('A' for Active; 'I' for Inactive)
REMARK    1  A    between atoms: C_1  and  C_2
REMARK    2  A    between atoms: C_2  and  O_3
REMARK    3  A    between atoms: O_3  and  C_4
REMARK    4  A    between atoms: C_4  and  C_6
REMARK    5  A    between atoms: C_8  and  N_9
REMARK    6  A    between atoms: C_10  and  C_12
REMARK    7  A    between atoms: C_19  and  C_20
REMARK                            x       y       z     vdW  Elec       q    Type
REMARK                         _______ _______ _______ _____ _____    ______ ____
ROOT
ATOM      1  C   UNL     1       3.734   4.760  18.755  0.00  0.00    +0.000 A 
ATOM      2  S   UNL     1       2.736   5.570  19.887  0.00  0.00    +0.000 S 
ATOM      3  C   UNL     1       2.709   7.000  18.995  0.00  0.00    +0.000 A 
ATOM      4  C   UNL     1       3.478   6.898  17.856  0.00  0.00    +0.000 A 
ATOM      5  C   UNL     1       4.071   5.596  17.695  0.00  0.00    +0.000 A 
ATOM      6  C   UNL     1       4.917   5.206  16.523  0.00  0.00    +0.000 C 
ENDROOT
BRANCH   3   7
ATOM      7  N   UNL     1       1.999   8.107  19.414  0.00  0.00    +0.000 N 
ATOM      8  C   UNL     1       1.523   9.145  18.627  0.00  0.00    +0.000 C 
ATOM      9  O   UNL     1       1.674   9.277  17.417  0.00  0.00    +0.000 OA
ATOM     10  H   UNL     1       1.814   8.186  20.407  0.00  0.00    +0.000 HD
BRANCH   8  11
ATOM     11  C   UNL     1       0.794  10.132  19.400  0.00  0.00    +0.000 A 
ATOM     12  C   UNL     1       0.377  11.410  19.076  0.00  0.00    +0.000 A 
ATOM     13  C   UNL     1      -0.312  11.914  20.206  0.00  0.00    +0.000 A 
ATOM     14  C   UNL     1      -0.269  10.919  21.154  0.00  0.00    +0.000 A 
ATOM     15 BR   UNL     1      -1.024  11.022  22.857  0.00  0.00    +0.000 Br
ATOM     16  O   UNL     1       0.402   9.835  20.681  0.00  0.00    +0.000 OA
ENDBRANCH   8  11
ENDBRANCH   3   7
BRANCH   1  17
ATOM     17  C   UNL     1       4.072   3.354  18.944  0.00  0.00    +0.000 C 
ATOM     18  O   UNL     1       5.037   2.938  19.576  0.00  0.00    +0.000 OA
BRANCH  17  19
ATOM     19  O   UNL     1       3.225   2.556  18.233  0.00  0.00    +0.000 OA
BRANCH  19  21
ATOM     20  C   UNL     1       0.884   2.448  18.689  0.00  0.00    +0.000 C 
ATOM     21  C   UNL     1       2.243   1.838  18.987  0.00  0.00    +0.000 C 
ENDBRANCH  19  21
ENDBRANCH  17  19
ENDBRANCH   1  17
TORSDOF 5
ENDMDL
MODEL 4
REMARK VINA RESULT:      -6.2      1.704      2.357
REMARK  Name = 
REMARK  7 active torsions:
REMARK  status: ('A' for Active; 'I' for Inactive)
REMARK    1  A    between atoms: C_1  and  C_2
REMARK    2  A    between atoms: C_2  and  O_3
REMARK    3  A    between atoms: O_3  and  C_4
REMARK    4  A    between atoms: C_4  and  C_6
REMARK    5  A    between atoms: C_8  and  N_9
REMARK    6  A    between atoms: C_10  and  C_12
REMARK    7  A    between atoms: C_19  and  C_20
REMARK                            x       y       z     vdW  Elec       q    Type
REMARK                         _______ _______ _______ _____ _____    ______ ____
ROOT
ATOM      1  C   UNL     1       5.140   4.878  16.892  0.00  0.00    +0.000 A 
ATOM      2  S   UNL     1       4.906   6.575  16.927  0.00  0.00    +0.000 S 
ATOM      3  C   UNL     1       3.444   6.459  17.759  0.00  0.00    +0.000 A 
ATOM      4  C   UNL     1       3.097   5.145  17.988  0.00  0.00    +0.000 A 
ATOM      5  C   UNL     1       4.080   4.213  17.500  0.00  0.00    +0.000 A 
ATOM      6  C   UNL     1       3.969   2.729  17.658  0.00  0.00    +0.000 C 
ENDROOT
BRANCH   3   7
ATOM      7  N   UNL     1       2.723   7.578  18.125  0.00  0.00    +0.000 N 
ATOM      8  C   UNL     1       2.082   7.804  19.333  0.00  0.00    +0.000 C 
ATOM      9  O   UNL     1       2.020   7.034  20.286  0.00  0.00    +0.000 OA
ATOM     10  H   UNL     1       2.634   8.314  17.434  0.00  0.00    +0.000 HD
BRANCH   8  11
ATOM     11  C   UNL     1       1.441   9.105  19.381  0.00  0.00    +0.000 A 
ATOM     12  C   UNL     1       1.194  10.031  18.384  0.00  0.00    +0.000 A 
ATOM     13  C   UNL     1       0.518  11.116  18.993  0.00  0.00    +0.000 A 
ATOM     14  C   UNL     1       0.398  10.791  20.325  0.00  0.00    +0.000 A 
ATOM     15 BR   UNL     1      -0.418  11.855  21.622  0.00  0.00    +0.000 Br
ATOM     16  O   UNL     1       0.956   9.577  20.574  0.00  0.00    +0.000 OA
ENDBRANCH   8  11
ENDBRANCH   3   7
BRANCH   1  17
ATOM     17  C   UNL     1       6.361   4.315  16.329  0.00  0.00    +0.000 C 
ATOM     18  O   UNL     1       7.488   4.471  16.785  0.00  0.00    +0.000 OA
BRANCH  17  19
ATOM     19  O   UNL     1       6.097   3.668  15.157  0.00  0.00    +0.000 OA
BRANCH  19  21
ATOM     20  C   UNL     1       6.012   3.538  12.774  0.00  0.00    +0.000 C 
ATOM     21  C   UNL     1       6.590   4.285  13.964  0.00  0.00    +0.000 C 
ENDBRANCH  19  21
ENDBRANCH  17  19
ENDBRANCH   1  17
TORSDOF 5
ENDMDL
MODEL 5
REMARK VINA RESULT:      -6.2      7.054      9.617
REMARK  Name = 
REMARK  7 active torsions:
REMARK  status: ('A' for Active; 'I' for Inactive)
REMARK    1  A    between atoms: C_1  and  C_2
REMARK    2  A    between atoms: C_2  and  O_3
REMARK    3  A    between atoms: O_3  and  C_4
REMARK    4  A    between atoms: C_4  and  C_6
REMARK    5  A    between atoms: C_8  and  N_9
REMARK    6  A    between atoms: C_10  and  C_12
REMARK    7  A    between atoms: C_19  and  C_20
REMARK                            x       y       z     vdW  Elec       q    Type
REMARK                         _______ _______ _______ _____ _____    ______ ____
ROOT
ATOM      1  C   UNL     1      10.462  12.564  19.230  0.00  0.00    +0.000 A 
ATOM      2  S   UNL     1      10.279  11.255  18.140  0.00  0.00    +0.000 S 
ATOM      3  C   UNL     1       9.415  10.321  19.246  0.00  0.00    +0.000 A 
ATOM      4  C   UNL     1       9.285  10.966  20.457  0.00  0.00    +0.000 A 
ATOM      5  C   UNL     1       9.878  12.278  20.459  0.00  0.00    +0.000 A 
ATOM      6  C   UNL     1       9.840  13.206  21.634  0.00  0.00    +0.000 C 
ENDROOT
BRANCH   3   7
ATOM      7  N   UNL     1       8.935   9.068  18.924  0.00  0.00    +0.000 N 
ATOM      8  C   UNL     1       8.016   8.750  17.936  0.00  0.00    +0.000 C 
ATOM      9  O   UNL     1       7.442   9.535  17.188  0.00  0.00    +0.000 OA
ATOM     10  H   UNL     1       9.277   8.289  19.476  0.00  0.00    +0.000 HD
BRANCH   8  11
ATOM     11  C   UNL     1       7.761   7.324  17.860  0.00  0.00    +0.000 A 
ATOM     12  C   UNL     1       7.926   6.322  18.798  0.00  0.00    +0.000 A 
ATOM     13  C   UNL     1       7.499   5.117  18.189  0.00  0.00    +0.000 A 
ATOM     14  C   UNL     1       7.106   5.453  16.914  0.00  0.00    +0.000 A 
ATOM     15 BR   UNL     1       6.442   4.259  15.643  0.00  0.00    +0.000 Br
ATOM     16  O   UNL     1       7.263   6.786  16.700  0.00  0.00    +0.000 OA
ENDBRANCH   8  11
ENDBRANCH   3   7
BRANCH   1  17
ATOM     17  C   UNL     1      11.107  13.798  18.797  0.00  0.00    +0.000 C 
ATOM     18  O   UNL     1      12.157  14.243  19.248  0.00  0.00    +0.000 OA
BRANCH  17  19
ATOM     19  O   UNL     1      10.330  14.455  17.888  0.00  0.00    +0.000 OA
BRANCH  19  21
ATOM     20  C   UNL     1       8.115  15.255  18.284  0.00  0.00    +0.000 C 
ATOM     21  C   UNL     1       9.596  15.583  18.375  0.00  0.00    +0.000 C 
ENDBRANCH  19  21
ENDBRANCH  17  19
ENDBRANCH   1  17
TORSDOF 5
ENDMDL
MODEL 6
REMARK VINA RESULT:      -6.1      5.397      6.317
REMARK  Name = 
REMARK  7 active torsions:
REMARK  status: ('A' for Active; 'I' for Inactive)
REMARK    1  A    between atoms: C_1  and  C_2
REMARK    2  A    between atoms: C_2  and  O_3
REMARK    3  A    between atoms: O_3  and  C_4
REMARK    4  A    between atoms: C_4  and  C_6
REMARK    5  A    between atoms: C_8  and  N_9
REMARK    6  A    between atoms: C_10  and  C_12
REMARK    7  A    between atoms: C_19  and  C_20
REMARK                            x       y       z     vdW  Elec       q    Type
REMARK                         _______ _______ _______ _____ _____    ______ ____
ROOT
ATOM      1  C   UNL     1       4.775   4.582  16.863  0.00  0.00    +0.000 A 
ATOM      2  S   UNL     1       5.083   5.883  17.934  0.00  0.00    +0.000 S 
ATOM      3  C   UNL     1       6.288   6.539  16.953  0.00  0.00    +0.000 A 
ATOM      4  C   UNL     1       6.497   5.769  15.830  0.00  0.00    +0.000 A 
ATOM      5  C   UNL     1       5.616   4.633  15.756  0.00  0.00    +0.000 A 
ATOM      6  C   UNL     1       5.605   3.660  14.618  0.00  0.00    +0.000 C 
ENDROOT
BRANCH   3   7
ATOM      7  N   UNL     1       6.955   7.697  17.295  0.00  0.00    +0.000 N 
ATOM      8  C   UNL     1       7.978   7.833  18.222  0.00  0.00    +0.000 C 
ATOM      9  O   UNL     1       8.454   6.947  18.924  0.00  0.00    +0.000 OA
ATOM     10  H   UNL     1       6.661   8.551  16.835  0.00  0.00    +0.000 HD
BRANCH   8  11
ATOM     11  C   UNL     1       8.465   9.197  18.308  0.00  0.00    +0.000 A 
ATOM     12  C   UNL     1       8.234  10.295  17.499  0.00  0.00    +0.000 A 
ATOM     13  C   UNL     1       8.948  11.378  18.067  0.00  0.00    +0.000 A 
ATOM     14  C   UNL     1       9.576  10.877  19.183  0.00  0.00    +0.000 A 
ATOM     15 BR   UNL     1      10.664  11.859  20.337  0.00  0.00    +0.000 Br
ATOM     16  O   UNL     1       9.296   9.556  19.338  0.00  0.00    +0.000 OA
ENDBRANCH   8  11
ENDBRANCH   3   7
BRANCH   1  17
ATOM     17  C   UNL     1       3.701   3.636  17.143  0.00  0.00    +0.000 C 
ATOM     18  O   UNL     1       2.627   3.590  16.553  0.00  0.00    +0.000 OA
BRANCH  17  19
ATOM     19  O   UNL     1       4.008   2.866  18.227  0.00  0.00    +0.000 OA
BRANCH  19  21
ATOM     20  C   UNL     1       2.110   2.065  19.435  0.00  0.00    +0.000 C 
ATOM     21  C   UNL     1       3.196   1.707  18.435  0.00  0.00    +0.000 C 
ENDBRANCH  19  21
ENDBRANCH  17  19
ENDBRANCH   1  17
TORSDOF 5
ENDMDL
MODEL 7
REMARK VINA RESULT:      -6.1      2.351      3.404
REMARK  Name = 
REMARK  7 active torsions:
REMARK  status: ('A' for Active; 'I' for Inactive)
REMARK    1  A    between atoms: C_1  and  C_2
REMARK    2  A    between atoms: C_2  and  O_3
REMARK    3  A    between atoms: O_3  and  C_4
REMARK    4  A    between atoms: C_4  and  C_6
REMARK    5  A    between atoms: C_8  and  N_9
REMARK    6  A    between atoms: C_10  and  C_12
REMARK    7  A    between atoms: C_19  and  C_20
REMARK                            x       y       z     vdW  Elec       q    Type
REMARK                         _______ _______ _______ _____ _____    ______ ____
ROOT
ATOM      1  C   UNL     1       3.408   4.827  19.255  0.00  0.00    +0.000 A 
ATOM      2  S   UNL     1       2.468   5.255  20.622  0.00  0.00    +0.000 S 
ATOM      3  C   UNL     1       2.220   6.834  20.085  0.00  0.00    +0.000 A 
ATOM      4  C   UNL     1       2.870   7.068  18.893  0.00  0.00    +0.000 A 
ATOM      5  C   UNL     1       3.556   5.906  18.390  0.00  0.00    +0.000 A 
ATOM      6  C   UNL     1       4.303   5.877  17.094  0.00  0.00    +0.000 C 
ENDROOT
BRANCH   3   7
ATOM      7  N   UNL     1       1.463   7.737  20.803  0.00  0.00    +0.000 N 
ATOM      8  C   UNL     1       1.017   8.979  20.380  0.00  0.00    +0.000 C 
ATOM      9  O   UNL     1       1.239   9.509  19.296  0.00  0.00    +0.000 OA
ATOM     10  H   UNL     1       1.216   7.479  21.752  0.00  0.00    +0.000 HD
BRANCH   8  11
ATOM     11  C   UNL     1       0.222   9.652  21.390  0.00  0.00    +0.000 A 
ATOM     12  C   UNL     1      -0.142   9.261  22.666  0.00  0.00    +0.000 A 
ATOM     13  C   UNL     1      -0.906  10.320  23.215  0.00  0.00    +0.000 A 
ATOM     14  C   UNL     1      -0.969  11.289  22.242  0.00  0.00    +0.000 A 
ATOM     15 BR   UNL     1      -1.851  12.925  22.408  0.00  0.00    +0.000 Br
ATOM     16  O   UNL     1      -0.293  10.896  21.129  0.00  0.00    +0.000 OA
ENDBRANCH   8  11
ENDBRANCH   3   7
BRANCH   1  17
ATOM     17  C   UNL     1       3.887   3.459  19.090  0.00  0.00    +0.000 C 
ATOM     18  O   UNL     1       4.918   3.007  19.575  0.00  0.00    +0.000 OA
BRANCH  17  19
ATOM     19  O   UNL     1       3.083   2.768  18.231  0.00  0.00    +0.000 OA
BRANCH  19  21
ATOM     20  C   UNL     1       0.774   2.465  18.757  0.00  0.00    +0.000 C 
ATOM     21  C   UNL     1       2.160   1.849  18.823  0.00  0.00    +0.000 C 
ENDBRANCH  19  21
ENDBRANCH  17  19
ENDBRANCH   1  17
TORSDOF 5
ENDMDL
MODEL 8
REMARK VINA RESULT:      -6.1      2.101      3.051
REMARK  Name = 
REMARK  7 active torsions:
REMARK  status: ('A' for Active; 'I' for Inactive)
REMARK    1  A    between atoms: C_1  and  C_2
REMARK    2  A    between atoms: C_2  and  O_3
REMARK    3  A    between atoms: O_3  and  C_4
REMARK    4  A    between atoms: C_4  and  C_6
REMARK    5  A    between atoms: C_8  and  N_9
REMARK    6  A    between atoms: C_10  and  C_12
REMARK    7  A    between atoms: C_19  and  C_20
REMARK                            x       y       z     vdW  Elec       q    Type
REMARK                         _______ _______ _______ _____ _____    ______ ____
ROOT
ATOM      1  C   UNL     1       3.866   5.032  18.583  0.00  0.00    +0.000 A 
ATOM      2  S   UNL     1       2.734   5.742  19.654  0.00  0.00    +0.000 S 
ATOM      3  C   UNL     1       2.671   7.189  18.790  0.00  0.00    +0.000 A 
ATOM      4  C   UNL     1       3.526   7.169  17.710  0.00  0.00    +0.000 A 
ATOM      5  C   UNL     1       4.220   5.915  17.568  0.00  0.00    +0.000 A 
ATOM      6  C   UNL     1       5.174   5.613  16.454  0.00  0.00    +0.000 C 
ENDROOT
BRANCH   3   7
ATOM      7  N   UNL     1       1.855   8.233  19.177  0.00  0.00    +0.000 N 
ATOM      8  C   UNL     1       1.556   9.376  18.452  0.00  0.00    +0.000 C 
ATOM      9  O   UNL     1       1.988   9.676  17.343  0.00  0.00    +0.000 OA
ATOM     10  H   UNL     1       1.437   8.173  20.098  0.00  0.00    +0.000 HD
BRANCH   8  11
ATOM     11  C   UNL     1       0.641  10.253  19.158  0.00  0.00    +0.000 A 
ATOM     12  C   UNL     1      -0.302   9.983  20.133  0.00  0.00    +0.000 A 
ATOM     13  C   UNL     1      -0.896  11.221  20.481  0.00  0.00    +0.000 A 
ATOM     14  C   UNL     1      -0.286  12.170  19.693  0.00  0.00    +0.000 A 
ATOM     15 BR   UNL     1      -0.668  13.996  19.721  0.00  0.00    +0.000 Br
ATOM     16  O   UNL     1       0.644  11.597  18.884  0.00  0.00    +0.000 OA
ENDBRANCH   8  11
ENDBRANCH   3   7
BRANCH   1  17
ATOM     17  C   UNL     1       4.288   3.648  18.768  0.00  0.00    +0.000 C 
ATOM     18  O   UNL     1       5.190   3.278  19.511  0.00  0.00    +0.000 OA
BRANCH  17  19
ATOM     19  O   UNL     1       3.611   2.820  17.922  0.00  0.00    +0.000 OA
BRANCH  19  21
ATOM     20  C   UNL     1       1.466   2.219  18.783  0.00  0.00    +0.000 C 
ATOM     21  C   UNL     1       2.887   1.745  18.528  0.00  0.00    +0.000 C 
ENDBRANCH  19  21
ENDBRANCH  17  19
ENDBRANCH   1  17
TORSDOF 5
ENDMDL
MODEL 9
REMARK VINA RESULT:      -6.0      2.570      3.688
REMARK  Name = 
REMARK  7 active torsions:
REMARK  status: ('A' for Active; 'I' for Inactive)
REMARK    1  A    between atoms: C_1  and  C_2
REMARK    2  A    between atoms: C_2  and  O_3
REMARK    3  A    between atoms: O_3  and  C_4
REMARK    4  A    between atoms: C_4  and  C_6
REMARK    5  A    between atoms: C_8  and  N_9
REMARK    6  A    between atoms: C_10  and  C_12
REMARK    7  A    between atoms: C_19  and  C_20
REMARK                            x       y       z     vdW  Elec       q    Type
REMARK                         _______ _______ _______ _____ _____    ______ ____
ROOT
ATOM      1  C   UNL     1       6.202   5.366  16.021  0.00  0.00    +0.000 A 
ATOM      2  S   UNL     1       4.752   6.278  15.997  0.00  0.00    +0.000 S 
ATOM      3  C   UNL     1       4.721   6.465  17.672  0.00  0.00    +0.000 A 
ATOM      4  C   UNL     1       5.778   5.814  18.271  0.00  0.00    +0.000 A 
ATOM      5  C   UNL     1       6.656   5.180  17.322  0.00  0.00    +0.000 A 
ATOM      6  C   UNL     1       7.902   4.443  17.704  0.00  0.00    +0.000 C 
ENDROOT
BRANCH   3   7
ATOM      7  N   UNL     1       3.726   7.179  18.308  0.00  0.00    +0.000 N 
ATOM      8  C   UNL     1       2.847   6.715  19.274  0.00  0.00    +0.000 C 
ATOM      9  O   UNL     1       2.781   5.573  19.718  0.00  0.00    +0.000 OA
ATOM     10  H   UNL     1       3.607   8.147  18.032  0.00  0.00    +0.000 HD
BRANCH   8  11
ATOM     11  C   UNL     1       1.946   7.751  19.742  0.00  0.00    +0.000 A 
ATOM     12  C   UNL     1       1.292   7.905  20.951  0.00  0.00    +0.000 A 
ATOM     13  C   UNL     1       0.556   9.112  20.866  0.00  0.00    +0.000 A 
ATOM     14  C   UNL     1       0.799   9.619  19.611  0.00  0.00    +0.000 A 
ATOM     15 BR   UNL     1       0.090  11.208  18.936  0.00  0.00    +0.000 Br
ATOM     16  O   UNL     1       1.636   8.802  18.917  0.00  0.00    +0.000 OA
ENDBRANCH   8  11
ENDBRANCH   3   7
BRANCH   1  17
ATOM     17  C   UNL     1       6.827   4.945  14.773  0.00  0.00    +0.000 C 
ATOM     18  O   UNL     1       7.870   5.399  14.315  0.00  0.00    +0.000 OA
BRANCH  17  19
ATOM     19  O   UNL     1       6.040   4.041  14.120  0.00  0.00    +0.000 OA
BRANCH  19  21
ATOM     20  C   UNL     1       5.216   3.256  12.021  0.00  0.00    +0.000 C 
ATOM     21  C   UNL     1       6.451   3.674  12.800  0.00  0.00    +0.000 C 
ENDBRANCH  19  21
ENDBRANCH  17  19
ENDBRANCH   1  17
TORSDOF 5
ENDMDL
