MODEL 1
REMARK VINA RESULT:      -7.4      0.000      0.000
REMARK  Name = 
REMARK  7 active torsions:
REMARK  status: ('A' for Active; 'I' for Inactive)
REMARK    1  A    between atoms: C_1  and  O_2
REMARK    2  A    between atoms: O_2  and  C_3
REMARK    3  A    between atoms: C_6  and  C_7
REMARK    4  A    between atoms: C_10  and  N_11
REMARK    5  A    between atoms: N_11  and  C_12
REMARK    6  A    between atoms: C_20  and  C_21
REMARK    7  A    between atoms: N_26  and  C_27
REMARK                            x       y       z     vdW  Elec       q    Type
REMARK                         _______ _______ _______ _____ _____    ______ ____
ROOT
ATOM      1  C   UNL     1      -2.451  12.683  19.863  0.00  0.00    +0.000 A 
ATOM      2  N   UNL     1      -3.752  12.563  19.533  0.00  0.00    +0.000 NA
ATOM      3  N   UNL     1      -3.777  11.975  18.296  0.00  0.00    +0.000 N 
ATOM      4  C   UNL     1      -4.941  11.607  17.532  0.00  0.00    +0.000 A 
ATOM      5  C   UNL     1      -4.742  10.950  16.368  0.00  0.00    +0.000 A 
ATOM      6  C   UNL     1      -3.405  10.664  15.900  0.00  0.00    +0.000 A 
ATOM      7 CL   UNL     1      -3.228   9.799  14.419  0.00  0.00    +0.000 Cl
ATOM      8  C   UNL     1      -2.325  11.066  16.585  0.00  0.00    +0.000 A 
ATOM      9  C   UNL     1      -2.478  11.724  17.842  0.00  0.00    +0.000 A 
ATOM     10  C   UNL     1      -1.610  12.227  18.792  0.00  0.00    +0.000 A 
ENDROOT
BRANCH  10  11
ATOM     11  C   UNL     1      -0.158  12.261  18.650  0.00  0.00    +0.000 A 
ATOM     12  C   UNL     1       0.547  13.442  18.584  0.00  0.00    +0.000 A 
ATOM     13  C   UNL     1       1.908  13.312  18.469  0.00  0.00    +0.000 A 
ATOM     14  N   UNL     1       2.528  12.131  18.332  0.00  0.00    +0.000 NA
ATOM     15  C   UNL     1       1.755  11.037  18.327  0.00  0.00    +0.000 A 
ATOM     16  N   UNL     1       2.389   9.867  17.977  0.00  0.00    +0.000 N 
ATOM     17  N   UNL     1       0.436  11.059  18.538  0.00  0.00    +0.000 NA
ATOM     18  H   UNL     1       3.388   9.995  18.066  0.00  0.00    +0.000 HD
BRANCH  16  19
ATOM     19  C   UNL     1       1.828   8.608  18.415  0.00  0.00    +0.000 C 
ATOM     20  C   UNL     1       2.754   7.462  18.014  0.00  0.00    +0.000 C 
ATOM     21  C   UNL     1       2.372   6.332  18.957  0.00  0.00    +0.000 C 
ATOM     22  C   UNL     1       1.891   7.008  20.241  0.00  0.00    +0.000 C 
ATOM     23  C   UNL     1       1.798   8.501  19.938  0.00  0.00    +0.000 C 
ENDBRANCH  16  19
ENDBRANCH  10  11
BRANCH   1  27
ATOM     24  C   UNL     1      -1.298  14.213  23.736  0.00  0.00    +0.000 A 
ATOM     25  C   UNL     1      -1.370  15.051  22.630  0.00  0.00    +0.000 A 
ATOM     26  C   UNL     1      -1.719  14.544  21.375  0.00  0.00    +0.000 A 
ATOM     27  C   UNL     1      -2.041  13.192  21.193  0.00  0.00    +0.000 A 
ATOM     28  C   UNL     1      -1.940  12.347  22.310  0.00  0.00    +0.000 A 
ATOM     29  C   UNL     1      -1.568  12.853  23.574  0.00  0.00    +0.000 A 
BRANCH  24  31
ATOM     30  C   UNL     1      -1.903  15.590  25.566  0.00  0.00    +0.000 C 
ATOM     31  O   UNL     1      -0.911  14.832  24.890  0.00  0.00    +0.000 OA
ENDBRANCH  24  31
ENDBRANCH   1  27
BRANCH   4  32
ATOM     32  N   UNL     1      -6.197  11.969  18.029  0.00  0.00    +0.000 N 
ATOM     33  H   UNL     1      -6.152  12.873  18.510  0.00  0.00    +0.000 HD
BRANCH  32  34
ATOM     34  C   UNL     1      -7.089  10.940  18.575  0.00  0.00    +0.000 C 
ATOM     35  C   UNL     1      -6.540   9.745  19.307  0.00  0.00    +0.000 C 
ATOM     36  C   UNL     1      -7.309  10.787  20.057  0.00  0.00    +0.000 C 
ENDBRANCH  32  34
ENDBRANCH   4  32
TORSDOF 6
ENDMDL
MODEL 2
REMARK VINA RESULT:      -7.1      2.064      3.604
REMARK  Name = 
REMARK  7 active torsions:
REMARK  status: ('A' for Active; 'I' for Inactive)
REMARK    1  A    between atoms: C_1  and  O_2
REMARK    2  A    between atoms: O_2  and  C_3
REMARK    3  A    between atoms: C_6  and  C_7
REMARK    4  A    between atoms: C_10  and  N_11
REMARK    5  A    between atoms: N_11  and  C_12
REMARK    6  A    between atoms: C_20  and  C_21
REMARK    7  A    between atoms: N_26  and  C_27
REMARK                            x       y       z     vdW  Elec       q    Type
REMARK                         _______ _______ _______ _____ _____    ______ ____
ROOT
ATOM      1  C   UNL     1      -3.104  12.786  20.579  0.00  0.00    +0.000 A 
ATOM      2  N   UNL     1      -4.187  12.947  19.794  0.00  0.00    +0.000 NA
ATOM      3  N   UNL     1      -3.935  12.238  18.649  0.00  0.00    +0.000 N 
ATOM      4  C   UNL     1      -4.810  12.075  17.517  0.00  0.00    +0.000 A 
ATOM      5  C   UNL     1      -4.401  11.253  16.524  0.00  0.00    +0.000 A 
ATOM      6  C   UNL     1      -3.116  10.597  16.591  0.00  0.00    +0.000 A 
ATOM      7 CL   UNL     1      -2.671   9.543  15.301  0.00  0.00    +0.000 Cl
ATOM      8  C   UNL     1      -2.279  10.805  17.618  0.00  0.00    +0.000 A 
ATOM      9  C   UNL     1      -2.679  11.626  18.714  0.00  0.00    +0.000 A 
ATOM     10  C   UNL     1      -2.098  12.014  19.906  0.00  0.00    +0.000 A 
ENDROOT
BRANCH  10  11
ATOM     11  C   UNL     1      -0.737  11.677  20.310  0.00  0.00    +0.000 A 
ATOM     12  C   UNL     1      -0.429  10.496  20.948  0.00  0.00    +0.000 A 
ATOM     13  C   UNL     1       0.897  10.315  21.248  0.00  0.00    +0.000 A 
ATOM     14  N   UNL     1       1.837  11.247  21.033  0.00  0.00    +0.000 NA
ATOM     15  C   UNL     1       1.434  12.399  20.480  0.00  0.00    +0.000 A 
ATOM     16  N   UNL     1       2.371  13.406  20.464  0.00  0.00    +0.000 N 
ATOM     17  N   UNL     1       0.187  12.624  20.060  0.00  0.00    +0.000 NA
ATOM     18  H   UNL     1       3.288  13.006  20.613  0.00  0.00    +0.000 HD
BRANCH  16  19
ATOM     19  C   UNL     1       2.247  14.463  19.485  0.00  0.00    +0.000 C 
ATOM     20  C   UNL     1       2.968  15.715  19.981  0.00  0.00    +0.000 C 
ATOM     21  C   UNL     1       3.235  16.512  18.714  0.00  0.00    +0.000 C 
ATOM     22  C   UNL     1       3.391  15.479  17.599  0.00  0.00    +0.000 C 
ATOM     23  C   UNL     1       2.995  14.131  18.196  0.00  0.00    +0.000 C 
ENDBRANCH  16  19
ENDBRANCH  10  11
BRANCH   1  27
ATOM     24  C   UNL     1      -3.013  14.446  24.567  0.00  0.00    +0.000 A 
ATOM     25  C   UNL     1      -2.422  15.115  23.502  0.00  0.00    +0.000 A 
ATOM     26  C   UNL     1      -2.435  14.560  22.219  0.00  0.00    +0.000 A 
ATOM     27  C   UNL     1      -3.066  13.337  21.954  0.00  0.00    +0.000 A 
ATOM     28  C   UNL     1      -3.636  12.655  23.041  0.00  0.00    +0.000 A 
ATOM     29  C   UNL     1      -3.608  13.204  24.341  0.00  0.00    +0.000 A 
BRANCH  24  31
ATOM     30  C   UNL     1      -1.616  15.600  26.092  0.00  0.00    +0.000 C 
ATOM     31  O   UNL     1      -2.898  15.084  25.769  0.00  0.00    +0.000 OA
ENDBRANCH  24  31
ENDBRANCH   1  27
BRANCH   4  32
ATOM     32  N   UNL     1      -6.013  12.788  17.506  0.00  0.00    +0.000 N 
ATOM     33  H   UNL     1      -5.849  13.782  17.698  0.00  0.00    +0.000 HD
BRANCH  32  34
ATOM     34  C   UNL     1      -7.231  12.171  18.043  0.00  0.00    +0.000 C 
ATOM     35  C   UNL     1      -7.158  11.052  19.047  0.00  0.00    +0.000 C 
ATOM     36  C   UNL     1      -7.671  12.395  19.465  0.00  0.00    +0.000 C 
ENDBRANCH  32  34
ENDBRANCH   4  32
TORSDOF 6
ENDMDL
MODEL 3
REMARK VINA RESULT:      -7.1      3.412      5.671
REMARK  Name = 
REMARK  7 active torsions:
REMARK  status: ('A' for Active; 'I' for Inactive)
REMARK    1  A    between atoms: C_1  and  O_2
REMARK    2  A    between atoms: O_2  and  C_3
REMARK    3  A    between atoms: C_6  and  C_7
REMARK    4  A    between atoms: C_10  and  N_11
REMARK    5  A    between atoms: N_11  and  C_12
REMARK    6  A    between atoms: C_20  and  C_21
REMARK    7  A    between atoms: N_26  and  C_27
REMARK                            x       y       z     vdW  Elec       q    Type
REMARK                         _______ _______ _______ _____ _____    ______ ____
ROOT
ATOM      1  C   UNL     1      -2.915  12.118  19.826  0.00  0.00    +0.000 A 
ATOM      2  N   UNL     1      -3.884  12.121  20.763  0.00  0.00    +0.000 NA
ATOM      3  N   UNL     1      -3.367  12.791  21.840  0.00  0.00    +0.000 N 
ATOM      4  C   UNL     1      -4.034  13.085  23.082  0.00  0.00    +0.000 A 
ATOM      5  C   UNL     1      -3.370  13.843  23.984  0.00  0.00    +0.000 A 
ATOM      6  C   UNL     1      -2.028  14.305  23.715  0.00  0.00    +0.000 A 
ATOM      7 CL   UNL     1      -1.252  15.289  24.899  0.00  0.00    +0.000 Cl
ATOM      8  C   UNL     1      -1.389  13.973  22.584  0.00  0.00    +0.000 A 
ATOM      9  C   UNL     1      -2.060  13.213  21.578  0.00  0.00    +0.000 A 
ATOM     10  C   UNL     1      -1.722  12.739  20.325  0.00  0.00    +0.000 A 
ENDROOT
BRANCH  10  11
ATOM     11  C   UNL     1      -0.401  12.872  19.720  0.00  0.00    +0.000 A 
ATOM     12  C   UNL     1       0.223  14.092  19.575  0.00  0.00    +0.000 A 
ATOM     13  C   UNL     1       1.471  14.053  19.005  0.00  0.00    +0.000 A 
ATOM     14  N   UNL     1       2.029  12.932  18.525  0.00  0.00    +0.000 NA
ATOM     15  C   UNL     1       1.315  11.804  18.636  0.00  0.00    +0.000 A 
ATOM     16  N   UNL     1       1.816  10.718  17.954  0.00  0.00    +0.000 N 
ATOM     17  N   UNL     1       0.142  11.726  19.269  0.00  0.00    +0.000 NA
ATOM     18  H   UNL     1       2.786  10.892  17.725  0.00  0.00    +0.000 HD
BRANCH  16  19
ATOM     19  C   UNL     1       1.453   9.388  18.390  0.00  0.00    +0.000 C 
ATOM     20  C   UNL     1       2.483   8.380  17.885  0.00  0.00    +0.000 C 
ATOM     21  C   UNL     1       2.319   7.188  18.816  0.00  0.00    +0.000 C 
ATOM     22  C   UNL     1       1.857   7.767  20.153  0.00  0.00    +0.000 C 
ATOM     23  C   UNL     1       1.553   9.243  19.906  0.00  0.00    +0.000 C 
ENDBRANCH  16  19
ENDBRANCH  10  11
BRANCH   1  27
ATOM     24  C   UNL     1      -3.638  10.551  15.864  0.00  0.00    +0.000 A 
ATOM     25  C   UNL     1      -4.543  11.420  16.464  0.00  0.00    +0.000 A 
ATOM     26  C   UNL     1      -4.314  11.903  17.755  0.00  0.00    +0.000 A 
ATOM     27  C   UNL     1      -3.159  11.562  18.474  0.00  0.00    +0.000 A 
ATOM     28  C   UNL     1      -2.265  10.663  17.871  0.00  0.00    +0.000 A 
ATOM     29  C   UNL     1      -2.504  10.158  16.575  0.00  0.00    +0.000 A 
BRANCH  24  31
ATOM     30  C   UNL     1      -2.949   9.876  13.701  0.00  0.00    +0.000 C 
ATOM     31  O   UNL     1      -4.002  10.130  14.617  0.00  0.00    +0.000 OA
ENDBRANCH  24  31
ENDBRANCH   1  27
BRANCH   4  32
ATOM     32  N   UNL     1      -5.311  12.554  23.286  0.00  0.00    +0.000 N 
ATOM     33  H   UNL     1      -5.378  11.607  22.901  0.00  0.00    +0.000 HD
BRANCH  32  34
ATOM     34  C   UNL     1      -6.488  13.426  23.184  0.00  0.00    +0.000 C 
ATOM     35  C   UNL     1      -7.873  12.851  23.063  0.00  0.00    +0.000 C 
ATOM     36  C   UNL     1      -7.471  13.565  24.316  0.00  0.00    +0.000 C 
ENDBRANCH  32  34
ENDBRANCH   4  32
TORSDOF 6
ENDMDL
MODEL 4
REMARK VINA RESULT:      -7.1      3.439      8.289
REMARK  Name = 
REMARK  7 active torsions:
REMARK  status: ('A' for Active; 'I' for Inactive)
REMARK    1  A    between atoms: C_1  and  O_2
REMARK    2  A    between atoms: O_2  and  C_3
REMARK    3  A    between atoms: C_6  and  C_7
REMARK    4  A    between atoms: C_10  and  N_11
REMARK    5  A    between atoms: N_11  and  C_12
REMARK    6  A    between atoms: C_20  and  C_21
REMARK    7  A    between atoms: N_26  and  C_27
REMARK                            x       y       z     vdW  Elec       q    Type
REMARK                         _______ _______ _______ _____ _____    ______ ____
ROOT
ATOM      1  C   UNL     1       1.195  11.305  18.950  0.00  0.00    +0.000 A 
ATOM      2  N   UNL     1       2.177  12.215  19.098  0.00  0.00    +0.000 NA
ATOM      3  N   UNL     1       1.579  13.441  18.981  0.00  0.00    +0.000 N 
ATOM      4  C   UNL     1       2.208  14.732  19.099  0.00  0.00    +0.000 A 
ATOM      5  C   UNL     1       1.412  15.823  19.042  0.00  0.00    +0.000 A 
ATOM      6  C   UNL     1      -0.011  15.689  18.834  0.00  0.00    +0.000 A 
ATOM      7 CL   UNL     1      -0.968  17.123  18.799  0.00  0.00    +0.000 Cl
ATOM      8  C   UNL     1      -0.581  14.488  18.661  0.00  0.00    +0.000 A 
ATOM      9  C   UNL     1       0.205  13.301  18.757  0.00  0.00    +0.000 A 
ATOM     10  C   UNL     1      -0.056  11.947  18.666  0.00  0.00    +0.000 A 
ENDROOT
BRANCH  10  11
ATOM     11  C   UNL     1      -1.357  11.377  18.330  0.00  0.00    +0.000 A 
ATOM     12  C   UNL     1      -1.498  10.340  17.435  0.00  0.00    +0.000 A 
ATOM     13  C   UNL     1      -2.782   9.900  17.238  0.00  0.00    +0.000 A 
ATOM     14  N   UNL     1      -3.856  10.482  17.791  0.00  0.00    +0.000 NA
ATOM     15  C   UNL     1      -3.631  11.537  18.586  0.00  0.00    +0.000 A 
ATOM     16  N   UNL     1      -4.752  12.239  18.968  0.00  0.00    +0.000 N 
ATOM     17  N   UNL     1      -2.412  11.970  18.919  0.00  0.00    +0.000 NA
ATOM     18  H   UNL     1      -5.569  11.663  18.813  0.00  0.00    +0.000 HD
BRANCH  16  19
ATOM     19  C   UNL     1      -4.704  13.033  20.175  0.00  0.00    +0.000 C 
ATOM     20  C   UNL     1      -5.356  14.391  19.927  0.00  0.00    +0.000 C 
ATOM     21  C   UNL     1      -5.728  14.881  21.317  0.00  0.00    +0.000 C 
ATOM     22  C   UNL     1      -6.004  13.623  22.140  0.00  0.00    +0.000 C 
ATOM     23  C   UNL     1      -5.575  12.438  21.279  0.00  0.00    +0.000 C 
ENDBRANCH  16  19
ENDBRANCH  10  11
BRANCH   1  27
ATOM     24  C   UNL     1       2.029   7.090  19.416  0.00  0.00    +0.000 A 
ATOM     25  C   UNL     1       2.265   7.736  18.208  0.00  0.00    +0.000 A 
ATOM     26  C   UNL     1       1.970   9.093  18.058  0.00  0.00    +0.000 A 
ATOM     27  C   UNL     1       1.462   9.857  19.118  0.00  0.00    +0.000 A 
ATOM     28  C   UNL     1       1.201   9.191  20.327  0.00  0.00    +0.000 A 
ATOM     29  C   UNL     1       1.480   7.815  20.475  0.00  0.00    +0.000 A 
BRANCH  24  31
ATOM     30  C   UNL     1       2.334   5.112  18.150  0.00  0.00    +0.000 C 
ATOM     31  O   UNL     1       2.329   5.758  19.413  0.00  0.00    +0.000 OA
ENDBRANCH  24  31
ENDBRANCH   1  27
BRANCH   4  32
ATOM     32  N   UNL     1       3.598  14.775  19.243  0.00  0.00    +0.000 N 
ATOM     33  H   UNL     1       3.859  14.912  20.225  0.00  0.00    +0.000 HD
BRANCH  32  34
ATOM     34  C   UNL     1       4.417  15.425  18.214  0.00  0.00    +0.000 C 
ATOM     35  C   UNL     1       5.631  16.234  18.583  0.00  0.00    +0.000 C 
ATOM     36  C   UNL     1       5.796  14.929  17.868  0.00  0.00    +0.000 C 
ENDBRANCH  32  34
ENDBRANCH   4  32
TORSDOF 6
ENDMDL
MODEL 5
REMARK VINA RESULT:      -7.0      0.868      1.116
REMARK  Name = 
REMARK  7 active torsions:
REMARK  status: ('A' for Active; 'I' for Inactive)
REMARK    1  A    between atoms: C_1  and  O_2
REMARK    2  A    between atoms: O_2  and  C_3
REMARK    3  A    between atoms: C_6  and  C_7
REMARK    4  A    between atoms: C_10  and  N_11
REMARK    5  A    between atoms: N_11  and  C_12
REMARK    6  A    between atoms: C_20  and  C_21
REMARK    7  A    between atoms: N_26  and  C_27
REMARK                            x       y       z     vdW  Elec       q    Type
REMARK                         _______ _______ _______ _____ _____    ______ ____
ROOT
ATOM      1  C   UNL     1      -2.486  12.691  19.936  0.00  0.00    +0.000 A 
ATOM      2  N   UNL     1      -3.790  12.525  19.640  0.00  0.00    +0.000 NA
ATOM      3  N   UNL     1      -3.826  11.921  18.411  0.00  0.00    +0.000 N 
ATOM      4  C   UNL     1      -4.995  11.506  17.679  0.00  0.00    +0.000 A 
ATOM      5  C   UNL     1      -4.802  10.840  16.518  0.00  0.00    +0.000 A 
ATOM      6  C   UNL     1      -3.468  10.591  16.022  0.00  0.00    +0.000 A 
ATOM      7 CL   UNL     1      -3.298   9.714  14.548  0.00  0.00    +0.000 Cl
ATOM      8  C   UNL     1      -2.386  11.037  16.676  0.00  0.00    +0.000 A 
ATOM      9  C   UNL     1      -2.530  11.705  17.929  0.00  0.00    +0.000 A 
ATOM     10  C   UNL     1      -1.657  12.248  18.852  0.00  0.00    +0.000 A 
ENDROOT
BRANCH  10  11
ATOM     11  C   UNL     1      -0.211  12.327  18.674  0.00  0.00    +0.000 A 
ATOM     12  C   UNL     1       0.461  13.528  18.629  0.00  0.00    +0.000 A 
ATOM     13  C   UNL     1       1.821  13.440  18.477  0.00  0.00    +0.000 A 
ATOM     14  N   UNL     1       2.469  12.281  18.286  0.00  0.00    +0.000 NA
ATOM     15  C   UNL     1       1.725  11.167  18.264  0.00  0.00    +0.000 A 
ATOM     16  N   UNL     1       2.381  10.026  17.860  0.00  0.00    +0.000 N 
ATOM     17  N   UNL     1       0.412  11.146  18.508  0.00  0.00    +0.000 NA
ATOM     18  H   UNL     1       3.379  10.179  17.928  0.00  0.00    +0.000 HD
BRANCH  16  19
ATOM     19  C   UNL     1       1.866   8.739  18.271  0.00  0.00    +0.000 C 
ATOM     20  C   UNL     1       2.847   7.639  17.874  0.00  0.00    +0.000 C 
ATOM     21  C   UNL     1       2.494   6.481  18.795  0.00  0.00    +0.000 C 
ATOM     22  C   UNL     1       1.961   7.118  20.077  0.00  0.00    +0.000 C 
ATOM     23  C   UNL     1       1.811   8.610  19.791  0.00  0.00    +0.000 C 
ENDBRANCH  16  19
ENDBRANCH  10  11
BRANCH   1  27
ATOM     24  C   UNL     1      -1.287  14.311  23.758  0.00  0.00    +0.000 A 
ATOM     25  C   UNL     1      -1.248  15.091  22.608  0.00  0.00    +0.000 A 
ATOM     26  C   UNL     1      -1.614  14.552  21.372  0.00  0.00    +0.000 A 
ATOM     27  C   UNL     1      -2.063  13.229  21.250  0.00  0.00    +0.000 A 
ATOM     28  C   UNL     1      -2.073  12.441  22.413  0.00  0.00    +0.000 A 
ATOM     29  C   UNL     1      -1.685  12.977  23.659  0.00  0.00    +0.000 A 
BRANCH  24  31
ATOM     30  C   UNL     1      -1.880  15.331  25.812  0.00  0.00    +0.000 C 
ATOM     31  O   UNL     1      -0.870  14.952  24.890  0.00  0.00    +0.000 OA
ENDBRANCH  24  31
ENDBRANCH   1  27
BRANCH   4  32
ATOM     32  N   UNL     1      -6.249  11.834  18.201  0.00  0.00    +0.000 N 
ATOM     33  H   UNL     1      -6.777  10.989  18.442  0.00  0.00    +0.000 HD
BRANCH  32  34
ATOM     34  C   UNL     1      -6.989  12.979  17.656  0.00  0.00    +0.000 C 
ATOM     35  C   UNL     1      -7.915  13.789  18.522  0.00  0.00    +0.000 C 
ATOM     36  C   UNL     1      -6.640  14.396  18.025  0.00  0.00    +0.000 C 
ENDBRANCH  32  34
ENDBRANCH   4  32
TORSDOF 6
ENDMDL
MODEL 6
REMARK VINA RESULT:      -7.0      3.348      8.093
REMARK  Name = 
REMARK  7 active torsions:
REMARK  status: ('A' for Active; 'I' for Inactive)
REMARK    1  A    between atoms: C_1  and  O_2
REMARK    2  A    between atoms: O_2  and  C_3
REMARK    3  A    between atoms: C_6  and  C_7
REMARK    4  A    between atoms: C_10  and  N_11
REMARK    5  A    between atoms: N_11  and  C_12
REMARK    6  A    between atoms: C_20  and  C_21
REMARK    7  A    between atoms: N_26  and  C_27
REMARK                            x       y       z     vdW  Elec       q    Type
REMARK                         _______ _______ _______ _____ _____    ______ ____
ROOT
ATOM      1  C   UNL     1       1.745  12.262  18.742  0.00  0.00    +0.000 A 
ATOM      2  N   UNL     1       2.841  12.900  18.286  0.00  0.00    +0.000 NA
ATOM      3  N   UNL     1       2.538  14.236  18.305  0.00  0.00    +0.000 N 
ATOM      4  C   UNL     1       3.401  15.329  17.940  0.00  0.00    +0.000 A 
ATOM      5  C   UNL     1       2.932  16.584  18.121  0.00  0.00    +0.000 A 
ATOM      6  C   UNL     1       1.599  16.808  18.630  0.00  0.00    +0.000 A 
ATOM      7 CL   UNL     1       1.077  18.435  18.861  0.00  0.00    +0.000 Cl
ATOM      8  C   UNL     1       0.777  15.785  18.908  0.00  0.00    +0.000 A 
ATOM      9  C   UNL     1       1.237  14.440  18.777  0.00  0.00    +0.000 A 
ATOM     10  C   UNL     1       0.684  13.194  19.000  0.00  0.00    +0.000 A 
ENDROOT
BRANCH  10  11
ATOM     11  C   UNL     1      -0.701  12.963  19.397  0.00  0.00    +0.000 A 
ATOM     12  C   UNL     1      -1.181  13.322  20.637  0.00  0.00    +0.000 A 
ATOM     13  C   UNL     1      -2.509  13.057  20.856  0.00  0.00    +0.000 A 
ATOM     14  N   UNL     1      -3.287  12.409  19.978  0.00  0.00    +0.000 NA
ATOM     15  C   UNL     1      -2.715  12.025  18.829  0.00  0.00    +0.000 A 
ATOM     16  N   UNL     1      -3.472  11.186  18.043  0.00  0.00    +0.000 N 
ATOM     17  N   UNL     1      -1.462  12.330  18.485  0.00  0.00    +0.000 NA
ATOM     18  H   UNL     1      -4.438  11.239  18.341  0.00  0.00    +0.000 HD
BRANCH  16  19
ATOM     19  C   UNL     1      -3.205  11.124  16.624  0.00  0.00    +0.000 C 
ATOM     20  C   UNL     1      -2.400   9.866  16.303  0.00  0.00    +0.000 C 
ATOM     21  C   UNL     1      -2.653   9.635  14.822  0.00  0.00    +0.000 C 
ATOM     22  C   UNL     1      -4.050  10.188  14.548  0.00  0.00    +0.000 C 
ATOM     23  C   UNL     1      -4.484  10.921  15.815  0.00  0.00    +0.000 C 
ENDBRANCH  16  19
ENDBRANCH  10  11
BRANCH   1  27
ATOM     24  C   UNL     1       1.805   7.983  19.340  0.00  0.00    +0.000 A 
ATOM     25  C   UNL     1       2.234   8.543  18.142  0.00  0.00    +0.000 A 
ATOM     26  C   UNL     1       2.188   9.926  17.947  0.00  0.00    +0.000 A 
ATOM     27  C   UNL     1       1.746  10.796  18.954  0.00  0.00    +0.000 A 
ATOM     28  C   UNL     1       1.289  10.220  20.150  0.00  0.00    +0.000 A 
ATOM     29  C   UNL     1       1.316   8.822  20.342  0.00  0.00    +0.000 A 
BRANCH  24  31
ATOM     30  C   UNL     1       2.629   5.990  18.361  0.00  0.00    +0.000 C 
ATOM     31  O   UNL     1       1.871   6.620  19.382  0.00  0.00    +0.000 OA
ENDBRANCH  24  31
ENDBRANCH   1  27
BRANCH   4  32
ATOM     32  N   UNL     1       4.656  15.026  17.403  0.00  0.00    +0.000 N 
ATOM     33  H   UNL     1       4.568  14.386  16.607  0.00  0.00    +0.000 HD
BRANCH  32  34
ATOM     34  C   UNL     1       5.810  14.864  18.295  0.00  0.00    +0.000 C 
ATOM     35  C   UNL     1       7.158  14.465  17.758  0.00  0.00    +0.000 C 
ATOM     36  C   UNL     1       6.952  15.845  18.299  0.00  0.00    +0.000 C 
ENDBRANCH  32  34
ENDBRANCH   4  32
TORSDOF 6
ENDMDL
MODEL 7
REMARK VINA RESULT:      -7.0      2.261      4.077
REMARK  Name = 
REMARK  7 active torsions:
REMARK  status: ('A' for Active; 'I' for Inactive)
REMARK    1  A    between atoms: C_1  and  O_2
REMARK    2  A    between atoms: O_2  and  C_3
REMARK    3  A    between atoms: C_6  and  C_7
REMARK    4  A    between atoms: C_10  and  N_11
REMARK    5  A    between atoms: N_11  and  C_12
REMARK    6  A    between atoms: C_20  and  C_21
REMARK    7  A    between atoms: N_26  and  C_27
REMARK                            x       y       z     vdW  Elec       q    Type
REMARK                         _______ _______ _______ _____ _____    ______ ____
ROOT
ATOM      1  C   UNL     1      -3.283  12.833  20.442  0.00  0.00    +0.000 A 
ATOM      2  N   UNL     1      -4.422  12.880  19.724  0.00  0.00    +0.000 NA
ATOM      3  N   UNL     1      -4.180  12.168  18.580  0.00  0.00    +0.000 N 
ATOM      4  C   UNL     1      -5.105  11.902  17.508  0.00  0.00    +0.000 A 
ATOM      5  C   UNL     1      -4.687  11.095  16.508  0.00  0.00    +0.000 A 
ATOM      6  C   UNL     1      -3.348  10.553  16.505  0.00  0.00    +0.000 A 
ATOM      7 CL   UNL     1      -2.893   9.510  15.211  0.00  0.00    +0.000 Cl
ATOM      8  C   UNL     1      -2.471  10.857  17.473  0.00  0.00    +0.000 A 
ATOM      9  C   UNL     1      -2.873  11.668  18.577  0.00  0.00    +0.000 A 
ATOM     10  C   UNL     1      -2.257  12.133  19.722  0.00  0.00    +0.000 A 
ENDROOT
BRANCH  10  11
ATOM     11  C   UNL     1      -0.849  11.925  20.046  0.00  0.00    +0.000 A 
ATOM     12  C   UNL     1      -0.411  10.829  20.756  0.00  0.00    +0.000 A 
ATOM     13  C   UNL     1       0.943  10.763  20.965  0.00  0.00    +0.000 A 
ATOM     14  N   UNL     1       1.795  11.732  20.599  0.00  0.00    +0.000 NA
ATOM     15  C   UNL     1       1.270  12.801  19.985  0.00  0.00    +0.000 A 
ATOM     16  N   UNL     1       2.128  13.862  19.811  0.00  0.00    +0.000 N 
ATOM     17  N   UNL     1      -0.017  12.904  19.645  0.00  0.00    +0.000 NA
ATOM     18  H   UNL     1       3.080  13.538  19.921  0.00  0.00    +0.000 HD
BRANCH  16  19
ATOM     19  C   UNL     1       1.857  14.817  18.759  0.00  0.00    +0.000 C 
ATOM     20  C   UNL     1       1.585  16.192  19.365  0.00  0.00    +0.000 C 
ATOM     21  C   UNL     1       1.858  17.158  18.223  0.00  0.00    +0.000 C 
ATOM     22  C   UNL     1       2.927  16.490  17.360  0.00  0.00    +0.000 C 
ATOM     23  C   UNL     1       3.089  15.068  17.892  0.00  0.00    +0.000 C 
ENDBRANCH  16  19
ENDBRANCH  10  11
BRANCH   1  27
ATOM     24  C   UNL     1      -3.038  14.490  24.425  0.00  0.00    +0.000 A 
ATOM     25  C   UNL     1      -3.493  13.193  24.218  0.00  0.00    +0.000 A 
ATOM     26  C   UNL     1      -3.592  12.673  22.925  0.00  0.00    +0.000 A 
ATOM     27  C   UNL     1      -3.209  13.418  21.801  0.00  0.00    +0.000 A 
ATOM     28  C   UNL     1      -2.776  14.736  22.018  0.00  0.00    +0.000 A 
ATOM     29  C   UNL     1      -2.693  15.271  23.321  0.00  0.00    +0.000 A 
BRANCH  24  31
ATOM     30  C   UNL     1      -1.901  15.640  26.156  0.00  0.00    +0.000 C 
ATOM     31  O   UNL     1      -3.024  14.882  25.733  0.00  0.00    +0.000 OA
ENDBRANCH  24  31
ENDBRANCH   1  27
BRANCH   4  32
ATOM     32  N   UNL     1      -6.364  12.509  17.559  0.00  0.00    +0.000 N 
ATOM     33  H   UNL     1      -7.109  11.813  17.456  0.00  0.00    +0.000 HD
BRANCH  32  34
ATOM     34  C   UNL     1      -6.561  13.829  16.949  0.00  0.00    +0.000 C 
ATOM     35  C   UNL     1      -7.916  14.483  16.932  0.00  0.00    +0.000 C 
ATOM     36  C   UNL     1      -6.825  15.055  17.781  0.00  0.00    +0.000 C 
ENDBRANCH  32  34
ENDBRANCH   4  32
TORSDOF 6
ENDMDL
MODEL 8
REMARK VINA RESULT:      -7.0      3.271      8.285
REMARK  Name = 
REMARK  7 active torsions:
REMARK  status: ('A' for Active; 'I' for Inactive)
REMARK    1  A    between atoms: C_1  and  O_2
REMARK    2  A    between atoms: O_2  and  C_3
REMARK    3  A    between atoms: C_6  and  C_7
REMARK    4  A    between atoms: C_10  and  N_11
REMARK    5  A    between atoms: N_11  and  C_12
REMARK    6  A    between atoms: C_20  and  C_21
REMARK    7  A    between atoms: N_26  and  C_27
REMARK                            x       y       z     vdW  Elec       q    Type
REMARK                         _______ _______ _______ _____ _____    ______ ____
ROOT
ATOM      1  C   UNL     1       1.299  12.149  18.738  0.00  0.00    +0.000 A 
ATOM      2  N   UNL     1       2.366  12.950  18.548  0.00  0.00    +0.000 NA
ATOM      3  N   UNL     1       1.875  14.226  18.477  0.00  0.00    +0.000 N 
ATOM      4  C   UNL     1       2.630  15.442  18.314  0.00  0.00    +0.000 A 
ATOM      5  C   UNL     1       1.953  16.610  18.363  0.00  0.00    +0.000 A 
ATOM      6  C   UNL     1       0.519  16.626  18.536  0.00  0.00    +0.000 A 
ATOM      7 CL   UNL     1      -0.275  18.155  18.615  0.00  0.00    +0.000 Cl
ATOM      8  C   UNL     1      -0.186  15.489  18.623  0.00  0.00    +0.000 A 
ATOM      9  C   UNL     1       0.483  14.229  18.623  0.00  0.00    +0.000 A 
ATOM     10  C   UNL     1       0.082  12.911  18.724  0.00  0.00    +0.000 A 
ENDROOT
BRANCH  10  11
ATOM     11  C   UNL     1      -1.308  12.472  18.783  0.00  0.00    +0.000 A 
ATOM     12  C   UNL     1      -1.896  11.751  17.767  0.00  0.00    +0.000 A 
ATOM     13  C   UNL     1      -3.205  11.395  17.976  0.00  0.00    +0.000 A 
ATOM     14  N   UNL     1      -3.916  11.789  19.043  0.00  0.00    +0.000 NA
ATOM     15  C   UNL     1      -3.285  12.556  19.942  0.00  0.00    +0.000 A 
ATOM     16  N   UNL     1      -4.090  13.114  20.909  0.00  0.00    +0.000 N 
ATOM     17  N   UNL     1      -1.988  12.865  19.876  0.00  0.00    +0.000 NA
ATOM     18  H   UNL     1      -4.968  12.614  20.936  0.00  0.00    +0.000 HD
BRANCH  16  19
ATOM     19  C   UNL     1      -3.499  13.510  22.169  0.00  0.00    +0.000 C 
ATOM     20  C   UNL     1      -4.189  14.769  22.690  0.00  0.00    +0.000 C 
ATOM     21  C   UNL     1      -3.892  14.760  24.182  0.00  0.00    +0.000 C 
ATOM     22  C   UNL     1      -3.770  13.288  24.572  0.00  0.00    +0.000 C 
ATOM     23  C   UNL     1      -3.780  12.491  23.270  0.00  0.00    +0.000 C 
ENDBRANCH  16  19
ENDBRANCH  10  11
BRANCH   1  27
ATOM     24  C   UNL     1       1.839   7.909  19.374  0.00  0.00    +0.000 A 
ATOM     25  C   UNL     1       2.202   8.503  18.170  0.00  0.00    +0.000 A 
ATOM     26  C   UNL     1       2.001   9.870  17.964  0.00  0.00    +0.000 A 
ATOM     27  C   UNL     1       1.464  10.694  18.963  0.00  0.00    +0.000 A 
ATOM     28  C   UNL     1       1.075  10.081  20.165  0.00  0.00    +0.000 A 
ATOM     29  C   UNL     1       1.259   8.697  20.369  0.00  0.00    +0.000 A 
BRANCH  24  31
ATOM     30  C   UNL     1       2.553   5.953  18.246  0.00  0.00    +0.000 C 
ATOM     31  O   UNL     1       2.057   6.562  19.428  0.00  0.00    +0.000 OA
ENDBRANCH  24  31
ENDBRANCH   1  27
BRANCH   4  32
ATOM     32  N   UNL     1       4.008  15.336  18.096  0.00  0.00    +0.000 N 
ATOM     33  H   UNL     1       4.267  14.372  17.862  0.00  0.00    +0.000 HD
BRANCH  32  34
ATOM     34  C   UNL     1       4.937  16.123  18.915  0.00  0.00    +0.000 C 
ATOM     35  C   UNL     1       5.596  15.528  20.130  0.00  0.00    +0.000 C 
ATOM     36  C   UNL     1       6.417  15.846  18.920  0.00  0.00    +0.000 C 
ENDBRANCH  32  34
ENDBRANCH   4  32
TORSDOF 6
ENDMDL
MODEL 9
REMARK VINA RESULT:      -6.9      3.779      6.641
REMARK  Name = 
REMARK  7 active torsions:
REMARK  status: ('A' for Active; 'I' for Inactive)
REMARK    1  A    between atoms: C_1  and  O_2
REMARK    2  A    between atoms: O_2  and  C_3
REMARK    3  A    between atoms: C_6  and  C_7
REMARK    4  A    between atoms: C_10  and  N_11
REMARK    5  A    between atoms: N_11  and  C_12
REMARK    6  A    between atoms: C_20  and  C_21
REMARK    7  A    between atoms: N_26  and  C_27
REMARK                            x       y       z     vdW  Elec       q    Type
REMARK                         _______ _______ _______ _____ _____    ______ ____
ROOT
ATOM      1  C   UNL     1      -3.438  12.629  20.397  0.00  0.00    +0.000 A 
ATOM      2  N   UNL     1      -4.480  13.287  20.942  0.00  0.00    +0.000 NA
ATOM      3  N   UNL     1      -4.027  13.796  22.130  0.00  0.00    +0.000 N 
ATOM      4  C   UNL     1      -4.762  14.608  23.066  0.00  0.00    +0.000 A 
ATOM      5  C   UNL     1      -4.093  15.085  24.139  0.00  0.00    +0.000 A 
ATOM      6  C   UNL     1      -2.702  14.757  24.349  0.00  0.00    +0.000 A 
ATOM      7 CL   UNL     1      -1.906  15.422  25.726  0.00  0.00    +0.000 Cl
ATOM      8  C   UNL     1      -2.041  13.948  23.508  0.00  0.00    +0.000 A 
ATOM      9  C   UNL     1      -2.686  13.453  22.335  0.00  0.00    +0.000 A 
ATOM     10  C   UNL     1      -2.305  12.651  21.276  0.00  0.00    +0.000 A 
ENDROOT
BRANCH  10  11
ATOM     11  C   UNL     1      -1.007  11.993  21.164  0.00  0.00    +0.000 A 
ATOM     12  C   UNL     1      -0.806  10.689  21.559  0.00  0.00    +0.000 A 
ATOM     13  C   UNL     1       0.463  10.204  21.373  0.00  0.00    +0.000 A 
ATOM     14  N   UNL     1       1.483  10.953  20.928  0.00  0.00    +0.000 NA
ATOM     15  C   UNL     1       1.214  12.235  20.643  0.00  0.00    +0.000 A 
ATOM     16  N   UNL     1       2.311  13.027  20.392  0.00  0.00    +0.000 N 
ATOM     17  N   UNL     1      -0.011  12.765  20.693  0.00  0.00    +0.000 NA
ATOM     18  H   UNL     1       3.105  12.434  20.187  0.00  0.00    +0.000 HD
BRANCH  16  19
ATOM     19  C   UNL     1       2.143  14.228  19.605  0.00  0.00    +0.000 C 
ATOM     20  C   UNL     1       2.937  15.372  20.231  0.00  0.00    +0.000 C 
ATOM     21  C   UNL     1       3.129  16.356  19.087  0.00  0.00    +0.000 C 
ATOM     22  C   UNL     1       3.166  15.511  17.815  0.00  0.00    +0.000 C 
ATOM     23  C   UNL     1       2.778  14.092  18.223  0.00  0.00    +0.000 C 
ENDBRANCH  16  19
ENDBRANCH  10  11
BRANCH   1  27
ATOM     24  C   UNL     1      -3.756  10.926  16.438  0.00  0.00    +0.000 A 
ATOM     25  C   UNL     1      -4.887  11.346  17.127  0.00  0.00    +0.000 A 
ATOM     26  C   UNL     1      -4.779  11.873  18.417  0.00  0.00    +0.000 A 
ATOM     27  C   UNL     1      -3.535  12.029  19.045  0.00  0.00    +0.000 A 
ATOM     28  C   UNL     1      -2.400  11.577  18.352  0.00  0.00    +0.000 A 
ATOM     29  C   UNL     1      -2.509  11.027  17.057  0.00  0.00    +0.000 A 
BRANCH  24  31
ATOM     30  C   UNL     1      -2.879  10.065  14.412  0.00  0.00    +0.000 C 
ATOM     31  O   UNL     1      -4.009  10.400  15.203  0.00  0.00    +0.000 OA
ENDBRANCH  24  31
ENDBRANCH   1  27
BRANCH   4  32
ATOM     32  N   UNL     1      -6.119  14.833  22.817  0.00  0.00    +0.000 N 
ATOM     33  H   UNL     1      -6.379  15.796  23.055  0.00  0.00    +0.000 HD
BRANCH  32  34
ATOM     34  C   UNL     1      -7.094  13.769  23.080  0.00  0.00    +0.000 C 
ATOM     35  C   UNL     1      -6.838  12.723  24.132  0.00  0.00    +0.000 C 
ATOM     36  C   UNL     1      -7.915  13.741  24.342  0.00  0.00    +0.000 C 
ENDBRANCH  32  34
ENDBRANCH   4  32
TORSDOF 6
ENDMDL
