MODEL 1
REMARK VINA RESULT:      -6.8      0.000      0.000
REMARK  Name = 
REMARK  9 active torsions:
REMARK  status: ('A' for Active; 'I' for Inactive)
REMARK    1  A    between atoms: C_1  and  O_2
REMARK    2  A    between atoms: O_2  and  C_3
REMARK    3  A    between atoms: C_3  and  C_4
REMARK    4  A    between atoms: C_4  and  N_5
REMARK    5  A    between atoms: N_5  and  C_6
REMARK    6  A    between atoms: C_6  and  C_7
REMARK    7  A    between atoms: N_9  and  C_10
REMARK    8  A    between atoms: C_15  and  S_16
REMARK    9  A    between atoms: S_16  and  C_17
REMARK                            x       y       z     vdW  Elec       q    Type
REMARK                         _______ _______ _______ _____ _____    ______ ____
ROOT
ATOM      1  C   UNL     1       2.293   6.956  19.826  0.00  0.00    +0.000 A 
ATOM      2  C   UNL     1       1.553   7.992  20.413  0.00  0.00    +0.000 A 
ATOM      3  C   UNL     1       1.228   9.132  19.679  0.00  0.00    +0.000 A 
ATOM      4  C   UNL     1       1.623   9.237  18.348  0.00  0.00    +0.000 A 
ATOM      5  C   UNL     1       2.353   8.204  17.752  0.00  0.00    +0.000 A 
ATOM      6  C   UNL     1       2.701   7.061  18.485  0.00  0.00    +0.000 A 
ENDROOT
BRANCH   1   9
ATOM      7  C   UNL     1       1.877   4.701  20.719  0.00  0.00    +0.000 C 
ATOM      8  O   UNL     1       0.867   4.467  20.057  0.00  0.00    +0.000 OA
ATOM      9  N   UNL     1       2.662   5.832  20.596  0.00  0.00    +0.000 N 
ATOM     10  H   UNL     1       3.633   5.768  20.880  0.00  0.00    +0.000 HD
BRANCH   7  11
ATOM     11  C   UNL     1       2.368   3.713  21.778  0.00  0.00    +0.000 C 
BRANCH  11  12
ATOM     12  N   UNL     1       2.561   2.376  21.199  0.00  0.00    +0.000 NA
ATOM     13  H   UNL     1       2.298   1.665  21.878  0.00  0.00    +0.000 HD
BRANCH  12  14
ATOM     14  C   UNL     1       3.956   2.156  20.773  0.00  0.00    +0.000 C 
BRANCH  14  15
ATOM     15  C   UNL     1       4.134   2.340  19.259  0.00  0.00    +0.000 C 
BRANCH  15  17
ATOM     16  C   UNL     1       2.402   2.188  17.663  0.00  0.00    +0.000 C 
ATOM     17  O   UNL     1       3.236   1.475  18.561  0.00  0.00    +0.000 OA
ENDBRANCH  15  17
ENDBRANCH  14  15
ENDBRANCH  12  14
ENDBRANCH  11  12
ENDBRANCH   7  11
ENDBRANCH   1   9
BRANCH   6  18
ATOM     18  S   UNL     1       3.620   5.759  17.670  0.00  0.00    +0.000 S 
BRANCH  18  19
ATOM     19  C   UNL     1       5.327   6.156  18.044  0.00  0.00    +0.000 A 
ATOM     20  C   UNL     1       5.949   5.464  19.093  0.00  0.00    +0.000 A 
ATOM     21  C   UNL     1       7.302   5.665  19.381  0.00  0.00    +0.000 A 
ATOM     22  C   UNL     1       8.052   6.557  18.619  0.00  0.00    +0.000 A 
ATOM     23  C   UNL     1       7.445   7.255  17.578  0.00  0.00    +0.000 A 
ATOM     24  C   UNL     1       6.090   7.055  17.291  0.00  0.00    +0.000 A 
ENDBRANCH  18  19
ENDBRANCH   6  18
TORSDOF 8
ENDMDL
MODEL 2
REMARK VINA RESULT:      -6.6      3.040      4.706
REMARK  Name = 
REMARK  9 active torsions:
REMARK  status: ('A' for Active; 'I' for Inactive)
REMARK    1  A    between atoms: C_1  and  O_2
REMARK    2  A    between atoms: O_2  and  C_3
REMARK    3  A    between atoms: C_3  and  C_4
REMARK    4  A    between atoms: C_4  and  N_5
REMARK    5  A    between atoms: N_5  and  C_6
REMARK    6  A    between atoms: C_6  and  C_7
REMARK    7  A    between atoms: N_9  and  C_10
REMARK    8  A    between atoms: C_15  and  S_16
REMARK    9  A    between atoms: S_16  and  C_17
REMARK                            x       y       z     vdW  Elec       q    Type
REMARK                         _______ _______ _______ _____ _____    ______ ____
ROOT
ATOM      1  C   UNL     1       6.472   5.018  18.323  0.00  0.00    +0.000 A 
ATOM      2  C   UNL     1       7.465   5.575  19.140  0.00  0.00    +0.000 A 
ATOM      3  C   UNL     1       8.091   6.767  18.780  0.00  0.00    +0.000 A 
ATOM      4  C   UNL     1       7.716   7.422  17.610  0.00  0.00    +0.000 A 
ATOM      5  C   UNL     1       6.720   6.879  16.793  0.00  0.00    +0.000 A 
ATOM      6  C   UNL     1       6.096   5.672  17.136  0.00  0.00    +0.000 A 
ENDROOT
BRANCH   1   9
ATOM      7  C   UNL     1       4.748   3.672  19.450  0.00  0.00    +0.000 C 
ATOM      8  O   UNL     1       4.028   4.610  19.786  0.00  0.00    +0.000 OA
ATOM      9  N   UNL     1       5.885   3.783  18.671  0.00  0.00    +0.000 N 
ATOM     10  H   UNL     1       6.179   2.969  18.144  0.00  0.00    +0.000 HD
BRANCH   7  11
ATOM     11  C   UNL     1       4.428   2.241  19.885  0.00  0.00    +0.000 C 
BRANCH  11  12
ATOM     12  N   UNL     1       4.056   1.412  18.730  0.00  0.00    +0.000 NA
ATOM     13  H   UNL     1       4.840   1.348  18.084  0.00  0.00    +0.000 HD
BRANCH  12  14
ATOM     14  C   UNL     1       2.880   1.951  18.021  0.00  0.00    +0.000 C 
BRANCH  14  15
ATOM     15  C   UNL     1       1.620   1.938  18.900  0.00  0.00    +0.000 C 
BRANCH  15  17
ATOM     16  C   UNL     1       0.833   3.686  20.277  0.00  0.00    +0.000 C 
ATOM     17  O   UNL     1       1.054   3.250  18.946  0.00  0.00    +0.000 OA
ENDBRANCH  15  17
ENDBRANCH  14  15
ENDBRANCH  12  14
ENDBRANCH  11  12
ENDBRANCH   7  11
ENDBRANCH   1   9
BRANCH   6  18
ATOM     18  S   UNL     1       4.813   5.028  16.066  0.00  0.00    +0.000 S 
BRANCH  18  19
ATOM     19  C   UNL     1       5.683   4.667  14.542  0.00  0.00    +0.000 A 
ATOM     20  C   UNL     1       6.972   5.194  14.380  0.00  0.00    +0.000 A 
ATOM     21  C   UNL     1       7.738   4.880  13.252  0.00  0.00    +0.000 A 
ATOM     22  C   UNL     1       7.225   4.030  12.276  0.00  0.00    +0.000 A 
ATOM     23  C   UNL     1       5.944   3.505  12.422  0.00  0.00    +0.000 A 
ATOM     24  C   UNL     1       5.177   3.820  13.549  0.00  0.00    +0.000 A 
ENDBRANCH  18  19
ENDBRANCH   6  18
TORSDOF 8
ENDMDL
MODEL 3
REMARK VINA RESULT:      -6.5      2.826      5.704
REMARK  Name = 
REMARK  9 active torsions:
REMARK  status: ('A' for Active; 'I' for Inactive)
REMARK    1  A    between atoms: C_1  and  O_2
REMARK    2  A    between atoms: O_2  and  C_3
REMARK    3  A    between atoms: C_3  and  C_4
REMARK    4  A    between atoms: C_4  and  N_5
REMARK    5  A    between atoms: N_5  and  C_6
REMARK    6  A    between atoms: C_6  and  C_7
REMARK    7  A    between atoms: N_9  and  C_10
REMARK    8  A    between atoms: C_15  and  S_16
REMARK    9  A    between atoms: S_16  and  C_17
REMARK                            x       y       z     vdW  Elec       q    Type
REMARK                         _______ _______ _______ _____ _____    ______ ____
ROOT
ATOM      1  C   UNL     1       3.251   3.204  18.317  0.00  0.00    +0.000 A 
ATOM      2  C   UNL     1       2.401   2.129  18.026  0.00  0.00    +0.000 A 
ATOM      3  C   UNL     1       1.141   2.043  18.618  0.00  0.00    +0.000 A 
ATOM      4  C   UNL     1       0.714   3.041  19.490  0.00  0.00    +0.000 A 
ATOM      5  C   UNL     1       1.552   4.122  19.778  0.00  0.00    +0.000 A 
ATOM      6  C   UNL     1       2.828   4.211  19.204  0.00  0.00    +0.000 A 
ENDROOT
BRANCH   1   9
ATOM      7  C   UNL     1       4.872   4.031  16.661  0.00  0.00    +0.000 C 
ATOM      8  O   UNL     1       4.144   4.886  16.160  0.00  0.00    +0.000 OA
ATOM      9  N   UNL     1       4.544   3.251  17.755  0.00  0.00    +0.000 N 
ATOM     10  H   UNL     1       5.302   2.874  18.311  0.00  0.00    +0.000 HD
BRANCH   7  11
ATOM     11  C   UNL     1       6.262   3.749  16.089  0.00  0.00    +0.000 C 
BRANCH  11  12
ATOM     12  N   UNL     1       7.154   4.901  16.284  0.00  0.00    +0.000 NA
ATOM     13  H   UNL     1       7.979   4.803  15.698  0.00  0.00    +0.000 HD
BRANCH  12  14
ATOM     14  C   UNL     1       7.568   5.043  17.693  0.00  0.00    +0.000 C 
BRANCH  14  15
ATOM     15  C   UNL     1       7.307   6.457  18.233  0.00  0.00    +0.000 C 
BRANCH  15  17
ATOM     16  C   UNL     1       7.988   8.668  17.765  0.00  0.00    +0.000 C 
ATOM     17  O   UNL     1       7.595   7.420  17.218  0.00  0.00    +0.000 OA
ENDBRANCH  15  17
ENDBRANCH  14  15
ENDBRANCH  12  14
ENDBRANCH  11  12
ENDBRANCH   7  11
ENDBRANCH   1   9
BRANCH   6  18
ATOM     18  S   UNL     1       3.854   5.625  19.591  0.00  0.00    +0.000 S 
BRANCH  18  19
ATOM     19  C   UNL     1       2.797   7.023  19.216  0.00  0.00    +0.000 A 
ATOM     20  C   UNL     1       2.034   7.568  20.259  0.00  0.00    +0.000 A 
ATOM     21  C   UNL     1       1.255   8.711  20.054  0.00  0.00    +0.000 A 
ATOM     22  C   UNL     1       1.233   9.325  18.804  0.00  0.00    +0.000 A 
ATOM     23  C   UNL     1       1.981   8.789  17.759  0.00  0.00    +0.000 A 
ATOM     24  C   UNL     1       2.760   7.645  17.964  0.00  0.00    +0.000 A 
ENDBRANCH  18  19
ENDBRANCH   6  18
TORSDOF 8
ENDMDL
MODEL 4
REMARK VINA RESULT:      -6.5      1.117      1.559
REMARK  Name = 
REMARK  9 active torsions:
REMARK  status: ('A' for Active; 'I' for Inactive)
REMARK    1  A    between atoms: C_1  and  O_2
REMARK    2  A    between atoms: O_2  and  C_3
REMARK    3  A    between atoms: C_3  and  C_4
REMARK    4  A    between atoms: C_4  and  N_5
REMARK    5  A    between atoms: N_5  and  C_6
REMARK    6  A    between atoms: C_6  and  C_7
REMARK    7  A    between atoms: N_9  and  C_10
REMARK    8  A    between atoms: C_15  and  S_16
REMARK    9  A    between atoms: S_16  and  C_17
REMARK                            x       y       z     vdW  Elec       q    Type
REMARK                         _______ _______ _______ _____ _____    ______ ____
ROOT
ATOM      1  C   UNL     1       2.205   6.709  20.030  0.00  0.00    +0.000 A 
ATOM      2  C   UNL     1       1.488   7.759  20.621  0.00  0.00    +0.000 A 
ATOM      3  C   UNL     1       1.223   8.926  19.906  0.00  0.00    +0.000 A 
ATOM      4  C   UNL     1       1.656   9.045  18.588  0.00  0.00    +0.000 A 
ATOM      5  C   UNL     1       2.363   8.000  17.987  0.00  0.00    +0.000 A 
ATOM      6  C   UNL     1       2.651   6.829  18.701  0.00  0.00    +0.000 A 
ENDROOT
BRANCH   1   9
ATOM      7  C   UNL     1       1.734   4.414  20.782  0.00  0.00    +0.000 C 
ATOM      8  O   UNL     1       0.795   4.201  20.018  0.00  0.00    +0.000 OA
ATOM      9  N   UNL     1       2.514   5.556  20.782  0.00  0.00    +0.000 N 
ATOM     10  H   UNL     1       3.454   5.487  21.154  0.00  0.00    +0.000 HD
BRANCH   7  11
ATOM     11  C   UNL     1       2.136   3.385  21.840  0.00  0.00    +0.000 C 
BRANCH  11  12
ATOM     12  N   UNL     1       2.779   2.218  21.219  0.00  0.00    +0.000 NA
ATOM     13  H   UNL     1       3.177   1.620  21.939  0.00  0.00    +0.000 HD
BRANCH  12  14
ATOM     14  C   UNL     1       3.836   2.613  20.269  0.00  0.00    +0.000 C 
BRANCH  14  15
ATOM     15  C   UNL     1       5.041   1.662  20.317  0.00  0.00    +0.000 C 
BRANCH  15  17
ATOM     16  C   UNL     1       5.963   0.142  21.870  0.00  0.00    +0.000 C 
ATOM     17  O   UNL     1       5.423   1.439  21.676  0.00  0.00    +0.000 OA
ENDBRANCH  15  17
ENDBRANCH  14  15
ENDBRANCH  12  14
ENDBRANCH  11  12
ENDBRANCH   7  11
ENDBRANCH   1   9
BRANCH   6  18
ATOM     18  S   UNL     1       3.543   5.512  17.880  0.00  0.00    +0.000 S 
BRANCH  18  19
ATOM     19  C   UNL     1       5.260   5.984  18.079  0.00  0.00    +0.000 A 
ATOM     20  C   UNL     1       6.002   5.356  19.090  0.00  0.00    +0.000 A 
ATOM     21  C   UNL     1       7.367   5.616  19.243  0.00  0.00    +0.000 A 
ATOM     22  C   UNL     1       8.008   6.504  18.384  0.00  0.00    +0.000 A 
ATOM     23  C   UNL     1       7.282   7.139  17.380  0.00  0.00    +0.000 A 
ATOM     24  C   UNL     1       5.915   6.880  17.227  0.00  0.00    +0.000 A 
ENDBRANCH  18  19
ENDBRANCH   6  18
TORSDOF 8
ENDMDL
MODEL 5
REMARK VINA RESULT:      -6.5      4.772      7.081
REMARK  Name = 
REMARK  9 active torsions:
REMARK  status: ('A' for Active; 'I' for Inactive)
REMARK    1  A    between atoms: C_1  and  O_2
REMARK    2  A    between atoms: O_2  and  C_3
REMARK    3  A    between atoms: C_3  and  C_4
REMARK    4  A    between atoms: C_4  and  N_5
REMARK    5  A    between atoms: N_5  and  C_6
REMARK    6  A    between atoms: C_6  and  C_7
REMARK    7  A    between atoms: N_9  and  C_10
REMARK    8  A    between atoms: C_15  and  S_16
REMARK    9  A    between atoms: S_16  and  C_17
REMARK                            x       y       z     vdW  Elec       q    Type
REMARK                         _______ _______ _______ _____ _____    ______ ____
ROOT
ATOM      1  C   UNL     1       6.437   4.254  16.950  0.00  0.00    +0.000 A 
ATOM      2  C   UNL     1       7.626   4.746  17.507  0.00  0.00    +0.000 A 
ATOM      3  C   UNL     1       7.615   5.385  18.746  0.00  0.00    +0.000 A 
ATOM      4  C   UNL     1       6.420   5.520  19.447  0.00  0.00    +0.000 A 
ATOM      5  C   UNL     1       5.231   5.023  18.904  0.00  0.00    +0.000 A 
ATOM      6  C   UNL     1       5.226   4.395  17.651  0.00  0.00    +0.000 A 
ENDROOT
BRANCH   1   9
ATOM      7  C   UNL     1       6.471   4.383  14.493  0.00  0.00    +0.000 C 
ATOM      8  O   UNL     1       6.643   5.598  14.414  0.00  0.00    +0.000 OA
ATOM      9  N   UNL     1       6.453   3.659  15.671  0.00  0.00    +0.000 N 
ATOM     10  H   UNL     1       6.687   2.674  15.624  0.00  0.00    +0.000 HD
BRANCH   7  11
ATOM     11  C   UNL     1       6.255   3.536  13.238  0.00  0.00    +0.000 C 
BRANCH  11  12
ATOM     12  N   UNL     1       4.841   3.544  12.836  0.00  0.00    +0.000 NA
ATOM     13  H   UNL     1       4.315   2.890  13.410  0.00  0.00    +0.000 HD
BRANCH  12  14
ATOM     14  C   UNL     1       4.671   3.194  11.413  0.00  0.00    +0.000 C 
BRANCH  14  15
ATOM     15  C   UNL     1       3.282   3.579  10.884  0.00  0.00    +0.000 C 
BRANCH  15  17
ATOM     16  C   UNL     1       2.420   4.770   9.037  0.00  0.00    +0.000 C 
ATOM     17  O   UNL     1       3.348   3.790   9.472  0.00  0.00    +0.000 OA
ENDBRANCH  15  17
ENDBRANCH  14  15
ENDBRANCH  12  14
ENDBRANCH  11  12
ENDBRANCH   7  11
ENDBRANCH   1   9
BRANCH   6  18
ATOM     18  S   UNL     1       3.681   3.760  17.008  0.00  0.00    +0.000 S 
BRANCH  18  19
ATOM     19  C   UNL     1       2.659   3.591  18.471  0.00  0.00    +0.000 A 
ATOM     20  C   UNL     1       2.723   2.384  19.181  0.00  0.00    +0.000 A 
ATOM     21  C   UNL     1       2.018   2.218  20.377  0.00  0.00    +0.000 A 
ATOM     22  C   UNL     1       1.242   3.260  20.879  0.00  0.00    +0.000 A 
ATOM     23  C   UNL     1       1.165   4.462  20.179  0.00  0.00    +0.000 A 
ATOM     24  C   UNL     1       1.871   4.627  18.982  0.00  0.00    +0.000 A 
ENDBRANCH  18  19
ENDBRANCH   6  18
TORSDOF 8
ENDMDL
MODEL 6
REMARK VINA RESULT:      -6.4      3.129      4.700
REMARK  Name = 
REMARK  9 active torsions:
REMARK  status: ('A' for Active; 'I' for Inactive)
REMARK    1  A    between atoms: C_1  and  O_2
REMARK    2  A    between atoms: O_2  and  C_3
REMARK    3  A    between atoms: C_3  and  C_4
REMARK    4  A    between atoms: C_4  and  N_5
REMARK    5  A    between atoms: N_5  and  C_6
REMARK    6  A    between atoms: C_6  and  C_7
REMARK    7  A    between atoms: N_9  and  C_10
REMARK    8  A    between atoms: C_15  and  S_16
REMARK    9  A    between atoms: S_16  and  C_17
REMARK                            x       y       z     vdW  Elec       q    Type
REMARK                         _______ _______ _______ _____ _____    ______ ____
ROOT
ATOM      1  C   UNL     1       6.531   5.038  18.355  0.00  0.00    +0.000 A 
ATOM      2  C   UNL     1       7.467   5.658  19.193  0.00  0.00    +0.000 A 
ATOM      3  C   UNL     1       8.100   6.836  18.798  0.00  0.00    +0.000 A 
ATOM      4  C   UNL     1       7.788   7.413  17.570  0.00  0.00    +0.000 A 
ATOM      5  C   UNL     1       6.849   6.806  16.731  0.00  0.00    +0.000 A 
ATOM      6  C   UNL     1       6.219   5.613  17.109  0.00  0.00    +0.000 A 
ENDROOT
BRANCH   1   9
ATOM      7  C   UNL     1       4.816   3.737  19.546  0.00  0.00    +0.000 C 
ATOM      8  O   UNL     1       4.112   4.690  19.874  0.00  0.00    +0.000 OA
ATOM      9  N   UNL     1       5.938   3.818  18.743  0.00  0.00    +0.000 N 
ATOM     10  H   UNL     1       6.213   2.988  18.230  0.00  0.00    +0.000 HD
BRANCH   7  11
ATOM     11  C   UNL     1       4.490   2.320  20.021  0.00  0.00    +0.000 C 
BRANCH  11  12
ATOM     12  N   UNL     1       3.036   2.108  20.082  0.00  0.00    +0.000 NA
ATOM     13  H   UNL     1       2.830   1.296  20.658  0.00  0.00    +0.000 HD
BRANCH  12  14
ATOM     14  C   UNL     1       2.451   1.918  18.740  0.00  0.00    +0.000 C 
BRANCH  14  15
ATOM     15  C   UNL     1       1.155   2.720  18.556  0.00  0.00    +0.000 C 
BRANCH  15  17
ATOM     16  C   UNL     1       1.633   4.912  17.821  0.00  0.00    +0.000 C 
ATOM     17  O   UNL     1       1.286   3.593  17.432  0.00  0.00    +0.000 OA
ENDBRANCH  15  17
ENDBRANCH  14  15
ENDBRANCH  12  14
ENDBRANCH  11  12
ENDBRANCH   7  11
ENDBRANCH   1   9
BRANCH   6  18
ATOM     18  S   UNL     1       5.010   4.886  16.008  0.00  0.00    +0.000 S 
BRANCH  18  19
ATOM     19  C   UNL     1       5.947   4.563  14.514  0.00  0.00    +0.000 A 
ATOM     20  C   UNL     1       5.390   3.696  13.564  0.00  0.00    +0.000 A 
ATOM     21  C   UNL     1       6.029   3.468  12.341  0.00  0.00    +0.000 A 
ATOM     22  C   UNL     1       7.231   4.109  12.053  0.00  0.00    +0.000 A 
ATOM     23  C   UNL     1       7.798   4.967  12.991  0.00  0.00    +0.000 A 
ATOM     24  C   UNL     1       7.159   5.195  14.215  0.00  0.00    +0.000 A 
ENDBRANCH  18  19
ENDBRANCH   6  18
TORSDOF 8
ENDMDL
MODEL 7
REMARK VINA RESULT:      -6.4      3.078      5.673
REMARK  Name = 
REMARK  9 active torsions:
REMARK  status: ('A' for Active; 'I' for Inactive)
REMARK    1  A    between atoms: C_1  and  O_2
REMARK    2  A    between atoms: O_2  and  C_3
REMARK    3  A    between atoms: C_3  and  C_4
REMARK    4  A    between atoms: C_4  and  N_5
REMARK    5  A    between atoms: N_5  and  C_6
REMARK    6  A    between atoms: C_6  and  C_7
REMARK    7  A    between atoms: N_9  and  C_10
REMARK    8  A    between atoms: C_15  and  S_16
REMARK    9  A    between atoms: S_16  and  C_17
REMARK                            x       y       z     vdW  Elec       q    Type
REMARK                         _______ _______ _______ _____ _____    ______ ____
ROOT
ATOM      1  C   UNL     1       3.981   3.689  19.316  0.00  0.00    +0.000 A 
ATOM      2  C   UNL     1       3.889   2.715  20.320  0.00  0.00    +0.000 A 
ATOM      3  C   UNL     1       2.787   2.680  21.174  0.00  0.00    +0.000 A 
ATOM      4  C   UNL     1       1.760   3.606  21.018  0.00  0.00    +0.000 A 
ATOM      5  C   UNL     1       1.837   4.574  20.014  0.00  0.00    +0.000 A 
ATOM      6  C   UNL     1       2.948   4.631  19.161  0.00  0.00    +0.000 A 
ENDROOT
BRANCH   1   9
ATOM      7  C   UNL     1       6.191   4.596  18.731  0.00  0.00    +0.000 C 
ATOM      8  O   UNL     1       6.348   5.265  19.751  0.00  0.00    +0.000 OA
ATOM      9  N   UNL     1       5.126   3.747  18.494  0.00  0.00    +0.000 N 
ATOM     10  H   UNL     1       5.265   2.983  17.844  0.00  0.00    +0.000 HD
BRANCH   7  11
ATOM     11  C   UNL     1       7.210   4.651  17.591  0.00  0.00    +0.000 C 
BRANCH  11  12
ATOM     12  N   UNL     1       6.652   5.347  16.423  0.00  0.00    +0.000 NA
ATOM     13  H   UNL     1       5.640   5.249  16.412  0.00  0.00    +0.000 HD
BRANCH  12  14
ATOM     14  C   UNL     1       7.208   4.830  15.157  0.00  0.00    +0.000 C 
BRANCH  14  15
ATOM     15  C   UNL     1       6.164   4.054  14.341  0.00  0.00    +0.000 C 
BRANCH  15  17
ATOM     16  C   UNL     1       5.716   3.173  12.198  0.00  0.00    +0.000 C 
ATOM     17  O   UNL     1       6.569   3.999  12.972  0.00  0.00    +0.000 OA
ENDBRANCH  15  17
ENDBRANCH  14  15
ENDBRANCH  12  14
ENDBRANCH  11  12
ENDBRANCH   7  11
ENDBRANCH   1   9
BRANCH   6  18
ATOM     18  S   UNL     1       2.990   5.879  17.878  0.00  0.00    +0.000 S 
BRANCH  18  19
ATOM     19  C   UNL     1       2.290   7.322  18.677  0.00  0.00    +0.000 A 
ATOM     20  C   UNL     1       1.901   8.398  17.867  0.00  0.00    +0.000 A 
ATOM     21  C   UNL     1       1.270   9.518  18.418  0.00  0.00    +0.000 A 
ATOM     22  C   UNL     1       1.018   9.573  19.786  0.00  0.00    +0.000 A 
ATOM     23  C   UNL     1       1.405   8.514  20.602  0.00  0.00    +0.000 A 
ATOM     24  C   UNL     1       2.036   7.393  20.051  0.00  0.00    +0.000 A 
ENDBRANCH  18  19
ENDBRANCH   6  18
TORSDOF 8
ENDMDL
MODEL 8
REMARK VINA RESULT:      -6.3      3.125      5.562
REMARK  Name = 
REMARK  9 active torsions:
REMARK  status: ('A' for Active; 'I' for Inactive)
REMARK    1  A    between atoms: C_1  and  O_2
REMARK    2  A    between atoms: O_2  and  C_3
REMARK    3  A    between atoms: C_3  and  C_4
REMARK    4  A    between atoms: C_4  and  N_5
REMARK    5  A    between atoms: N_5  and  C_6
REMARK    6  A    between atoms: C_6  and  C_7
REMARK    7  A    between atoms: N_9  and  C_10
REMARK    8  A    between atoms: C_15  and  S_16
REMARK    9  A    between atoms: S_16  and  C_17
REMARK                            x       y       z     vdW  Elec       q    Type
REMARK                         _______ _______ _______ _____ _____    ______ ____
ROOT
ATOM      1  C   UNL     1       3.964   3.917  19.120  0.00  0.00    +0.000 A 
ATOM      2  C   UNL     1       3.700   2.835  19.971  0.00  0.00    +0.000 A 
ATOM      3  C   UNL     1       2.553   2.821  20.764  0.00  0.00    +0.000 A 
ATOM      4  C   UNL     1       1.651   3.879  20.697  0.00  0.00    +0.000 A 
ATOM      5  C   UNL     1       1.900   4.958  19.844  0.00  0.00    +0.000 A 
ATOM      6  C   UNL     1       3.059   4.992  19.056  0.00  0.00    +0.000 A 
ENDROOT
BRANCH   1   9
ATOM      7  C   UNL     1       6.291   4.628  18.758  0.00  0.00    +0.000 C 
ATOM      8  O   UNL     1       6.460   5.140  19.863  0.00  0.00    +0.000 OA
ATOM      9  N   UNL     1       5.155   3.945  18.365  0.00  0.00    +0.000 N 
ATOM     10  H   UNL     1       5.248   3.258  17.626  0.00  0.00    +0.000 HD
BRANCH   7  11
ATOM     11  C   UNL     1       7.375   4.707  17.681  0.00  0.00    +0.000 C 
BRANCH  11  12
ATOM     12  N   UNL     1       6.998   3.918  16.499  0.00  0.00    +0.000 NA
ATOM     13  H   UNL     1       7.649   3.146  16.378  0.00  0.00    +0.000 HD
BRANCH  12  14
ATOM     14  C   UNL     1       6.977   4.739  15.274  0.00  0.00    +0.000 C 
BRANCH  14  15
ATOM     15  C   UNL     1       5.926   4.250  14.268  0.00  0.00    +0.000 C 
BRANCH  15  17
ATOM     16  C   UNL     1       5.667   3.220  12.159  0.00  0.00    +0.000 C 
ATOM     17  O   UNL     1       6.570   3.839  13.060  0.00  0.00    +0.000 OA
ENDBRANCH  15  17
ENDBRANCH  14  15
ENDBRANCH  12  14
ENDBRANCH  11  12
ENDBRANCH   7  11
ENDBRANCH   1   9
BRANCH   6  18
ATOM     18  S   UNL     1       3.322   6.387  17.966  0.00  0.00    +0.000 S 
BRANCH  18  19
ATOM     19  C   UNL     1       2.258   7.657  18.650  0.00  0.00    +0.000 A 
ATOM     20  C   UNL     1       2.048   7.663  20.036  0.00  0.00    +0.000 A 
ATOM     21  C   UNL     1       1.299   8.676  20.643  0.00  0.00    +0.000 A 
ATOM     22  C   UNL     1       0.755   9.698  19.870  0.00  0.00    +0.000 A 
ATOM     23  C   UNL     1       0.951   9.701  18.492  0.00  0.00    +0.000 A 
ATOM     24  C   UNL     1       1.700   8.687  17.884  0.00  0.00    +0.000 A 
ENDBRANCH  18  19
ENDBRANCH   6  18
TORSDOF 8
ENDMDL
MODEL 9
REMARK VINA RESULT:      -6.3      2.553      5.343
REMARK  Name = 
REMARK  9 active torsions:
REMARK  status: ('A' for Active; 'I' for Inactive)
REMARK    1  A    between atoms: C_1  and  O_2
REMARK    2  A    between atoms: O_2  and  C_3
REMARK    3  A    between atoms: C_3  and  C_4
REMARK    4  A    between atoms: C_4  and  N_5
REMARK    5  A    between atoms: N_5  and  C_6
REMARK    6  A    between atoms: C_6  and  C_7
REMARK    7  A    between atoms: N_9  and  C_10
REMARK    8  A    between atoms: C_15  and  S_16
REMARK    9  A    between atoms: S_16  and  C_17
REMARK                            x       y       z     vdW  Elec       q    Type
REMARK                         _______ _______ _______ _____ _____    ______ ____
ROOT
ATOM      1  C   UNL     1       2.795   4.097  18.835  0.00  0.00    +0.000 A 
ATOM      2  C   UNL     1       2.296   2.969  18.169  0.00  0.00    +0.000 A 
ATOM      3  C   UNL     1       1.083   2.399  18.553  0.00  0.00    +0.000 A 
ATOM      4  C   UNL     1       0.350   2.964  19.593  0.00  0.00    +0.000 A 
ATOM      5  C   UNL     1       0.835   4.095  20.257  0.00  0.00    +0.000 A 
ATOM      6  C   UNL     1       2.061   4.666  19.892  0.00  0.00    +0.000 A 
ENDROOT
BRANCH   1   9
ATOM      7  C   UNL     1       5.250   4.170  18.982  0.00  0.00    +0.000 C 
ATOM      8  O   UNL     1       5.385   3.155  19.663  0.00  0.00    +0.000 OA
ATOM      9  N   UNL     1       4.050   4.631  18.473  0.00  0.00    +0.000 N 
ATOM     10  H   UNL     1       4.080   5.215  17.646  0.00  0.00    +0.000 HD
BRANCH   7  11
ATOM     11  C   UNL     1       6.454   5.043  18.625  0.00  0.00    +0.000 C 
BRANCH  11  12
ATOM     12  N   UNL     1       7.400   4.309  17.771  0.00  0.00    +0.000 NA
ATOM     13  H   UNL     1       8.335   4.362  18.167  0.00  0.00    +0.000 HD
BRANCH  12  14
ATOM     14  C   UNL     1       7.420   4.835  16.393  0.00  0.00    +0.000 C 
BRANCH  14  15
ATOM     15  C   UNL     1       6.540   6.084  16.238  0.00  0.00    +0.000 C 
BRANCH  15  17
ATOM     16  C   UNL     1       5.709   4.618  14.586  0.00  0.00    +0.000 C 
ATOM     17  O   UNL     1       5.706   5.945  15.086  0.00  0.00    +0.000 OA
ENDBRANCH  15  17
ENDBRANCH  14  15
ENDBRANCH  12  14
ENDBRANCH  11  12
ENDBRANCH   7  11
ENDBRANCH   1   9
BRANCH   6  18
ATOM     18  S   UNL     1       2.629   6.124  20.760  0.00  0.00    +0.000 S 
BRANCH  18  19
ATOM     19  C   UNL     1       2.033   7.474  19.742  0.00  0.00    +0.000 A 
ATOM     20  C   UNL     1       1.267   8.473  20.358  0.00  0.00    +0.000 A 
ATOM     21  C   UNL     1       0.844   9.596  19.641  0.00  0.00    +0.000 A 
ATOM     22  C   UNL     1       1.186   9.735  18.298  0.00  0.00    +0.000 A 
ATOM     23  C   UNL     1       1.942   8.746  17.673  0.00  0.00    +0.000 A 
ATOM     24  C   UNL     1       2.364   7.622  18.391  0.00  0.00    +0.000 A 
ENDBRANCH  18  19
ENDBRANCH   6  18
TORSDOF 8
ENDMDL
