MODEL 1
REMARK VINA RESULT:      -8.6      0.000      0.000
REMARK  Name = 
REMARK  11 active torsions:
REMARK  status: ('A' for Active; 'I' for Inactive)
REMARK    1  A    between atoms: C_1  and  O_2
REMARK    2  A    between atoms: O_2  and  C_3
REMARK    3  A    between atoms: C_7  and  C_8
REMARK    4  A    between atoms: C_8  and  C_9
REMARK    5  A    between atoms: C_9  and  N_10
REMARK    6  A    between atoms: N_10  and  C_11
REMARK    7  A    between atoms: C_11  and  C_12
REMARK    8  A    between atoms: C_15  and  C_16
REMARK    9  A    between atoms: C_20  and  C_21
REMARK   10  A    between atoms: C_21  and  N_22
REMARK   11  A    between atoms: N_22  and  C_23
REMARK                            x       y       z     vdW  Elec       q    Type
REMARK                         _______ _______ _______ _____ _____    ______ ____
ROOT
ATOM      1  C   UNL     1       0.963   9.575  19.889  0.00  0.00    +0.000 A 
ATOM      2  C   UNL     1       1.364   8.387  20.509  0.00  0.00    +0.000 A 
ATOM      3  C   UNL     1       2.110   7.439  19.809  0.00  0.00    +0.000 A 
ATOM      4  C   UNL     1       2.486   7.643  18.469  0.00  0.00    +0.000 A 
ATOM      5  C   UNL     1       2.054   8.829  17.851  0.00  0.00    +0.000 A 
ATOM      6  C   UNL     1       1.301   9.779  18.546  0.00  0.00    +0.000 A 
ENDROOT
BRANCH   4   7
ATOM      7  C   UNL     1       3.329   6.664  17.752  0.00  0.00    +0.000 A 
ATOM      8  C   UNL     1       4.335   7.065  16.857  0.00  0.00    +0.000 A 
ATOM      9  C   UNL     1       5.131   6.128  16.193  0.00  0.00    +0.000 A 
ATOM     10  C   UNL     1       4.921   4.768  16.393  0.00  0.00    +0.000 A 
ATOM     11  C   UNL     1       3.921   4.329  17.268  0.00  0.00    +0.000 A 
ATOM     12  C   UNL     1       3.151   5.283  17.947  0.00  0.00    +0.000 A 
BRANCH  11  13
ATOM     13  C   UNL     1       3.624   2.859  17.440  0.00  0.00    +0.000 C 
BRANCH  13  14
ATOM     14  N   UNL     1       2.210   2.619  17.715  0.00  0.00    +0.000 NA
ATOM     15  H   UNL     1       1.883   1.866  17.112  0.00  0.00    +0.000 HD
BRANCH  14  16
ATOM     16  C   UNL     1       1.979   2.271  19.114  0.00  0.00    +0.000 C 
ATOM     17  C   UNL     1       3.203   2.446  20.011  0.00  0.00    +0.000 C 
ATOM     18  C   UNL     1       2.615   2.494  21.412  0.00  0.00    +0.000 C 
ATOM     19  C   UNL     1       1.236   3.129  21.259  0.00  0.00    +0.000 C 
ATOM     20  C   UNL     1       0.956   3.207  19.759  0.00  0.00    +0.000 C 
ENDBRANCH  14  16
ENDBRANCH  13  14
ENDBRANCH  11  13
ENDBRANCH   4   7
BRANCH   1  21
ATOM     21  C   UNL     1       0.191  10.618  20.648  0.00  0.00    +0.000 C 
BRANCH  21  22
ATOM     22  N   UNL     1       0.398  10.471  22.090  0.00  0.00    +0.000 NA
ATOM     23  H   UNL     1       0.746   9.536  22.285  0.00  0.00    +0.000 HD
BRANCH  22  24
ATOM     24  C   UNL     1      -0.845  10.699  22.821  0.00  0.00    +0.000 C 
BRANCH  24  25
ATOM     25  C   UNL     1      -1.140  12.202  22.894  0.00  0.00    +0.000 C 
BRANCH  25  30
ATOM     26  C   UNL     1      -4.492  13.015  21.279  0.00  0.00    +0.000 A 
ATOM     27  C   UNL     1      -5.322  13.064  22.401  0.00  0.00    +0.000 A 
ATOM     28  C   UNL     1      -4.807  12.823  23.677  0.00  0.00    +0.000 A 
ATOM     29  C   UNL     1      -3.455  12.530  23.836  0.00  0.00    +0.000 A 
ATOM     30  C   UNL     1      -2.612  12.472  22.722  0.00  0.00    +0.000 A 
ATOM     31  C   UNL     1      -3.138  12.715  21.443  0.00  0.00    +0.000 A 
BRANCH  26  33
ATOM     32  C   UNL     1      -6.512  13.048  20.028  0.00  0.00    +0.000 C 
ATOM     33  O   UNL     1      -5.113  13.288  20.089  0.00  0.00    +0.000 OA
ENDBRANCH  26  33
ENDBRANCH  25  30
ENDBRANCH  24  25
ENDBRANCH  22  24
ENDBRANCH  21  22
ENDBRANCH   1  21
TORSDOF 10
ENDMDL
MODEL 2
REMARK VINA RESULT:      -8.4      3.539     10.053
REMARK  Name = 
REMARK  11 active torsions:
REMARK  status: ('A' for Active; 'I' for Inactive)
REMARK    1  A    between atoms: C_1  and  O_2
REMARK    2  A    between atoms: O_2  and  C_3
REMARK    3  A    between atoms: C_7  and  C_8
REMARK    4  A    between atoms: C_8  and  C_9
REMARK    5  A    between atoms: C_9  and  N_10
REMARK    6  A    between atoms: N_10  and  C_11
REMARK    7  A    between atoms: C_11  and  C_12
REMARK    8  A    between atoms: C_15  and  C_16
REMARK    9  A    between atoms: C_20  and  C_21
REMARK   10  A    between atoms: C_21  and  N_22
REMARK   11  A    between atoms: N_22  and  C_23
REMARK                            x       y       z     vdW  Elec       q    Type
REMARK                         _______ _______ _______ _____ _____    ______ ____
ROOT
ATOM      1  C   UNL     1       2.804   4.599  18.289  0.00  0.00    +0.000 A 
ATOM      2  C   UNL     1       2.153   4.517  19.524  0.00  0.00    +0.000 A 
ATOM      3  C   UNL     1       1.743   5.674  20.188  0.00  0.00    +0.000 A 
ATOM      4  C   UNL     1       1.962   6.951  19.640  0.00  0.00    +0.000 A 
ATOM      5  C   UNL     1       2.640   7.019  18.412  0.00  0.00    +0.000 A 
ATOM      6  C   UNL     1       3.059   5.863  17.747  0.00  0.00    +0.000 A 
ENDROOT
BRANCH   4   7
ATOM      7  C   UNL     1       1.470   8.169  20.317  0.00  0.00    +0.000 A 
ATOM      8  C   UNL     1       1.410   8.268  21.717  0.00  0.00    +0.000 A 
ATOM      9  C   UNL     1       0.951   9.429  22.344  0.00  0.00    +0.000 A 
ATOM     10  C   UNL     1       0.520  10.509  21.581  0.00  0.00    +0.000 A 
ATOM     11  C   UNL     1       0.554  10.446  20.183  0.00  0.00    +0.000 A 
ATOM     12  C   UNL     1       1.044   9.284  19.572  0.00  0.00    +0.000 A 
BRANCH  11  13
ATOM     13  C   UNL     1       0.019  11.575  19.337  0.00  0.00    +0.000 C 
BRANCH  13  14
ATOM     14  N   UNL     1      -0.251  11.146  17.967  0.00  0.00    +0.000 NA
ATOM     15  H   UNL     1       0.039  10.174  17.865  0.00  0.00    +0.000 HD
BRANCH  14  16
ATOM     16  C   UNL     1      -1.664  11.280  17.622  0.00  0.00    +0.000 C 
ATOM     17  C   UNL     1      -2.413   9.952  17.535  0.00  0.00    +0.000 C 
ATOM     18  C   UNL     1      -3.874  10.357  17.647  0.00  0.00    +0.000 C 
ATOM     19  C   UNL     1      -3.891  11.599  18.534  0.00  0.00    +0.000 C 
ATOM     20  C   UNL     1      -2.434  12.026  18.712  0.00  0.00    +0.000 C 
ENDBRANCH  14  16
ENDBRANCH  13  14
ENDBRANCH  11  13
ENDBRANCH   4   7
BRANCH   1  21
ATOM     21  C   UNL     1       3.216   3.355  17.551  0.00  0.00    +0.000 C 
BRANCH  21  22
ATOM     22  N   UNL     1       4.660   3.344  17.316  0.00  0.00    +0.000 NA
ATOM     23  H   UNL     1       5.125   3.857  18.060  0.00  0.00    +0.000 HD
BRANCH  22  24
ATOM     24  C   UNL     1       4.983   3.945  16.025  0.00  0.00    +0.000 C 
BRANCH  24  25
ATOM     25  C   UNL     1       6.500   4.126  15.898  0.00  0.00    +0.000 C 
BRANCH  25  30
ATOM     26  C   UNL     1       7.528   7.416  17.519  0.00  0.00    +0.000 A 
ATOM     27  C   UNL     1       8.043   6.963  18.735  0.00  0.00    +0.000 A 
ATOM     28  C   UNL     1       8.049   5.600  19.040  0.00  0.00    +0.000 A 
ATOM     29  C   UNL     1       7.537   4.681  18.128  0.00  0.00    +0.000 A 
ATOM     30  C   UNL     1       7.013   5.120  16.908  0.00  0.00    +0.000 A 
ATOM     31  C   UNL     1       7.010   6.492  16.609  0.00  0.00    +0.000 A 
BRANCH  26  33
ATOM     32  C   UNL     1       8.437   9.497  18.217  0.00  0.00    +0.000 C 
ATOM     33  O   UNL     1       7.596   8.772  17.331  0.00  0.00    +0.000 OA
ENDBRANCH  26  33
ENDBRANCH  25  30
ENDBRANCH  24  25
ENDBRANCH  22  24
ENDBRANCH  21  22
ENDBRANCH   1  21
TORSDOF 10
ENDMDL
MODEL 3
REMARK VINA RESULT:      -8.4      3.247      4.431
REMARK  Name = 
REMARK  11 active torsions:
REMARK  status: ('A' for Active; 'I' for Inactive)
REMARK    1  A    between atoms: C_1  and  O_2
REMARK    2  A    between atoms: O_2  and  C_3
REMARK    3  A    between atoms: C_7  and  C_8
REMARK    4  A    between atoms: C_8  and  C_9
REMARK    5  A    between atoms: C_9  and  N_10
REMARK    6  A    between atoms: N_10  and  C_11
REMARK    7  A    between atoms: C_11  and  C_12
REMARK    8  A    between atoms: C_15  and  C_16
REMARK    9  A    between atoms: C_20  and  C_21
REMARK   10  A    between atoms: C_21  and  N_22
REMARK   11  A    between atoms: N_22  and  C_23
REMARK                            x       y       z     vdW  Elec       q    Type
REMARK                         _______ _______ _______ _____ _____    ______ ____
ROOT
ATOM      1  C   UNL     1       0.984   9.671  19.620  0.00  0.00    +0.000 A 
ATOM      2  C   UNL     1       1.385   8.514  20.295  0.00  0.00    +0.000 A 
ATOM      3  C   UNL     1       2.186   7.565  19.660  0.00  0.00    +0.000 A 
ATOM      4  C   UNL     1       2.619   7.739  18.333  0.00  0.00    +0.000 A 
ATOM      5  C   UNL     1       2.186   8.894  17.660  0.00  0.00    +0.000 A 
ATOM      6  C   UNL     1       1.378   9.844  18.289  0.00  0.00    +0.000 A 
ENDROOT
BRANCH   4   7
ATOM      7  C   UNL     1       3.518   6.761  17.686  0.00  0.00    +0.000 A 
ATOM      8  C   UNL     1       4.576   7.163  16.854  0.00  0.00    +0.000 A 
ATOM      9  C   UNL     1       5.425   6.228  16.256  0.00  0.00    +0.000 A 
ATOM     10  C   UNL     1       5.218   4.868  16.461  0.00  0.00    +0.000 A 
ATOM     11  C   UNL     1       4.168   4.427  17.275  0.00  0.00    +0.000 A 
ATOM     12  C   UNL     1       3.345   5.380  17.889  0.00  0.00    +0.000 A 
BRANCH  11  13
ATOM     13  C   UNL     1       3.879   2.956  17.448  0.00  0.00    +0.000 C 
BRANCH  13  14
ATOM     14  N   UNL     1       4.215   2.492  18.792  0.00  0.00    +0.000 NA
ATOM     15  H   UNL     1       4.763   3.212  19.259  0.00  0.00    +0.000 HD
BRANCH  14  16
ATOM     16  C   UNL     1       3.023   2.187  19.578  0.00  0.00    +0.000 C 
ATOM     17  C   UNL     1       2.741   3.189  20.697  0.00  0.00    +0.000 C 
ATOM     18  C   UNL     1       1.277   2.951  21.029  0.00  0.00    +0.000 C 
ATOM     19  C   UNL     1       0.622   2.518  19.720  0.00  0.00    +0.000 C 
ATOM     20  C   UNL     1       1.757   2.277  18.725  0.00  0.00    +0.000 C 
ENDBRANCH  14  16
ENDBRANCH  13  14
ENDBRANCH  11  13
ENDBRANCH   4   7
BRANCH   1  21
ATOM     21  C   UNL     1       0.151  10.717  20.311  0.00  0.00    +0.000 C 
BRANCH  21  22
ATOM     22  N   UNL     1       0.969  11.507  21.233  0.00  0.00    +0.000 NA
ATOM     23  H   UNL     1       0.773  11.217  22.188  0.00  0.00    +0.000 HD
BRANCH  22  24
ATOM     24  C   UNL     1       0.696  12.932  21.083  0.00  0.00    +0.000 C 
BRANCH  24  25
ATOM     25  C   UNL     1       0.388  13.254  19.616  0.00  0.00    +0.000 C 
BRANCH  25  30
ATOM     26  C   UNL     1       2.153  16.370  18.318  0.00  0.00    +0.000 A 
ATOM     27  C   UNL     1       3.352  15.823  17.859  0.00  0.00    +0.000 A 
ATOM     28  C   UNL     1       3.600  14.455  17.977  0.00  0.00    +0.000 A 
ATOM     29  C   UNL     1       2.647  13.623  18.559  0.00  0.00    +0.000 A 
ATOM     30  C   UNL     1       1.442  14.156  19.028  0.00  0.00    +0.000 A 
ATOM     31  C   UNL     1       1.201  15.534  18.906  0.00  0.00    +0.000 A 
BRANCH  26  33
ATOM     32  C   UNL     1       0.930  18.355  18.779  0.00  0.00    +0.000 C 
ATOM     33  O   UNL     1       2.022  17.721  18.128  0.00  0.00    +0.000 OA
ENDBRANCH  26  33
ENDBRANCH  25  30
ENDBRANCH  24  25
ENDBRANCH  22  24
ENDBRANCH  21  22
ENDBRANCH   1  21
TORSDOF 10
ENDMDL
MODEL 4
REMARK VINA RESULT:      -8.4      2.421      3.034
REMARK  Name = 
REMARK  11 active torsions:
REMARK  status: ('A' for Active; 'I' for Inactive)
REMARK    1  A    between atoms: C_1  and  O_2
REMARK    2  A    between atoms: O_2  and  C_3
REMARK    3  A    between atoms: C_7  and  C_8
REMARK    4  A    between atoms: C_8  and  C_9
REMARK    5  A    between atoms: C_9  and  N_10
REMARK    6  A    between atoms: N_10  and  C_11
REMARK    7  A    between atoms: C_11  and  C_12
REMARK    8  A    between atoms: C_15  and  C_16
REMARK    9  A    between atoms: C_20  and  C_21
REMARK   10  A    between atoms: C_21  and  N_22
REMARK   11  A    between atoms: N_22  and  C_23
REMARK                            x       y       z     vdW  Elec       q    Type
REMARK                         _______ _______ _______ _____ _____    ______ ____
ROOT
ATOM      1  C   UNL     1       1.177   9.355  19.758  0.00  0.00    +0.000 A 
ATOM      2  C   UNL     1       1.648   8.223  20.431  0.00  0.00    +0.000 A 
ATOM      3  C   UNL     1       2.373   7.244  19.751  0.00  0.00    +0.000 A 
ATOM      4  C   UNL     1       2.657   7.362  18.378  0.00  0.00    +0.000 A 
ATOM      5  C   UNL     1       2.154   8.492  17.710  0.00  0.00    +0.000 A 
ATOM      6  C   UNL     1       1.422   9.471  18.386  0.00  0.00    +0.000 A 
ENDROOT
BRANCH   4   7
ATOM      7  C   UNL     1       3.478   6.354  17.676  0.00  0.00    +0.000 A 
ATOM      8  C   UNL     1       4.397   6.711  16.676  0.00  0.00    +0.000 A 
ATOM      9  C   UNL     1       5.174   5.748  16.027  0.00  0.00    +0.000 A 
ATOM     10  C   UNL     1       5.030   4.403  16.350  0.00  0.00    +0.000 A 
ATOM     11  C   UNL     1       4.117   4.006  17.333  0.00  0.00    +0.000 A 
ATOM     12  C   UNL     1       3.367   4.989  17.994  0.00  0.00    +0.000 A 
BRANCH  11  13
ATOM     13  C   UNL     1       3.889   2.547  17.644  0.00  0.00    +0.000 C 
BRANCH  13  14
ATOM     14  N   UNL     1       2.468   2.236  17.777  0.00  0.00    +0.000 NA
ATOM     15  H   UNL     1       2.263   1.402  17.228  0.00  0.00    +0.000 HD
BRANCH  14  16
ATOM     16  C   UNL     1       2.085   2.019  19.169  0.00  0.00    +0.000 C 
ATOM     17  C   UNL     1       3.177   2.372  20.178  0.00  0.00    +0.000 C 
ATOM     18  C   UNL     1       2.419   2.524  21.487  0.00  0.00    +0.000 C 
ATOM     19  C   UNL     1       1.035   3.043  21.104  0.00  0.00    +0.000 C 
ATOM     20  C   UNL     1       0.940   2.944  19.582  0.00  0.00    +0.000 C 
ENDBRANCH  14  16
ENDBRANCH  13  14
ENDBRANCH  11  13
ENDBRANCH   4   7
BRANCH   1  21
ATOM     21  C   UNL     1       0.427  10.432  20.494  0.00  0.00    +0.000 C 
BRANCH  21  22
ATOM     22  N   UNL     1      -0.766  10.836  19.748  0.00  0.00    +0.000 NA
ATOM     23  H   UNL     1      -0.650  10.588  18.769  0.00  0.00    +0.000 HD
BRANCH  22  24
ATOM     24  C   UNL     1      -0.996  12.272  19.871  0.00  0.00    +0.000 C 
BRANCH  24  25
ATOM     25  C   UNL     1      -2.501  12.557  19.928  0.00  0.00    +0.000 C 
BRANCH  25  30
ATOM     26  C   UNL     1      -3.157  11.052  16.491  0.00  0.00    +0.000 A 
ATOM     27  C   UNL     1      -4.540  10.865  16.544  0.00  0.00    +0.000 A 
ATOM     28  C   UNL     1      -5.261  11.211  17.688  0.00  0.00    +0.000 A 
ATOM     29  C   UNL     1      -4.600  11.746  18.791  0.00  0.00    +0.000 A 
ATOM     30  C   UNL     1      -3.214  11.935  18.755  0.00  0.00    +0.000 A 
ATOM     31  C   UNL     1      -2.497  11.584  17.601  0.00  0.00    +0.000 A 
BRANCH  26  33
ATOM     32  C   UNL     1      -3.428  10.181  14.297  0.00  0.00    +0.000 C 
ATOM     33  O   UNL     1      -2.569  10.691  15.307  0.00  0.00    +0.000 OA
ENDBRANCH  26  33
ENDBRANCH  25  30
ENDBRANCH  24  25
ENDBRANCH  22  24
ENDBRANCH  21  22
ENDBRANCH   1  21
TORSDOF 10
ENDMDL
MODEL 5
REMARK VINA RESULT:      -8.3      3.181      4.532
REMARK  Name = 
REMARK  11 active torsions:
REMARK  status: ('A' for Active; 'I' for Inactive)
REMARK    1  A    between atoms: C_1  and  O_2
REMARK    2  A    between atoms: O_2  and  C_3
REMARK    3  A    between atoms: C_7  and  C_8
REMARK    4  A    between atoms: C_8  and  C_9
REMARK    5  A    between atoms: C_9  and  N_10
REMARK    6  A    between atoms: N_10  and  C_11
REMARK    7  A    between atoms: C_11  and  C_12
REMARK    8  A    between atoms: C_15  and  C_16
REMARK    9  A    between atoms: C_20  and  C_21
REMARK   10  A    between atoms: C_21  and  N_22
REMARK   11  A    between atoms: N_22  and  C_23
REMARK                            x       y       z     vdW  Elec       q    Type
REMARK                         _______ _______ _______ _____ _____    ______ ____
ROOT
ATOM      1  C   UNL     1       0.940   9.452  19.754  0.00  0.00    +0.000 A 
ATOM      2  C   UNL     1       1.363   9.685  18.442  0.00  0.00    +0.000 A 
ATOM      3  C   UNL     1       2.197   8.775  17.793  0.00  0.00    +0.000 A 
ATOM      4  C   UNL     1       2.634   7.598  18.428  0.00  0.00    +0.000 A 
ATOM      5  C   UNL     1       2.222   7.390  19.755  0.00  0.00    +0.000 A 
ATOM      6  C   UNL     1       1.392   8.303  20.411  0.00  0.00    +0.000 A 
ENDROOT
BRANCH   4   7
ATOM      7  C   UNL     1       3.466   6.606  17.715  0.00  0.00    +0.000 A 
ATOM      8  C   UNL     1       4.382   6.985  16.720  0.00  0.00    +0.000 A 
ATOM      9  C   UNL     1       5.169   6.038  16.060  0.00  0.00    +0.000 A 
ATOM     10  C   UNL     1       5.039   4.687  16.367  0.00  0.00    +0.000 A 
ATOM     11  C   UNL     1       4.129   4.269  17.345  0.00  0.00    +0.000 A 
ATOM     12  C   UNL     1       3.369   5.236  18.016  0.00  0.00    +0.000 A 
BRANCH  11  13
ATOM     13  C   UNL     1       3.916   2.804  17.638  0.00  0.00    +0.000 C 
BRANCH  13  14
ATOM     14  N   UNL     1       2.500   2.481  17.787  0.00  0.00    +0.000 NA
ATOM     15  H   UNL     1       2.286   1.672  17.205  0.00  0.00    +0.000 HD
BRANCH  14  16
ATOM     16  C   UNL     1       2.148   2.199  19.176  0.00  0.00    +0.000 C 
ATOM     17  C   UNL     1       3.265   2.497  20.175  0.00  0.00    +0.000 C 
ATOM     18  C   UNL     1       2.539   2.589  21.507  0.00  0.00    +0.000 C 
ATOM     19  C   UNL     1       1.149   3.132  21.182  0.00  0.00    +0.000 C 
ATOM     20  C   UNL     1       1.018   3.107  19.660  0.00  0.00    +0.000 C 
ENDBRANCH  14  16
ENDBRANCH  13  14
ENDBRANCH  11  13
ENDBRANCH   4   7
BRANCH   1  21
ATOM     21  C   UNL     1       0.011  10.411  20.447  0.00  0.00    +0.000 C 
BRANCH  21  22
ATOM     22  N   UNL     1      -0.682  11.257  19.474  0.00  0.00    +0.000 NA
ATOM     23  H   UNL     1      -0.252  11.140  18.560  0.00  0.00    +0.000 HD
BRANCH  22  24
ATOM     24  C   UNL     1      -0.626  12.661  19.870  0.00  0.00    +0.000 C 
BRANCH  24  25
ATOM     25  C   UNL     1      -0.414  13.544  18.635  0.00  0.00    +0.000 C 
BRANCH  25  30
ATOM     26  C   UNL     1       2.420  16.083  18.806  0.00  0.00    +0.000 A 
ATOM     27  C   UNL     1       3.521  15.270  18.528  0.00  0.00    +0.000 A 
ATOM     28  C   UNL     1       3.355  13.903  18.298  0.00  0.00    +0.000 A 
ATOM     29  C   UNL     1       2.082  13.340  18.346  0.00  0.00    +0.000 A 
ATOM     30  C   UNL     1       0.970  14.140  18.628  0.00  0.00    +0.000 A 
ATOM     31  C   UNL     1       1.146  15.513  18.859  0.00  0.00    +0.000 A 
BRANCH  26  33
ATOM     32  C   UNL     1       2.616  17.901  20.324  0.00  0.00    +0.000 C 
ATOM     33  O   UNL     1       2.713  17.408  18.995  0.00  0.00    +0.000 OA
ENDBRANCH  26  33
ENDBRANCH  25  30
ENDBRANCH  24  25
ENDBRANCH  22  24
ENDBRANCH  21  22
ENDBRANCH   1  21
TORSDOF 10
ENDMDL
MODEL 6
REMARK VINA RESULT:      -8.3      2.088      2.944
REMARK  Name = 
REMARK  11 active torsions:
REMARK  status: ('A' for Active; 'I' for Inactive)
REMARK    1  A    between atoms: C_1  and  O_2
REMARK    2  A    between atoms: O_2  and  C_3
REMARK    3  A    between atoms: C_7  and  C_8
REMARK    4  A    between atoms: C_8  and  C_9
REMARK    5  A    between atoms: C_9  and  N_10
REMARK    6  A    between atoms: N_10  and  C_11
REMARK    7  A    between atoms: C_11  and  C_12
REMARK    8  A    between atoms: C_15  and  C_16
REMARK    9  A    between atoms: C_20  and  C_21
REMARK   10  A    between atoms: C_21  and  N_22
REMARK   11  A    between atoms: N_22  and  C_23
REMARK                            x       y       z     vdW  Elec       q    Type
REMARK                         _______ _______ _______ _____ _____    ______ ____
ROOT
ATOM      1  C   UNL     1       1.121   9.592  19.621  0.00  0.00    +0.000 A 
ATOM      2  C   UNL     1       1.470   8.430  20.316  0.00  0.00    +0.000 A 
ATOM      3  C   UNL     1       2.208   7.425  19.692  0.00  0.00    +0.000 A 
ATOM      4  C   UNL     1       2.629   7.546  18.354  0.00  0.00    +0.000 A 
ATOM      5  C   UNL     1       2.248   8.707  17.661  0.00  0.00    +0.000 A 
ATOM      6  C   UNL     1       1.502   9.713  18.281  0.00  0.00    +0.000 A 
ENDROOT
BRANCH   4   7
ATOM      7  C   UNL     1       3.463   6.506  17.717  0.00  0.00    +0.000 A 
ATOM      8  C   UNL     1       4.677   6.816  17.081  0.00  0.00    +0.000 A 
ATOM      9  C   UNL     1       5.462   5.822  16.491  0.00  0.00    +0.000 A 
ATOM     10  C   UNL     1       5.035   4.498  16.504  0.00  0.00    +0.000 A 
ATOM     11  C   UNL     1       3.826   4.151  17.118  0.00  0.00    +0.000 A 
ATOM     12  C   UNL     1       3.067   5.157  17.730  0.00  0.00    +0.000 A 
BRANCH  11  13
ATOM     13  C   UNL     1       3.308   2.734  17.076  0.00  0.00    +0.000 C 
BRANCH  13  14
ATOM     14  N   UNL     1       3.450   2.066  18.368  0.00  0.00    +0.000 NA
ATOM     15  H   UNL     1       4.442   1.951  18.569  0.00  0.00    +0.000 HD
BRANCH  14  16
ATOM     16  C   UNL     1       2.809   2.817  19.443  0.00  0.00    +0.000 C 
ATOM     17  C   UNL     1       1.322   2.512  19.616  0.00  0.00    +0.000 C 
ATOM     18  C   UNL     1       1.016   3.010  21.020  0.00  0.00    +0.000 C 
ATOM     19  C   UNL     1       2.302   2.811  21.817  0.00  0.00    +0.000 C 
ATOM     20  C   UNL     1       3.387   2.439  20.807  0.00  0.00    +0.000 C 
ENDBRANCH  14  16
ENDBRANCH  13  14
ENDBRANCH  11  13
ENDBRANCH   4   7
BRANCH   1  21
ATOM     21  C   UNL     1       0.357  10.696  20.300  0.00  0.00    +0.000 C 
BRANCH  21  22
ATOM     22  N   UNL     1       0.579  11.974  19.623  0.00  0.00    +0.000 NA
ATOM     23  H   UNL     1       1.295  12.498  20.120  0.00  0.00    +0.000 HD
BRANCH  22  24
ATOM     24  C   UNL     1      -0.652  12.755  19.563  0.00  0.00    +0.000 C 
BRANCH  24  25
ATOM     25  C   UNL     1      -1.859  11.849  19.834  0.00  0.00    +0.000 C 
BRANCH  25  30
ATOM     26  C   UNL     1      -4.750  11.554  17.371  0.00  0.00    +0.000 A 
ATOM     27  C   UNL     1      -4.095  11.024  16.257  0.00  0.00    +0.000 A 
ATOM     28  C   UNL     1      -2.723  10.772  16.292  0.00  0.00    +0.000 A 
ATOM     29  C   UNL     1      -1.994  11.052  17.446  0.00  0.00    +0.000 A 
ATOM     30  C   UNL     1      -2.634  11.588  18.568  0.00  0.00    +0.000 A 
ATOM     31  C   UNL     1      -4.015  11.838  18.524  0.00  0.00    +0.000 A 
BRANCH  26  33
ATOM     32  C   UNL     1      -6.921  11.393  18.323  0.00  0.00    +0.000 C 
ATOM     33  O   UNL     1      -6.099  11.737  17.216  0.00  0.00    +0.000 OA
ENDBRANCH  26  33
ENDBRANCH  25  30
ENDBRANCH  24  25
ENDBRANCH  22  24
ENDBRANCH  21  22
ENDBRANCH   1  21
TORSDOF 10
ENDMDL
MODEL 7
REMARK VINA RESULT:      -8.2      2.345      3.906
REMARK  Name = 
REMARK  11 active torsions:
REMARK  status: ('A' for Active; 'I' for Inactive)
REMARK    1  A    between atoms: C_1  and  O_2
REMARK    2  A    between atoms: O_2  and  C_3
REMARK    3  A    between atoms: C_7  and  C_8
REMARK    4  A    between atoms: C_8  and  C_9
REMARK    5  A    between atoms: C_9  and  N_10
REMARK    6  A    between atoms: N_10  and  C_11
REMARK    7  A    between atoms: C_11  and  C_12
REMARK    8  A    between atoms: C_15  and  C_16
REMARK    9  A    between atoms: C_20  and  C_21
REMARK   10  A    between atoms: C_21  and  N_22
REMARK   11  A    between atoms: N_22  and  C_23
REMARK                            x       y       z     vdW  Elec       q    Type
REMARK                         _______ _______ _______ _____ _____    ______ ____
ROOT
ATOM      1  C   UNL     1       1.387   9.738  19.503  0.00  0.00    +0.000 A 
ATOM      2  C   UNL     1       1.423   8.674  20.410  0.00  0.00    +0.000 A 
ATOM      3  C   UNL     1       1.770   7.392  19.985  0.00  0.00    +0.000 A 
ATOM      4  C   UNL     1       2.099   7.127  18.643  0.00  0.00    +0.000 A 
ATOM      5  C   UNL     1       2.033   8.200  17.739  0.00  0.00    +0.000 A 
ATOM      6  C   UNL     1       1.679   9.485  18.159  0.00  0.00    +0.000 A 
ENDROOT
BRANCH   4   7
ATOM      7  C   UNL     1       2.526   5.780  18.211  0.00  0.00    +0.000 A 
ATOM      8  C   UNL     1       1.778   4.631  18.516  0.00  0.00    +0.000 A 
ATOM      9  C   UNL     1       2.190   3.364  18.092  0.00  0.00    +0.000 A 
ATOM     10  C   UNL     1       3.372   3.219  17.374  0.00  0.00    +0.000 A 
ATOM     11  C   UNL     1       4.150   4.339  17.060  0.00  0.00    +0.000 A 
ATOM     12  C   UNL     1       3.708   5.604  17.468  0.00  0.00    +0.000 A 
BRANCH  11  13
ATOM     13  C   UNL     1       5.474   4.195  16.350  0.00  0.00    +0.000 C 
BRANCH  13  14
ATOM     14  N   UNL     1       6.038   5.493  15.986  0.00  0.00    +0.000 NA
ATOM     15  H   UNL     1       5.312   6.202  16.079  0.00  0.00    +0.000 HD
BRANCH  14  16
ATOM     16  C   UNL     1       7.184   5.843  16.820  0.00  0.00    +0.000 C 
ATOM     17  C   UNL     1       7.140   7.266  17.375  0.00  0.00    +0.000 C 
ATOM     18  C   UNL     1       8.121   7.228  18.535  0.00  0.00    +0.000 C 
ATOM     19  C   UNL     1       8.053   5.806  19.087  0.00  0.00    +0.000 C 
ATOM     20  C   UNL     1       7.229   4.992  18.090  0.00  0.00    +0.000 C 
ENDBRANCH  14  16
ENDBRANCH  13  14
ENDBRANCH  11  13
ENDBRANCH   4   7
BRANCH   1  21
ATOM     21  C   UNL     1       1.050  11.131  19.962  0.00  0.00    +0.000 C 
BRANCH  21  22
ATOM     22  N   UNL     1       0.700  11.139  21.383  0.00  0.00    +0.000 NA
ATOM     23  H   UNL     1       0.927  10.236  21.791  0.00  0.00    +0.000 HD
BRANCH  22  24
ATOM     24  C   UNL     1      -0.719  11.424  21.570  0.00  0.00    +0.000 C 
BRANCH  24  25
ATOM     25  C   UNL     1      -1.131  12.617  20.700  0.00  0.00    +0.000 C 
BRANCH  25  30
ATOM     26  C   UNL     1      -3.576  11.420  18.036  0.00  0.00    +0.000 A 
ATOM     27  C   UNL     1      -4.785  11.881  18.559  0.00  0.00    +0.000 A 
ATOM     28  C   UNL     1      -4.818  12.567  19.775  0.00  0.00    +0.000 A 
ATOM     29  C   UNL     1      -3.636  12.794  20.477  0.00  0.00    +0.000 A 
ATOM     30  C   UNL     1      -2.417  12.333  19.968  0.00  0.00    +0.000 A 
ATOM     31  C   UNL     1      -2.394  11.645  18.745  0.00  0.00    +0.000 A 
BRANCH  26  33
ATOM     32  C   UNL     1      -2.571   9.974  16.440  0.00  0.00    +0.000 C 
ATOM     33  O   UNL     1      -3.675  10.780  16.828  0.00  0.00    +0.000 OA
ENDBRANCH  26  33
ENDBRANCH  25  30
ENDBRANCH  24  25
ENDBRANCH  22  24
ENDBRANCH  21  22
ENDBRANCH   1  21
TORSDOF 10
ENDMDL
MODEL 8
REMARK VINA RESULT:      -8.1      1.660      2.367
REMARK  Name = 
REMARK  11 active torsions:
REMARK  status: ('A' for Active; 'I' for Inactive)
REMARK    1  A    between atoms: C_1  and  O_2
REMARK    2  A    between atoms: O_2  and  C_3
REMARK    3  A    between atoms: C_7  and  C_8
REMARK    4  A    between atoms: C_8  and  C_9
REMARK    5  A    between atoms: C_9  and  N_10
REMARK    6  A    between atoms: N_10  and  C_11
REMARK    7  A    between atoms: C_11  and  C_12
REMARK    8  A    between atoms: C_15  and  C_16
REMARK    9  A    between atoms: C_20  and  C_21
REMARK   10  A    between atoms: C_21  and  N_22
REMARK   11  A    between atoms: N_22  and  C_23
REMARK                            x       y       z     vdW  Elec       q    Type
REMARK                         _______ _______ _______ _____ _____    ______ ____
ROOT
ATOM      1  C   UNL     1       0.936   9.330  19.994  0.00  0.00    +0.000 A 
ATOM      2  C   UNL     1       1.312   9.626  18.680  0.00  0.00    +0.000 A 
ATOM      3  C   UNL     1       2.154   8.768  17.973  0.00  0.00    +0.000 A 
ATOM      4  C   UNL     1       2.646   7.582  18.550  0.00  0.00    +0.000 A 
ATOM      5  C   UNL     1       2.281   7.312  19.879  0.00  0.00    +0.000 A 
ATOM      6  C   UNL     1       1.443   8.173  20.593  0.00  0.00    +0.000 A 
ENDROOT
BRANCH   4   7
ATOM      7  C   UNL     1       3.487   6.645  17.776  0.00  0.00    +0.000 A 
ATOM      8  C   UNL     1       4.446   7.097  16.854  0.00  0.00    +0.000 A 
ATOM      9  C   UNL     1       5.241   6.200  16.136  0.00  0.00    +0.000 A 
ATOM     10  C   UNL     1       5.076   4.830  16.309  0.00  0.00    +0.000 A 
ATOM     11  C   UNL     1       4.123   4.340  17.210  0.00  0.00    +0.000 A 
ATOM     12  C   UNL     1       3.355   5.255  17.942  0.00  0.00    +0.000 A 
BRANCH  11  13
ATOM     13  C   UNL     1       3.875   2.859  17.355  0.00  0.00    +0.000 C 
BRANCH  13  14
ATOM     14  N   UNL     1       4.202   2.383  18.697  0.00  0.00    +0.000 NA
ATOM     15  H   UNL     1       4.779   3.083  19.160  0.00  0.00    +0.000 HD
BRANCH  14  16
ATOM     16  C   UNL     1       3.005   2.123  19.490  0.00  0.00    +0.000 C 
ATOM     17  C   UNL     1       2.766   3.135  20.609  0.00  0.00    +0.000 C 
ATOM     18  C   UNL     1       1.296   2.951  20.951  0.00  0.00    +0.000 C 
ATOM     19  C   UNL     1       0.618   2.539  19.647  0.00  0.00    +0.000 C 
ATOM     20  C   UNL     1       1.737   2.256  18.646  0.00  0.00    +0.000 C 
ENDBRANCH  14  16
ENDBRANCH  13  14
ENDBRANCH  11  13
ENDBRANCH   4   7
BRANCH   1  21
ATOM     21  C   UNL     1      -0.002  10.233  20.748  0.00  0.00    +0.000 C 
BRANCH  21  22
ATOM     22  N   UNL     1       0.723  11.360  21.337  0.00  0.00    +0.000 NA
ATOM     23  H   UNL     1       1.300  11.024  22.105  0.00  0.00    +0.000 HD
BRANCH  22  24
ATOM     24  C   UNL     1      -0.202  12.379  21.823  0.00  0.00    +0.000 C 
BRANCH  24  25
ATOM     25  C   UNL     1      -1.181  11.760  22.827  0.00  0.00    +0.000 C 
BRANCH  25  30
ATOM     26  C   UNL     1      -2.672  15.069  23.981  0.00  0.00    +0.000 A 
ATOM     27  C   UNL     1      -3.968  14.673  24.317  0.00  0.00    +0.000 A 
ATOM     28  C   UNL     1      -4.368  13.345  24.161  0.00  0.00    +0.000 A 
ATOM     29  C   UNL     1      -3.471  12.402  23.665  0.00  0.00    +0.000 A 
ATOM     30  C   UNL     1      -2.170  12.785  23.320  0.00  0.00    +0.000 A 
ATOM     31  C   UNL     1      -1.776  14.123  23.479  0.00  0.00    +0.000 A 
BRANCH  26  33
ATOM     32  C   UNL     1      -2.313  16.816  25.552  0.00  0.00    +0.000 C 
ATOM     33  O   UNL     1      -2.398  16.394  24.198  0.00  0.00    +0.000 OA
ENDBRANCH  26  33
ENDBRANCH  25  30
ENDBRANCH  24  25
ENDBRANCH  22  24
ENDBRANCH  21  22
ENDBRANCH   1  21
TORSDOF 10
ENDMDL
MODEL 9
REMARK VINA RESULT:      -8.1      2.713      4.335
REMARK  Name = 
REMARK  11 active torsions:
REMARK  status: ('A' for Active; 'I' for Inactive)
REMARK    1  A    between atoms: C_1  and  O_2
REMARK    2  A    between atoms: O_2  and  C_3
REMARK    3  A    between atoms: C_7  and  C_8
REMARK    4  A    between atoms: C_8  and  C_9
REMARK    5  A    between atoms: C_9  and  N_10
REMARK    6  A    between atoms: N_10  and  C_11
REMARK    7  A    between atoms: C_11  and  C_12
REMARK    8  A    between atoms: C_15  and  C_16
REMARK    9  A    between atoms: C_20  and  C_21
REMARK   10  A    between atoms: C_21  and  N_22
REMARK   11  A    between atoms: N_22  and  C_23
REMARK                            x       y       z     vdW  Elec       q    Type
REMARK                         _______ _______ _______ _____ _____    ______ ____
ROOT
ATOM      1  C   UNL     1       1.259   9.416  19.649  0.00  0.00    +0.000 A 
ATOM      2  C   UNL     1       1.416   8.374  20.568  0.00  0.00    +0.000 A 
ATOM      3  C   UNL     1       1.951   7.149  20.167  0.00  0.00    +0.000 A 
ATOM      4  C   UNL     1       2.352   6.924  18.837  0.00  0.00    +0.000 A 
ATOM      5  C   UNL     1       2.164   7.971  17.920  0.00  0.00    +0.000 A 
ATOM      6  C   UNL     1       1.622   9.197  18.316  0.00  0.00    +0.000 A 
ENDROOT
BRANCH   4   7
ATOM      7  C   UNL     1       2.976   5.647  18.432  0.00  0.00    +0.000 A 
ATOM      8  C   UNL     1       2.844   4.479  19.202  0.00  0.00    +0.000 A 
ATOM      9  C   UNL     1       3.431   3.276  18.801  0.00  0.00    +0.000 A 
ATOM     10  C   UNL     1       4.183   3.222  17.633  0.00  0.00    +0.000 A 
ATOM     11  C   UNL     1       4.347   4.367  16.844  0.00  0.00    +0.000 A 
ATOM     12  C   UNL     1       3.727   5.558  17.246  0.00  0.00    +0.000 A 
BRANCH  11  13
ATOM     13  C   UNL     1       5.222   4.350  15.614  0.00  0.00    +0.000 C 
BRANCH  13  14
ATOM     14  N   UNL     1       6.620   4.623  15.939  0.00  0.00    +0.000 NA
ATOM     15  H   UNL     1       7.029   5.172  15.185  0.00  0.00    +0.000 HD
BRANCH  14  16
ATOM     16  C   UNL     1       6.756   5.338  17.204  0.00  0.00    +0.000 C 
ATOM     17  C   UNL     1       7.742   4.697  18.180  0.00  0.00    +0.000 C 
ATOM     18  C   UNL     1       8.062   5.819  19.154  0.00  0.00    +0.000 C 
ATOM     19  C   UNL     1       7.962   7.110  18.344  0.00  0.00    +0.000 C 
ATOM     20  C   UNL     1       7.352   6.730  16.996  0.00  0.00    +0.000 C 
ENDBRANCH  14  16
ENDBRANCH  13  14
ENDBRANCH  11  13
ENDBRANCH   4   7
BRANCH   1  21
ATOM     21  C   UNL     1       0.718  10.751  20.083  0.00  0.00    +0.000 C 
BRANCH  21  22
ATOM     22  N   UNL     1       0.719  11.699  18.968  0.00  0.00    +0.000 NA
ATOM     23  H   UNL     1       1.586  12.229  18.979  0.00  0.00    +0.000 HD
BRANCH  22  24
ATOM     24  C   UNL     1      -0.418  12.609  19.056  0.00  0.00    +0.000 C 
BRANCH  24  25
ATOM     25  C   UNL     1      -1.661  11.849  19.534  0.00  0.00    +0.000 C 
BRANCH  25  30
ATOM     26  C   UNL     1      -4.819  11.461  17.440  0.00  0.00    +0.000 A 
ATOM     27  C   UNL     1      -4.300  10.872  16.285  0.00  0.00    +0.000 A 
ATOM     28  C   UNL     1      -2.934  10.611  16.173  0.00  0.00    +0.000 A 
ATOM     29  C   UNL     1      -2.075  10.939  17.219  0.00  0.00    +0.000 A 
ATOM     30  C   UNL     1      -2.579  11.534  18.381  0.00  0.00    +0.000 A 
ATOM     31  C   UNL     1      -3.954  11.794  18.485  0.00  0.00    +0.000 A 
BRANCH  26  33
ATOM     32  C   UNL     1      -6.640  12.950  17.104  0.00  0.00    +0.000 C 
ATOM     33  O   UNL     1      -6.176  11.648  17.434  0.00  0.00    +0.000 OA
ENDBRANCH  26  33
ENDBRANCH  25  30
ENDBRANCH  24  25
ENDBRANCH  22  24
ENDBRANCH  21  22
ENDBRANCH   1  21
TORSDOF 10
ENDMDL
