MODEL 1
REMARK VINA RESULT:      -7.5      0.000      0.000
REMARK  Name = 
REMARK  6 active torsions:
REMARK  status: ('A' for Active; 'I' for Inactive)
REMARK    1  A    between atoms: C_1  and  O_2
REMARK    2  A    between atoms: O_2  and  C_3
REMARK    3  A    between atoms: C_7  and  N_8
REMARK    4  A    between atoms: C_9  and  C_11
REMARK    5  A    between atoms: C_12  and  C_13
REMARK    6  A    between atoms: C_16  and  O_17
REMARK                            x       y       z     vdW  Elec       q    Type
REMARK                         _______ _______ _______ _____ _____    ______ ____
ROOT
ATOM      1  N   UNL     1       6.730   7.444  16.916  0.00  0.00    +0.000 N 
ATOM      2  C   UNL     1       7.712   7.651  17.865  0.00  0.00    +0.000 C 
ATOM      3  O   UNL     1       8.104   6.841  18.696  0.00  0.00    +0.000 OA
ATOM      4  H   UNL     1       6.512   8.194  16.281  0.00  0.00    +0.000 HD
ENDROOT
BRANCH   1   9
ATOM      5  C   UNL     1       3.935   5.025  17.325  0.00  0.00    +0.000 A 
ATOM      6  C   UNL     1       4.406   3.929  16.599  0.00  0.00    +0.000 A 
ATOM      7  C   UNL     1       5.640   3.986  15.966  0.00  0.00    +0.000 A 
ATOM      8  C   UNL     1       6.411   5.141  16.059  0.00  0.00    +0.000 A 
ATOM      9  C   UNL     1       5.966   6.253  16.781  0.00  0.00    +0.000 A 
ATOM     10  C   UNL     1       4.715   6.186  17.413  0.00  0.00    +0.000 A 
BRANCH   5  12
ATOM     11  C   UNL     1       2.632   4.982  19.312  0.00  0.00    +0.000 C 
ATOM     12  O   UNL     1       2.711   4.827  17.903  0.00  0.00    +0.000 OA
ENDBRANCH   5  12
ENDBRANCH   1   9
BRANCH   2  13
ATOM     13  C   UNL     1       8.293   9.019  17.843  0.00  0.00    +0.000 C 
ATOM     14  C   UNL     1       8.992   9.389  18.931  0.00  0.00    +0.000 C 
BRANCH  14  15
ATOM     15  C   UNL     1       9.543  10.719  19.194  0.00  0.00    +0.000 A 
ATOM     16  C   UNL     1       9.885  11.516  18.090  0.00  0.00    +0.000 A 
ATOM     17  C   UNL     1      10.456  12.777  18.270  0.00  0.00    +0.000 A 
ATOM     18  C   UNL     1      10.670  13.244  19.561  0.00  0.00    +0.000 A 
ATOM     19  C   UNL     1      10.305  12.483  20.665  0.00  0.00    +0.000 A 
ATOM     20  C   UNL     1       9.733  11.224  20.484  0.00  0.00    +0.000 A 
BRANCH  18  21
ATOM     21  O   UNL     1      11.242  14.459  19.789  0.00  0.00    +0.000 OA
ATOM     22  H   UNL     1      11.435  14.537  20.737  0.00  0.00    +0.000 HD
ENDBRANCH  18  21
ENDBRANCH  14  15
ENDBRANCH   2  13
TORSDOF 5
ENDMDL
MODEL 2
REMARK VINA RESULT:      -7.5      0.269      1.112
REMARK  Name = 
REMARK  6 active torsions:
REMARK  status: ('A' for Active; 'I' for Inactive)
REMARK    1  A    between atoms: C_1  and  O_2
REMARK    2  A    between atoms: O_2  and  C_3
REMARK    3  A    between atoms: C_7  and  N_8
REMARK    4  A    between atoms: C_9  and  C_11
REMARK    5  A    between atoms: C_12  and  C_13
REMARK    6  A    between atoms: C_16  and  O_17
REMARK                            x       y       z     vdW  Elec       q    Type
REMARK                         _______ _______ _______ _____ _____    ______ ____
ROOT
ATOM      1  N   UNL     1       6.602   7.487  16.951  0.00  0.00    +0.000 N 
ATOM      2  C   UNL     1       7.648   7.659  17.836  0.00  0.00    +0.000 C 
ATOM      3  O   UNL     1       8.086   6.823  18.618  0.00  0.00    +0.000 OA
ATOM      4  H   UNL     1       6.351   8.257  16.351  0.00  0.00    +0.000 HD
ENDROOT
BRANCH   1   9
ATOM      5  C   UNL     1       3.881   5.032  17.577  0.00  0.00    +0.000 A 
ATOM      6  C   UNL     1       4.230   4.000  16.703  0.00  0.00    +0.000 A 
ATOM      7  C   UNL     1       5.354   4.114  15.899  0.00  0.00    +0.000 A 
ATOM      8  C   UNL     1       6.140   5.260  15.968  0.00  0.00    +0.000 A 
ATOM      9  C   UNL     1       5.817   6.309  16.836  0.00  0.00    +0.000 A 
ATOM     10  C   UNL     1       4.675   6.185  17.640  0.00  0.00    +0.000 A 
BRANCH   5  12
ATOM     11  C   UNL     1       2.444   5.705  19.347  0.00  0.00    +0.000 C 
ATOM     12  O   UNL     1       2.756   4.782  18.315  0.00  0.00    +0.000 OA
ENDBRANCH   5  12
ENDBRANCH   1   9
BRANCH   2  13
ATOM     13  C   UNL     1       8.242   9.022  17.811  0.00  0.00    +0.000 C 
ATOM     14  C   UNL     1       8.968   9.377  18.887  0.00  0.00    +0.000 C 
BRANCH  14  15
ATOM     15  C   UNL     1       9.537  10.699  19.147  0.00  0.00    +0.000 A 
ATOM     16  C   UNL     1       9.674  11.102  20.485  0.00  0.00    +0.000 A 
ATOM     17  C   UNL     1      10.169  12.368  20.802  0.00  0.00    +0.000 A 
ATOM     18  C   UNL     1      10.543  13.225  19.774  0.00  0.00    +0.000 A 
ATOM     19  C   UNL     1      10.447  12.830  18.445  0.00  0.00    +0.000 A 
ATOM     20  C   UNL     1       9.953  11.564  18.130  0.00  0.00    +0.000 A 
BRANCH  18  21
ATOM     21  O   UNL     1      11.013  14.477  20.032  0.00  0.00    +0.000 OA
ATOM     22  H   UNL     1      10.311  14.988  20.466  0.00  0.00    +0.000 HD
ENDBRANCH  18  21
ENDBRANCH  14  15
ENDBRANCH   2  13
TORSDOF 5
ENDMDL
MODEL 3
REMARK VINA RESULT:      -7.4      1.340      2.250
REMARK  Name = 
REMARK  6 active torsions:
REMARK  status: ('A' for Active; 'I' for Inactive)
REMARK    1  A    between atoms: C_1  and  O_2
REMARK    2  A    between atoms: O_2  and  C_3
REMARK    3  A    between atoms: C_7  and  N_8
REMARK    4  A    between atoms: C_9  and  C_11
REMARK    5  A    between atoms: C_12  and  C_13
REMARK    6  A    between atoms: C_16  and  O_17
REMARK                            x       y       z     vdW  Elec       q    Type
REMARK                         _______ _______ _______ _____ _____    ______ ____
ROOT
ATOM      1  N   UNL     1       6.783   7.731  16.968  0.00  0.00    +0.000 N 
ATOM      2  C   UNL     1       7.777   7.906  17.911  0.00  0.00    +0.000 C 
ATOM      3  O   UNL     1       8.228   7.049  18.662  0.00  0.00    +0.000 OA
ATOM      4  H   UNL     1       6.514   8.520  16.404  0.00  0.00    +0.000 HD
ENDROOT
BRANCH   1   9
ATOM      5  C   UNL     1       5.917   4.404  15.550  0.00  0.00    +0.000 A 
ATOM      6  C   UNL     1       4.724   4.119  16.217  0.00  0.00    +0.000 A 
ATOM      7  C   UNL     1       4.206   5.015  17.142  0.00  0.00    +0.000 A 
ATOM      8  C   UNL     1       4.879   6.205  17.401  0.00  0.00    +0.000 A 
ATOM      9  C   UNL     1       6.075   6.519  16.747  0.00  0.00    +0.000 A 
ATOM     10  C   UNL     1       6.591   5.604  15.818  0.00  0.00    +0.000 A 
BRANCH   5  12
ATOM     11  C   UNL     1       6.121   3.722  13.283  0.00  0.00    +0.000 C 
ATOM     12  O   UNL     1       6.304   3.439  14.661  0.00  0.00    +0.000 OA
ENDBRANCH   5  12
ENDBRANCH   1   9
BRANCH   2  13
ATOM     13  C   UNL     1       8.290   9.299  17.995  0.00  0.00    +0.000 C 
ATOM     14  C   UNL     1       9.194   9.546  18.960  0.00  0.00    +0.000 C 
BRANCH  14  15
ATOM     15  C   UNL     1       9.741  10.854  19.318  0.00  0.00    +0.000 A 
ATOM     16  C   UNL     1      10.429  11.571  18.326  0.00  0.00    +0.000 A 
ATOM     17  C   UNL     1      11.014  12.805  18.613  0.00  0.00    +0.000 A 
ATOM     18  C   UNL     1      10.894  13.328  19.894  0.00  0.00    +0.000 A 
ATOM     19  C   UNL     1      10.186  12.649  20.879  0.00  0.00    +0.000 A 
ATOM     20  C   UNL     1       9.602  11.416  20.590  0.00  0.00    +0.000 A 
BRANCH  18  21
ATOM     21  O   UNL     1      11.463  14.520  20.229  0.00  0.00    +0.000 OA
ATOM     22  H   UNL     1      11.430  15.106  19.455  0.00  0.00    +0.000 HD
ENDBRANCH  18  21
ENDBRANCH  14  15
ENDBRANCH   2  13
TORSDOF 5
ENDMDL
MODEL 4
REMARK VINA RESULT:      -7.3      1.271      2.451
REMARK  Name = 
REMARK  6 active torsions:
REMARK  status: ('A' for Active; 'I' for Inactive)
REMARK    1  A    between atoms: C_1  and  O_2
REMARK    2  A    between atoms: O_2  and  C_3
REMARK    3  A    between atoms: C_7  and  N_8
REMARK    4  A    between atoms: C_9  and  C_11
REMARK    5  A    between atoms: C_12  and  C_13
REMARK    6  A    between atoms: C_16  and  O_17
REMARK                            x       y       z     vdW  Elec       q    Type
REMARK                         _______ _______ _______ _____ _____    ______ ____
ROOT
ATOM      1  N   UNL     1       6.799   7.660  17.059  0.00  0.00    +0.000 N 
ATOM      2  C   UNL     1       7.812   7.832  17.981  0.00  0.00    +0.000 C 
ATOM      3  O   UNL     1       8.241   6.988  18.759  0.00  0.00    +0.000 OA
ATOM      4  H   UNL     1       6.553   8.437  16.468  0.00  0.00    +0.000 HD
ENDROOT
BRANCH   1   9
ATOM      5  C   UNL     1       5.686   4.397  15.664  0.00  0.00    +0.000 A 
ATOM      6  C   UNL     1       4.581   4.112  16.470  0.00  0.00    +0.000 A 
ATOM      7  C   UNL     1       4.206   4.987  17.479  0.00  0.00    +0.000 A 
ATOM      8  C   UNL     1       4.933   6.155  17.686  0.00  0.00    +0.000 A 
ATOM      9  C   UNL     1       6.042   6.469  16.893  0.00  0.00    +0.000 A 
ATOM     10  C   UNL     1       6.415   5.575  15.879  0.00  0.00    +0.000 A 
BRANCH   5  12
ATOM     11  C   UNL     1       6.390   3.923  13.444  0.00  0.00    +0.000 C 
ATOM     12  O   UNL     1       5.935   3.455  14.704  0.00  0.00    +0.000 OA
ENDBRANCH   5  12
ENDBRANCH   1   9
BRANCH   2  13
ATOM     13  C   UNL     1       8.380   9.206  18.005  0.00  0.00    +0.000 C 
ATOM     14  C   UNL     1       9.128   9.526  19.076  0.00  0.00    +0.000 C 
BRANCH  14  15
ATOM     15  C   UNL     1       9.679  10.846  19.383  0.00  0.00    +0.000 A 
ATOM     16  C   UNL     1       9.589  11.302  20.707  0.00  0.00    +0.000 A 
ATOM     17  C   UNL     1      10.056  12.570  21.059  0.00  0.00    +0.000 A 
ATOM     18  C   UNL     1      10.629  13.374  20.082  0.00  0.00    +0.000 A 
ATOM     19  C   UNL     1      10.758  12.925  18.772  0.00  0.00    +0.000 A 
ATOM     20  C   UNL     1      10.292  11.657  18.423  0.00  0.00    +0.000 A 
BRANCH  18  21
ATOM     21  O   UNL     1      11.082  14.626  20.371  0.00  0.00    +0.000 OA
ATOM     22  H   UNL     1      10.316  15.213  20.480  0.00  0.00    +0.000 HD
ENDBRANCH  18  21
ENDBRANCH  14  15
ENDBRANCH   2  13
TORSDOF 5
ENDMDL
MODEL 5
REMARK VINA RESULT:      -7.1      1.540      1.557
REMARK  Name = 
REMARK  6 active torsions:
REMARK  status: ('A' for Active; 'I' for Inactive)
REMARK    1  A    between atoms: C_1  and  O_2
REMARK    2  A    between atoms: O_2  and  C_3
REMARK    3  A    between atoms: C_7  and  N_8
REMARK    4  A    between atoms: C_9  and  C_11
REMARK    5  A    between atoms: C_12  and  C_13
REMARK    6  A    between atoms: C_16  and  O_17
REMARK                            x       y       z     vdW  Elec       q    Type
REMARK                         _______ _______ _______ _____ _____    ______ ____
ROOT
ATOM      1  N   UNL     1       6.984   6.211  18.558  0.00  0.00    +0.000 N 
ATOM      2  C   UNL     1       7.425   7.285  17.810  0.00  0.00    +0.000 C 
ATOM      3  O   UNL     1       7.060   7.584  16.679  0.00  0.00    +0.000 OA
ATOM      4  H   UNL     1       7.358   6.087  19.484  0.00  0.00    +0.000 HD
ENDROOT
BRANCH   1   9
ATOM      5  C   UNL     1       4.248   3.694  18.656  0.00  0.00    +0.000 A 
ATOM      6  C   UNL     1       4.213   3.270  17.326  0.00  0.00    +0.000 A 
ATOM      7  C   UNL     1       5.081   3.816  16.393  0.00  0.00    +0.000 A 
ATOM      8  C   UNL     1       5.994   4.790  16.786  0.00  0.00    +0.000 A 
ATOM      9  C   UNL     1       6.055   5.234  18.111  0.00  0.00    +0.000 A 
ATOM     10  C   UNL     1       5.169   4.677  19.045  0.00  0.00    +0.000 A 
BRANCH   5  12
ATOM     11  C   UNL     1       2.621   1.980  18.906  0.00  0.00    +0.000 C 
ATOM     12  O   UNL     1       3.345   3.065  19.467  0.00  0.00    +0.000 OA
ENDBRANCH   5  12
ENDBRANCH   1   9
BRANCH   2  13
ATOM     13  C   UNL     1       8.466   8.104  18.485  0.00  0.00    +0.000 C 
ATOM     14  C   UNL     1       8.401   9.433  18.289  0.00  0.00    +0.000 C 
BRANCH  14  15
ATOM     15  C   UNL     1       9.380  10.422  18.739  0.00  0.00    +0.000 A 
ATOM     16  C   UNL     1      10.160  11.064  17.764  0.00  0.00    +0.000 A 
ATOM     17  C   UNL     1      11.142  11.986  18.128  0.00  0.00    +0.000 A 
ATOM     18  C   UNL     1      11.331  12.276  19.473  0.00  0.00    +0.000 A 
ATOM     19  C   UNL     1      10.546  11.676  20.450  0.00  0.00    +0.000 A 
ATOM     20  C   UNL     1       9.563  10.756  20.084  0.00  0.00    +0.000 A 
BRANCH  18  21
ATOM     21  O   UNL     1      12.290  13.154  19.881  0.00  0.00    +0.000 OA
ATOM     22  H   UNL     1      12.419  13.816  19.183  0.00  0.00    +0.000 HD
ENDBRANCH  18  21
ENDBRANCH  14  15
ENDBRANCH   2  13
TORSDOF 5
ENDMDL
MODEL 6
REMARK VINA RESULT:      -7.1      1.424      1.785
REMARK  Name = 
REMARK  6 active torsions:
REMARK  status: ('A' for Active; 'I' for Inactive)
REMARK    1  A    between atoms: C_1  and  O_2
REMARK    2  A    between atoms: O_2  and  C_3
REMARK    3  A    between atoms: C_7  and  N_8
REMARK    4  A    between atoms: C_9  and  C_11
REMARK    5  A    between atoms: C_12  and  C_13
REMARK    6  A    between atoms: C_16  and  O_17
REMARK                            x       y       z     vdW  Elec       q    Type
REMARK                         _______ _______ _______ _____ _____    ______ ____
ROOT
ATOM      1  N   UNL     1       7.089   6.285  18.462  0.00  0.00    +0.000 N 
ATOM      2  C   UNL     1       7.396   7.449  17.785  0.00  0.00    +0.000 C 
ATOM      3  O   UNL     1       6.884   7.843  16.744  0.00  0.00    +0.000 OA
ATOM      4  H   UNL     1       7.580   6.086  19.319  0.00  0.00    +0.000 HD
ENDROOT
BRANCH   1   9
ATOM      5  C   UNL     1       4.195   3.952  18.534  0.00  0.00    +0.000 A 
ATOM      6  C   UNL     1       4.271   3.373  17.266  0.00  0.00    +0.000 A 
ATOM      7  C   UNL     1       5.268   3.756  16.380  0.00  0.00    +0.000 A 
ATOM      8  C   UNL     1       6.199   4.718  16.761  0.00  0.00    +0.000 A 
ATOM      9  C   UNL     1       6.149   5.313  18.026  0.00  0.00    +0.000 A 
ATOM     10  C   UNL     1       5.133   4.922  18.911  0.00  0.00    +0.000 A 
BRANCH   5  12
ATOM     11  C   UNL     1       2.690   2.174  19.004  0.00  0.00    +0.000 C 
ATOM     12  O   UNL     1       3.170   3.475  19.305  0.00  0.00    +0.000 OA
ENDBRANCH   5  12
ENDBRANCH   1   9
BRANCH   2  13
ATOM     13  C   UNL     1       8.481   8.246  18.416  0.00  0.00    +0.000 C 
ATOM     14  C   UNL     1       8.431   9.577  18.231  0.00  0.00    +0.000 C 
BRANCH  14  15
ATOM     15  C   UNL     1       9.447  10.546  18.641  0.00  0.00    +0.000 A 
ATOM     16  C   UNL     1       9.581  10.815  20.012  0.00  0.00    +0.000 A 
ATOM     17  C   UNL     1      10.500  11.761  20.468  0.00  0.00    +0.000 A 
ATOM     18  C   UNL     1      11.297  12.427  19.546  0.00  0.00    +0.000 A 
ATOM     19  C   UNL     1      11.203  12.149  18.187  0.00  0.00    +0.000 A 
ATOM     20  C   UNL     1      10.284  11.202  17.734  0.00  0.00    +0.000 A 
BRANCH  18  21
ATOM     21  O   UNL     1      12.196  13.373  19.939  0.00  0.00    +0.000 OA
ATOM     22  H   UNL     1      12.470  13.882  19.158  0.00  0.00    +0.000 HD
ENDBRANCH  18  21
ENDBRANCH  14  15
ENDBRANCH   2  13
TORSDOF 5
ENDMDL
MODEL 7
REMARK VINA RESULT:      -7.0      5.965      8.613
REMARK  Name = 
REMARK  6 active torsions:
REMARK  status: ('A' for Active; 'I' for Inactive)
REMARK    1  A    between atoms: C_1  and  O_2
REMARK    2  A    between atoms: O_2  and  C_3
REMARK    3  A    between atoms: C_7  and  N_8
REMARK    4  A    between atoms: C_9  and  C_11
REMARK    5  A    between atoms: C_12  and  C_13
REMARK    6  A    between atoms: C_16  and  O_17
REMARK                            x       y       z     vdW  Elec       q    Type
REMARK                         _______ _______ _______ _____ _____    ______ ____
ROOT
ATOM      1  N   UNL     1       5.216   4.468  15.641  0.00  0.00    +0.000 N 
ATOM      2  C   UNL     1       4.930   5.657  16.282  0.00  0.00    +0.000 C 
ATOM      3  O   UNL     1       5.171   6.785  15.867  0.00  0.00    +0.000 OA
ATOM      4  H   UNL     1       4.951   3.607  16.090  0.00  0.00    +0.000 HD
ENDROOT
BRANCH   1   9
ATOM      5  C   UNL     1       6.048   3.285  12.215  0.00  0.00    +0.000 A 
ATOM      6  C   UNL     1       7.188   4.039  11.929  0.00  0.00    +0.000 A 
ATOM      7  C   UNL     1       7.680   4.944  12.858  0.00  0.00    +0.000 A 
ATOM      8  C   UNL     1       7.035   5.098  14.081  0.00  0.00    +0.000 A 
ATOM      9  C   UNL     1       5.893   4.355  14.397  0.00  0.00    +0.000 A 
ATOM     10  C   UNL     1       5.401   3.446  13.448  0.00  0.00    +0.000 A 
BRANCH   5  12
ATOM     11  C   UNL     1       6.480   1.268  11.035  0.00  0.00    +0.000 C 
ATOM     12  O   UNL     1       5.681   2.427  11.215  0.00  0.00    +0.000 OA
ENDBRANCH   5  12
ENDBRANCH   1   9
BRANCH   2  13
ATOM     13  C   UNL     1       4.293   5.487  17.615  0.00  0.00    +0.000 C 
ATOM     14  C   UNL     1       3.818   4.261  17.897  0.00  0.00    +0.000 C 
BRANCH  14  15
ATOM     15  C   UNL     1       3.044   3.885  19.080  0.00  0.00    +0.000 A 
ATOM     16  C   UNL     1       3.649   3.030  20.015  0.00  0.00    +0.000 A 
ATOM     17  C   UNL     1       2.950   2.597  21.143  0.00  0.00    +0.000 A 
ATOM     18  C   UNL     1       1.648   3.037  21.341  0.00  0.00    +0.000 A 
ATOM     19  C   UNL     1       1.045   3.911  20.444  0.00  0.00    +0.000 A 
ATOM     20  C   UNL     1       1.745   4.343  19.318  0.00  0.00    +0.000 A 
BRANCH  18  21
ATOM     21  O   UNL     1       0.918   2.628  22.416  0.00  0.00    +0.000 OA
ATOM     22  H   UNL     1       0.825   3.375  23.029  0.00  0.00    +0.000 HD
ENDBRANCH  18  21
ENDBRANCH  14  15
ENDBRANCH   2  13
TORSDOF 5
ENDMDL
MODEL 8
REMARK VINA RESULT:      -6.9      1.199      1.394
REMARK  Name = 
REMARK  6 active torsions:
REMARK  status: ('A' for Active; 'I' for Inactive)
REMARK    1  A    between atoms: C_1  and  O_2
REMARK    2  A    between atoms: O_2  and  C_3
REMARK    3  A    between atoms: C_7  and  N_8
REMARK    4  A    between atoms: C_9  and  C_11
REMARK    5  A    between atoms: C_12  and  C_13
REMARK    6  A    between atoms: C_16  and  O_17
REMARK                            x       y       z     vdW  Elec       q    Type
REMARK                         _______ _______ _______ _____ _____    ______ ____
ROOT
ATOM      1  N   UNL     1       6.208   7.034  17.250  0.00  0.00    +0.000 N 
ATOM      2  C   UNL     1       7.440   7.213  17.846  0.00  0.00    +0.000 C 
ATOM      3  O   UNL     1       7.997   6.437  18.614  0.00  0.00    +0.000 OA
ATOM      4  H   UNL     1       5.870   7.748  16.625  0.00  0.00    +0.000 HD
ENDROOT
BRANCH   1   9
ATOM      5  C   UNL     1       3.864   4.729  18.988  0.00  0.00    +0.000 A 
ATOM      6  C   UNL     1       3.663   3.749  18.014  0.00  0.00    +0.000 A 
ATOM      7  C   UNL     1       4.289   3.849  16.780  0.00  0.00    +0.000 A 
ATOM      8  C   UNL     1       5.125   4.930  16.515  0.00  0.00    +0.000 A 
ATOM      9  C   UNL     1       5.348   5.925  17.472  0.00  0.00    +0.000 A 
ATOM     10  C   UNL     1       4.706   5.816  18.715  0.00  0.00    +0.000 A 
BRANCH   5  12
ATOM     11  C   UNL     1       1.778   4.572  20.115  0.00  0.00    +0.000 C 
ATOM     12  O   UNL     1       3.194   4.498  20.158  0.00  0.00    +0.000 OA
ENDBRANCH   5  12
ENDBRANCH   1   9
BRANCH   2  13
ATOM     13  C   UNL     1       8.093   8.505  17.507  0.00  0.00    +0.000 C 
ATOM     14  C   UNL     1       8.562   9.227  18.540  0.00  0.00    +0.000 C 
BRANCH  14  15
ATOM     15  C   UNL     1       9.123  10.576  18.468  0.00  0.00    +0.000 A 
ATOM     16  C   UNL     1       8.379  11.559  17.797  0.00  0.00    +0.000 A 
ATOM     17  C   UNL     1       8.875  12.856  17.653  0.00  0.00    +0.000 A 
ATOM     18  C   UNL     1      10.114  13.170  18.199  0.00  0.00    +0.000 A 
ATOM     19  C   UNL     1      10.848  12.218  18.897  0.00  0.00    +0.000 A 
ATOM     20  C   UNL     1      10.350  10.923  19.040  0.00  0.00    +0.000 A 
BRANCH  18  21
ATOM     21  O   UNL     1      10.650  14.415  18.069  0.00  0.00    +0.000 OA
ATOM     22  H   UNL     1      10.603  14.676  17.135  0.00  0.00    +0.000 HD
ENDBRANCH  18  21
ENDBRANCH  14  15
ENDBRANCH   2  13
TORSDOF 5
ENDMDL
MODEL 9
REMARK VINA RESULT:      -6.9      1.563      1.943
REMARK  Name = 
REMARK  6 active torsions:
REMARK  status: ('A' for Active; 'I' for Inactive)
REMARK    1  A    between atoms: C_1  and  O_2
REMARK    2  A    between atoms: O_2  and  C_3
REMARK    3  A    between atoms: C_7  and  N_8
REMARK    4  A    between atoms: C_9  and  C_11
REMARK    5  A    between atoms: C_12  and  C_13
REMARK    6  A    between atoms: C_16  and  O_17
REMARK                            x       y       z     vdW  Elec       q    Type
REMARK                         _______ _______ _______ _____ _____    ______ ____
ROOT
ATOM      1  N   UNL     1       6.472   6.432  18.448  0.00  0.00    +0.000 N 
ATOM      2  C   UNL     1       7.455   6.965  17.637  0.00  0.00    +0.000 C 
ATOM      3  O   UNL     1       7.707   6.634  16.484  0.00  0.00    +0.000 OA
ATOM      4  H   UNL     1       6.362   6.806  19.376  0.00  0.00    +0.000 HD
ENDROOT
BRANCH   1   9
ATOM      5  C   UNL     1       4.406   3.357  18.768  0.00  0.00    +0.000 A 
ATOM      6  C   UNL     1       3.946   3.193  17.460  0.00  0.00    +0.000 A 
ATOM      7  C   UNL     1       4.306   4.098  16.472  0.00  0.00    +0.000 A 
ATOM      8  C   UNL     1       5.133   5.172  16.787  0.00  0.00    +0.000 A 
ATOM      9  C   UNL     1       5.611   5.360  18.088  0.00  0.00    +0.000 A 
ATOM     10  C   UNL     1       5.237   4.442  19.080  0.00  0.00    +0.000 A 
BRANCH   5  12
ATOM     11  C   UNL     1       2.793   2.651  20.364  0.00  0.00    +0.000 C 
ATOM     12  O   UNL     1       3.981   2.387  19.634  0.00  0.00    +0.000 OA
ENDBRANCH   5  12
ENDBRANCH   1   9
BRANCH   2  13
ATOM     13  C   UNL     1       8.272   8.020  18.293  0.00  0.00    +0.000 C 
ATOM     14  C   UNL     1       8.028   9.287  17.915  0.00  0.00    +0.000 C 
BRANCH  14  15
ATOM     15  C   UNL     1       8.784  10.471  18.320  0.00  0.00    +0.000 A 
ATOM     16  C   UNL     1       9.683  10.340  19.391  0.00  0.00    +0.000 A 
ATOM     17  C   UNL     1      10.404  11.441  19.857  0.00  0.00    +0.000 A 
ATOM     18  C   UNL     1      10.233  12.672  19.236  0.00  0.00    +0.000 A 
ATOM     19  C   UNL     1       9.374  12.813  18.153  0.00  0.00    +0.000 A 
ATOM     20  C   UNL     1       8.655  11.711  17.688  0.00  0.00    +0.000 A 
BRANCH  18  21
ATOM     21  O   UNL     1      10.899  13.780  19.666  0.00  0.00    +0.000 OA
ATOM     22  H   UNL     1      10.397  14.178  20.396  0.00  0.00    +0.000 HD
ENDBRANCH  18  21
ENDBRANCH  14  15
ENDBRANCH   2  13
TORSDOF 5
ENDMDL
