MODEL 1
REMARK VINA RESULT:      -6.9      0.000      0.000
REMARK  Name = 
REMARK  4 active torsions:
REMARK  status: ('A' for Active; 'I' for Inactive)
REMARK    1  A    between atoms: C_2  and  C_3
REMARK    2  A    between atoms: C_3  and  C_4
REMARK    3  A    between atoms: C_4  and  C_5
REMARK    4  A    between atoms: N_11  and  C_12
REMARK                            x       y       z     vdW  Elec       q    Type
REMARK                         _______ _______ _______ _____ _____    ______ ____
ROOT
ATOM      1  O   UNL     1       8.389   7.243  18.813  0.00  0.00    +0.000 OA
ATOM      2  C   UNL     1       7.946   8.017  17.972  0.00  0.00    +0.000 C 
ATOM      3  N   UNL     1       7.010   7.704  16.994  0.00  0.00    +0.000 N 
ATOM      4  H   UNL     1       6.854   8.388  16.267  0.00  0.00    +0.000 HD
ENDROOT
BRANCH   3   5
ATOM      5  C   UNL     1       6.381   6.446  16.820  0.00  0.00    +0.000 A 
ATOM      6  C   UNL     1       5.158   6.115  17.396  0.00  0.00    +0.000 A 
ATOM      7  C   UNL     1       4.648   4.844  17.187  0.00  0.00    +0.000 A 
ATOM      8  N   UNL     1       5.265   3.899  16.449  0.00  0.00    +0.000 NA
ATOM      9  C   UNL     1       6.438   4.246  15.884  0.00  0.00    +0.000 A 
ATOM     10  C   UNL     1       7.023   5.498  16.025  0.00  0.00    +0.000 A 
ENDBRANCH   3   5
BRANCH   2  11
ATOM     11  C   UNL     1       8.374   9.473  17.930  0.00  0.00    +0.000 C 
BRANCH  11  12
ATOM     12  C   UNL     1       9.035   9.889  19.245  0.00  0.00    +0.000 C 
BRANCH  12  13
ATOM     13  C   UNL     1      10.076  10.961  19.029  0.00  0.00    +0.000 A 
ATOM     14  C   UNL     1      10.356  11.426  17.737  0.00  0.00    +0.000 A 
ATOM     15  C   UNL     1      11.342  12.391  17.531  0.00  0.00    +0.000 A 
ATOM     16  C   UNL     1      12.060  12.898  18.612  0.00  0.00    +0.000 A 
ATOM     17  C   UNL     1      11.784  12.447  19.903  0.00  0.00    +0.000 A 
ATOM     18  C   UNL     1      10.797  11.483  20.112  0.00  0.00    +0.000 A 
ENDBRANCH  12  13
ENDBRANCH  11  12
ENDBRANCH   2  11
TORSDOF 4
ENDMDL
MODEL 2
REMARK VINA RESULT:      -6.8      4.047      6.190
REMARK  Name = 
REMARK  4 active torsions:
REMARK  status: ('A' for Active; 'I' for Inactive)
REMARK    1  A    between atoms: C_2  and  C_3
REMARK    2  A    between atoms: C_3  and  C_4
REMARK    3  A    between atoms: C_4  and  C_5
REMARK    4  A    between atoms: N_11  and  C_12
REMARK                            x       y       z     vdW  Elec       q    Type
REMARK                         _______ _______ _______ _____ _____    ______ ____
ROOT
ATOM      1  O   UNL     1       3.755   5.625  17.282  0.00  0.00    +0.000 OA
ATOM      2  C   UNL     1       4.175   4.529  16.925  0.00  0.00    +0.000 C 
ATOM      3  N   UNL     1       3.900   3.316  17.542  0.00  0.00    +0.000 N 
ATOM      4  H   UNL     1       4.437   2.513  17.244  0.00  0.00    +0.000 HD
ENDROOT
BRANCH   3   5
ATOM      5  C   UNL     1       3.064   3.128  18.670  0.00  0.00    +0.000 A 
ATOM      6  C   UNL     1       3.546   3.017  19.971  0.00  0.00    +0.000 A 
ATOM      7  C   UNL     1       2.641   2.802  20.998  0.00  0.00    +0.000 A 
ATOM      8  N   UNL     1       1.308   2.700  20.817  0.00  0.00    +0.000 NA
ATOM      9  C   UNL     1       0.860   2.831  19.553  0.00  0.00    +0.000 A 
ATOM     10  C   UNL     1       1.687   3.059  18.460  0.00  0.00    +0.000 A 
ENDBRANCH   3   5
BRANCH   2  11
ATOM     11  C   UNL     1       5.052   4.378  15.696  0.00  0.00    +0.000 C 
BRANCH  11  12
ATOM     12  C   UNL     1       6.505   4.104  16.088  0.00  0.00    +0.000 C 
BRANCH  12  13
ATOM     13  C   UNL     1       7.042   5.170  17.013  0.00  0.00    +0.000 A 
ATOM     14  C   UNL     1       7.092   6.508  16.597  0.00  0.00    +0.000 A 
ATOM     15  C   UNL     1       7.620   7.489  17.437  0.00  0.00    +0.000 A 
ATOM     16  C   UNL     1       8.105   7.144  18.697  0.00  0.00    +0.000 A 
ATOM     17  C   UNL     1       8.052   5.817  19.122  0.00  0.00    +0.000 A 
ATOM     18  C   UNL     1       7.523   4.833  18.285  0.00  0.00    +0.000 A 
ENDBRANCH  12  13
ENDBRANCH  11  12
ENDBRANCH   2  11
TORSDOF 4
ENDMDL
MODEL 3
REMARK VINA RESULT:      -6.7      4.812      7.076
REMARK  Name = 
REMARK  4 active torsions:
REMARK  status: ('A' for Active; 'I' for Inactive)
REMARK    1  A    between atoms: C_2  and  C_3
REMARK    2  A    between atoms: C_3  and  C_4
REMARK    3  A    between atoms: C_4  and  C_5
REMARK    4  A    between atoms: N_11  and  C_12
REMARK                            x       y       z     vdW  Elec       q    Type
REMARK                         _______ _______ _______ _____ _____    ______ ____
ROOT
ATOM      1  O   UNL     1       8.010   4.196  17.036  0.00  0.00    +0.000 OA
ATOM      2  C   UNL     1       7.291   5.187  16.972  0.00  0.00    +0.000 C 
ATOM      3  N   UNL     1       6.627   5.635  15.837  0.00  0.00    +0.000 N 
ATOM      4  H   UNL     1       6.201   6.550  15.882  0.00  0.00    +0.000 HD
ENDROOT
BRANCH   3   5
ATOM      5  C   UNL     1       6.640   5.008  14.567  0.00  0.00    +0.000 A 
ATOM      6  C   UNL     1       5.728   4.028  14.187  0.00  0.00    +0.000 A 
ATOM      7  C   UNL     1       5.851   3.457  12.931  0.00  0.00    +0.000 A 
ATOM      8  N   UNL     1       6.805   3.799  12.040  0.00  0.00    +0.000 NA
ATOM      9  C   UNL     1       7.666   4.764  12.419  0.00  0.00    +0.000 A 
ATOM     10  C   UNL     1       7.616   5.403  13.652  0.00  0.00    +0.000 A 
ENDBRANCH   3   5
BRANCH   2  11
ATOM     11  C   UNL     1       7.016   6.048  18.192  0.00  0.00    +0.000 C 
BRANCH  11  12
ATOM     12  C   UNL     1       6.219   5.273  19.243  0.00  0.00    +0.000 C 
BRANCH  12  13
ATOM     13  C   UNL     1       4.833   4.934  18.751  0.00  0.00    +0.000 A 
ATOM     14  C   UNL     1       4.455   3.597  18.564  0.00  0.00    +0.000 A 
ATOM     15  C   UNL     1       3.187   3.283  18.076  0.00  0.00    +0.000 A 
ATOM     16  C   UNL     1       2.285   4.299  17.767  0.00  0.00    +0.000 A 
ATOM     17  C   UNL     1       2.648   5.631  17.957  0.00  0.00    +0.000 A 
ATOM     18  C   UNL     1       3.916   5.950  18.447  0.00  0.00    +0.000 A 
ENDBRANCH  12  13
ENDBRANCH  11  12
ENDBRANCH   2  11
TORSDOF 4
ENDMDL
MODEL 4
REMARK VINA RESULT:      -6.7      4.638      6.531
REMARK  Name = 
REMARK  4 active torsions:
REMARK  status: ('A' for Active; 'I' for Inactive)
REMARK    1  A    between atoms: C_2  and  C_3
REMARK    2  A    between atoms: C_3  and  C_4
REMARK    3  A    between atoms: C_4  and  C_5
REMARK    4  A    between atoms: N_11  and  C_12
REMARK                            x       y       z     vdW  Elec       q    Type
REMARK                         _______ _______ _______ _____ _____    ______ ____
ROOT
ATOM      1  O   UNL     1       4.781   5.940  19.572  0.00  0.00    +0.000 OA
ATOM      2  C   UNL     1       5.645   5.087  19.404  0.00  0.00    +0.000 C 
ATOM      3  N   UNL     1       5.417   3.740  19.150  0.00  0.00    +0.000 N 
ATOM      4  H   UNL     1       6.213   3.120  19.194  0.00  0.00    +0.000 HD
ENDROOT
BRANCH   3   5
ATOM      5  C   UNL     1       4.148   3.126  19.010  0.00  0.00    +0.000 A 
ATOM      6  C   UNL     1       3.606   2.759  17.781  0.00  0.00    +0.000 A 
ATOM      7  C   UNL     1       2.342   2.194  17.755  0.00  0.00    +0.000 A 
ATOM      8  N   UNL     1       1.597   1.968  18.857  0.00  0.00    +0.000 NA
ATOM      9  C   UNL     1       2.147   2.312  20.038  0.00  0.00    +0.000 A 
ATOM     10  C   UNL     1       3.412   2.873  20.166  0.00  0.00    +0.000 A 
ENDBRANCH   3   5
BRANCH   2  11
ATOM     11  C   UNL     1       7.122   5.438  19.428  0.00  0.00    +0.000 C 
BRANCH  11  12
ATOM     12  C   UNL     1       7.503   6.291  18.217  0.00  0.00    +0.000 C 
BRANCH  12  13
ATOM     13  C   UNL     1       6.869   5.773  16.949  0.00  0.00    +0.000 A 
ATOM     14  C   UNL     1       5.806   6.467  16.354  0.00  0.00    +0.000 A 
ATOM     15  C   UNL     1       5.195   5.971  15.202  0.00  0.00    +0.000 A 
ATOM     16  C   UNL     1       5.637   4.778  14.635  0.00  0.00    +0.000 A 
ATOM     17  C   UNL     1       6.698   4.084  15.215  0.00  0.00    +0.000 A 
ATOM     18  C   UNL     1       7.313   4.578  16.367  0.00  0.00    +0.000 A 
ENDBRANCH  12  13
ENDBRANCH  11  12
ENDBRANCH   2  11
TORSDOF 4
ENDMDL
MODEL 5
REMARK VINA RESULT:      -6.7      4.194      8.700
REMARK  Name = 
REMARK  4 active torsions:
REMARK  status: ('A' for Active; 'I' for Inactive)
REMARK    1  A    between atoms: C_2  and  C_3
REMARK    2  A    between atoms: C_3  and  C_4
REMARK    3  A    between atoms: C_4  and  C_5
REMARK    4  A    between atoms: N_11  and  C_12
REMARK                            x       y       z     vdW  Elec       q    Type
REMARK                         _______ _______ _______ _____ _____    ______ ____
ROOT
ATOM      1  O   UNL     1       2.954   6.688  19.157  0.00  0.00    +0.000 OA
ATOM      2  C   UNL     1       3.024   5.946  18.183  0.00  0.00    +0.000 C 
ATOM      3  N   UNL     1       4.188   5.602  17.508  0.00  0.00    +0.000 N 
ATOM      4  H   UNL     1       4.086   5.115  16.628  0.00  0.00    +0.000 HD
ENDROOT
BRANCH   3   5
ATOM      5  C   UNL     1       5.499   6.020  17.847  0.00  0.00    +0.000 A 
ATOM      6  C   UNL     1       6.176   7.036  17.178  0.00  0.00    +0.000 A 
ATOM      7  C   UNL     1       7.468   7.343  17.571  0.00  0.00    +0.000 A 
ATOM      8  N   UNL     1       8.117   6.719  18.576  0.00  0.00    +0.000 NA
ATOM      9  C   UNL     1       7.437   5.753  19.224  0.00  0.00    +0.000 A 
ATOM     10  C   UNL     1       6.135   5.382  18.911  0.00  0.00    +0.000 A 
ENDBRANCH   3   5
BRANCH   2  11
ATOM     11  C   UNL     1       1.790   5.274  17.607  0.00  0.00    +0.000 C 
BRANCH  11  12
ATOM     12  C   UNL     1       1.904   3.751  17.691  0.00  0.00    +0.000 C 
BRANCH  12  13
ATOM     13  C   UNL     1       2.079   3.284  19.116  0.00  0.00    +0.000 A 
ATOM     14  C   UNL     1       1.026   3.403  20.034  0.00  0.00    +0.000 A 
ATOM     15  C   UNL     1       1.197   3.005  21.360  0.00  0.00    +0.000 A 
ATOM     16  C   UNL     1       2.419   2.487  21.783  0.00  0.00    +0.000 A 
ATOM     17  C   UNL     1       3.470   2.357  20.875  0.00  0.00    +0.000 A 
ATOM     18  C   UNL     1       3.302   2.753  19.547  0.00  0.00    +0.000 A 
ENDBRANCH  12  13
ENDBRANCH  11  12
ENDBRANCH   2  11
TORSDOF 4
ENDMDL
MODEL 6
REMARK VINA RESULT:      -6.6      6.125      7.694
REMARK  Name = 
REMARK  4 active torsions:
REMARK  status: ('A' for Active; 'I' for Inactive)
REMARK    1  A    between atoms: C_2  and  C_3
REMARK    2  A    between atoms: C_3  and  C_4
REMARK    3  A    between atoms: C_4  and  C_5
REMARK    4  A    between atoms: N_11  and  C_12
REMARK                            x       y       z     vdW  Elec       q    Type
REMARK                         _______ _______ _______ _____ _____    ______ ____
ROOT
ATOM      1  O   UNL     1       5.990   4.320  19.226  0.00  0.00    +0.000 OA
ATOM      2  C   UNL     1       5.388   4.340  18.158  0.00  0.00    +0.000 C 
ATOM      3  N   UNL     1       4.017   4.181  17.997  0.00  0.00    +0.000 N 
ATOM      4  H   UNL     1       3.673   4.058  17.055  0.00  0.00    +0.000 HD
ENDROOT
BRANCH   3   5
ATOM      5  C   UNL     1       3.075   4.000  19.040  0.00  0.00    +0.000 A 
ATOM      6  C   UNL     1       2.499   5.053  19.744  0.00  0.00    +0.000 A 
ATOM      7  C   UNL     1       1.613   4.762  20.768  0.00  0.00    +0.000 A 
ATOM      8  N   UNL     1       1.263   3.509  21.125  0.00  0.00    +0.000 NA
ATOM      9  C   UNL     1       1.816   2.503  20.417  0.00  0.00    +0.000 A 
ATOM     10  C   UNL     1       2.705   2.696  19.368  0.00  0.00    +0.000 A 
ENDBRANCH   3   5
BRANCH   2  11
ATOM     11  C   UNL     1       6.109   4.584  16.844  0.00  0.00    +0.000 C 
BRANCH  11  12
ATOM     12  C   UNL     1       5.221   4.219  15.654  0.00  0.00    +0.000 C 
BRANCH  12  13
ATOM     13  C   UNL     1       5.991   4.250  14.356  0.00  0.00    +0.000 A 
ATOM     14  C   UNL     1       7.120   5.069  14.222  0.00  0.00    +0.000 A 
ATOM     15  C   UNL     1       7.813   5.126  13.012  0.00  0.00    +0.000 A 
ATOM     16  C   UNL     1       7.383   4.369  11.924  0.00  0.00    +0.000 A 
ATOM     17  C   UNL     1       6.265   3.545  12.050  0.00  0.00    +0.000 A 
ATOM     18  C   UNL     1       5.571   3.484  13.260  0.00  0.00    +0.000 A 
ENDBRANCH  12  13
ENDBRANCH  11  12
ENDBRANCH   2  11
TORSDOF 4
ENDMDL
MODEL 7
REMARK VINA RESULT:      -6.6      4.652      6.461
REMARK  Name = 
REMARK  4 active torsions:
REMARK  status: ('A' for Active; 'I' for Inactive)
REMARK    1  A    between atoms: C_2  and  C_3
REMARK    2  A    between atoms: C_3  and  C_4
REMARK    3  A    between atoms: C_4  and  C_5
REMARK    4  A    between atoms: N_11  and  C_12
REMARK                            x       y       z     vdW  Elec       q    Type
REMARK                         _______ _______ _______ _____ _____    ______ ____
ROOT
ATOM      1  O   UNL     1       4.870   5.948  19.683  0.00  0.00    +0.000 OA
ATOM      2  C   UNL     1       5.703   5.073  19.468  0.00  0.00    +0.000 C 
ATOM      3  N   UNL     1       5.426   3.739  19.201  0.00  0.00    +0.000 N 
ATOM      4  H   UNL     1       6.206   3.096  19.203  0.00  0.00    +0.000 HD
ENDROOT
BRANCH   3   5
ATOM      5  C   UNL     1       4.136   3.162  19.099  0.00  0.00    +0.000 A 
ATOM      6  C   UNL     1       3.357   2.827  20.202  0.00  0.00    +0.000 A 
ATOM      7  C   UNL     1       2.122   2.238  19.989  0.00  0.00    +0.000 A 
ATOM      8  N   UNL     1       1.617   1.971  18.766  0.00  0.00    +0.000 NA
ATOM      9  C   UNL     1       2.378   2.322  17.711  0.00  0.00    +0.000 A 
ATOM     10  C   UNL     1       3.623   2.927  17.824  0.00  0.00    +0.000 A 
ENDBRANCH   3   5
BRANCH   2  11
ATOM     11  C   UNL     1       7.189   5.383  19.440  0.00  0.00    +0.000 C 
BRANCH  11  12
ATOM     12  C   UNL     1       7.550   6.238  18.224  0.00  0.00    +0.000 C 
BRANCH  12  13
ATOM     13  C   UNL     1       6.858   5.749  16.975  0.00  0.00    +0.000 A 
ATOM     14  C   UNL     1       7.277   4.566  16.350  0.00  0.00    +0.000 A 
ATOM     15  C   UNL     1       6.662   4.131  15.176  0.00  0.00    +0.000 A 
ATOM     16  C   UNL     1       5.625   4.873  14.614  0.00  0.00    +0.000 A 
ATOM     17  C   UNL     1       5.196   6.046  15.232  0.00  0.00    +0.000 A 
ATOM     18  C   UNL     1       5.808   6.484  16.408  0.00  0.00    +0.000 A 
ENDBRANCH  12  13
ENDBRANCH  11  12
ENDBRANCH   2  11
TORSDOF 4
ENDMDL
MODEL 8
REMARK VINA RESULT:      -6.6      4.674      6.561
REMARK  Name = 
REMARK  4 active torsions:
REMARK  status: ('A' for Active; 'I' for Inactive)
REMARK    1  A    between atoms: C_2  and  C_3
REMARK    2  A    between atoms: C_3  and  C_4
REMARK    3  A    between atoms: C_4  and  C_5
REMARK    4  A    between atoms: N_11  and  C_12
REMARK                            x       y       z     vdW  Elec       q    Type
REMARK                         _______ _______ _______ _____ _____    ______ ____
ROOT
ATOM      1  O   UNL     1       4.752   5.941  19.534  0.00  0.00    +0.000 OA
ATOM      2  C   UNL     1       5.613   5.077  19.413  0.00  0.00    +0.000 C 
ATOM      3  N   UNL     1       5.380   3.725  19.194  0.00  0.00    +0.000 N 
ATOM      4  H   UNL     1       6.170   3.101  19.275  0.00  0.00    +0.000 HD
ENDROOT
BRANCH   3   5
ATOM      5  C   UNL     1       4.109   3.116  19.040  0.00  0.00    +0.000 A 
ATOM      6  C   UNL     1       3.565   2.782  17.803  0.00  0.00    +0.000 A 
ATOM      7  C   UNL     1       2.300   2.219  17.765  0.00  0.00    +0.000 A 
ATOM      8  N   UNL     1       1.556   1.967  18.862  0.00  0.00    +0.000 NA
ATOM      9  C   UNL     1       2.109   2.280  20.051  0.00  0.00    +0.000 A 
ATOM     10  C   UNL     1       3.375   2.835  20.191  0.00  0.00    +0.000 A 
ENDBRANCH   3   5
BRANCH   2  11
ATOM     11  C   UNL     1       7.091   5.417  19.463  0.00  0.00    +0.000 C 
BRANCH  11  12
ATOM     12  C   UNL     1       7.511   6.228  18.235  0.00  0.00    +0.000 C 
BRANCH  12  13
ATOM     13  C   UNL     1       6.845   5.720  16.979  0.00  0.00    +0.000 A 
ATOM     14  C   UNL     1       7.260   4.515  16.396  0.00  0.00    +0.000 A 
ATOM     15  C   UNL     1       6.670   4.061  15.216  0.00  0.00    +0.000 A 
ATOM     16  C   UNL     1       5.663   4.806  14.606  0.00  0.00    +0.000 A 
ATOM     17  C   UNL     1       5.238   6.002  15.183  0.00  0.00    +0.000 A 
ATOM     18  C   UNL     1       5.825   6.458  16.365  0.00  0.00    +0.000 A 
ENDBRANCH  12  13
ENDBRANCH  11  12
ENDBRANCH   2  11
TORSDOF 4
ENDMDL
MODEL 9
REMARK VINA RESULT:      -6.6      4.134      8.850
REMARK  Name = 
REMARK  4 active torsions:
REMARK  status: ('A' for Active; 'I' for Inactive)
REMARK    1  A    between atoms: C_2  and  C_3
REMARK    2  A    between atoms: C_3  and  C_4
REMARK    3  A    between atoms: C_4  and  C_5
REMARK    4  A    between atoms: N_11  and  C_12
REMARK                            x       y       z     vdW  Elec       q    Type
REMARK                         _______ _______ _______ _____ _____    ______ ____
ROOT
ATOM      1  O   UNL     1       5.189   3.846  15.863  0.00  0.00    +0.000 OA
ATOM      2  C   UNL     1       4.410   4.126  16.767  0.00  0.00    +0.000 C 
ATOM      3  N   UNL     1       4.667   4.998  17.817  0.00  0.00    +0.000 N 
ATOM      4  H   UNL     1       4.002   5.014  18.578  0.00  0.00    +0.000 HD
ENDROOT
BRANCH   3   5
ATOM      5  C   UNL     1       5.860   5.738  18.009  0.00  0.00    +0.000 A 
ATOM      6  C   UNL     1       6.833   5.396  18.943  0.00  0.00    +0.000 A 
ATOM      7  C   UNL     1       7.947   6.209  19.071  0.00  0.00    +0.000 A 
ATOM      8  N   UNL     1       8.155   7.320  18.334  0.00  0.00    +0.000 NA
ATOM      9  C   UNL     1       7.211   7.623  17.421  0.00  0.00    +0.000 A 
ATOM     10  C   UNL     1       6.067   6.864  17.212  0.00  0.00    +0.000 A 
ENDBRANCH   3   5
BRANCH   2  11
ATOM     11  C   UNL     1       3.009   3.545  16.816  0.00  0.00    +0.000 C 
BRANCH  11  12
ATOM     12  C   UNL     1       2.974   2.261  17.647  0.00  0.00    +0.000 C 
BRANCH  12  13
ATOM     13  C   UNL     1       2.467   2.517  19.045  0.00  0.00    +0.000 A 
ATOM     14  C   UNL     1       1.139   2.915  19.255  0.00  0.00    +0.000 A 
ATOM     15  C   UNL     1       0.678   3.187  20.543  0.00  0.00    +0.000 A 
ATOM     16  C   UNL     1       1.537   3.066  21.633  0.00  0.00    +0.000 A 
ATOM     17  C   UNL     1       2.857   2.663  21.436  0.00  0.00    +0.000 A 
ATOM     18  C   UNL     1       3.322   2.389  20.148  0.00  0.00    +0.000 A 
ENDBRANCH  12  13
ENDBRANCH  11  12
ENDBRANCH   2  11
TORSDOF 4
ENDMDL
