MODEL 1
REMARK VINA RESULT:      -8.2      0.000      0.000
REMARK  Name = 
REMARK  7 active torsions:
REMARK  status: ('A' for Active; 'I' for Inactive)
REMARK    1  A    between atoms: C_2  and  C_3
REMARK    2  A    between atoms: C_3  and  C_4
REMARK    3  A    between atoms: C_4  and  C_5
REMARK    4  A    between atoms: C_5  and  N_6
REMARK    5  A    between atoms: N_12  and  C_13
REMARK    6  A    between atoms: C_13  and  C_14
REMARK    7  A    between atoms: C_19  and  N_20
REMARK                            x       y       z     vdW  Elec       q    Type
REMARK                         _______ _______ _______ _____ _____    ______ ____
ROOT
ATOM      1  C   UNL     1       6.021   5.283  17.923  0.00  0.00    +0.000 C 
ENDROOT
BRANCH   1   2
ATOM      2  C   UNL     1       4.585   5.749  18.019  0.00  0.00    +0.000 A 
ATOM      3  C   UNL     1       4.299   7.116  17.780  0.00  0.00    +0.000 A 
ATOM      4  C   UNL     1       3.001   7.589  17.748  0.00  0.00    +0.000 A 
ATOM      5  C   UNL     1       2.002   6.671  17.921  0.00  0.00    +0.000 A 
ATOM      6  N   UNL     1       2.230   5.359  18.134  0.00  0.00    +0.000 NA
ATOM      7  C   UNL     1       3.499   4.872  18.217  0.00  0.00    +0.000 A 
BRANCH   7   8
ATOM      8  N   UNL     1       3.594   3.508  18.466  0.00  0.00    +0.000 N 
ATOM      9  C   UNL     1       2.669   2.632  17.733  0.00  0.00    +0.000 C 
ATOM     10  C   UNL     1       1.555   1.980  18.562  0.00  0.00    +0.000 C 
ATOM     11  C   UNL     1       0.724   2.906  19.452  0.00  0.00    +0.000 C 
ATOM     12  C   UNL     1       1.141   2.977  20.923  0.00  0.00    +0.000 C 
ATOM     13  C   UNL     1       2.551   3.469  21.234  0.00  0.00    +0.000 C 
ATOM     14  C   UNL     1       3.642   2.501  20.783  0.00  0.00    +0.000 C 
ATOM     15  C   UNL     1       4.400   2.931  19.531  0.00  0.00    +0.000 C 
ENDBRANCH   7   8
ENDBRANCH   1   2
BRANCH   1  18
ATOM     16  O   UNL     1       7.665   7.140  16.585  0.00  0.00    +0.000 OA
ATOM     17  C   UNL     1       7.712   7.062  17.803  0.00  0.00    +0.000 C 
ATOM     18  N   UNL     1       6.971   6.181  18.546  0.00  0.00    +0.000 N 
ATOM     19  H   UNL     1       7.348   5.898  19.441  0.00  0.00    +0.000 HD
BRANCH  17  20
ATOM     20  C   UNL     1       8.609   7.914  18.671  0.00  0.00    +0.000 C 
BRANCH  20  21
ATOM     21  C   UNL     1       8.484   9.370  18.261  0.00  0.00    +0.000 C 
BRANCH  21  22
ATOM     22  C   UNL     1       9.121  10.293  19.289  0.00  0.00    +0.000 C 
BRANCH  22  23
ATOM     23  N   UNL     1       9.933  11.315  18.657  0.00  0.00    +0.000 N 
ATOM     24  C   UNL     1       9.398  12.223  17.675  0.00  0.00    +0.000 C 
ATOM     25  C   UNL     1      10.627  12.954  17.181  0.00  0.00    +0.000 C 
ATOM     26  C   UNL     1      11.532  13.004  18.407  0.00  0.00    +0.000 C 
ATOM     27  C   UNL     1      11.140  11.767  19.176  0.00  0.00    +0.000 C 
ATOM     28  O   UNL     1      11.754  11.293  20.118  0.00  0.00    +0.000 OA
ENDBRANCH  22  23
ENDBRANCH  21  22
ENDBRANCH  20  21
ENDBRANCH  17  20
ENDBRANCH   1  18
TORSDOF 7
ENDMDL
MODEL 2
REMARK VINA RESULT:      -8.1      5.406      7.664
REMARK  Name = 
REMARK  7 active torsions:
REMARK  status: ('A' for Active; 'I' for Inactive)
REMARK    1  A    between atoms: C_2  and  C_3
REMARK    2  A    between atoms: C_3  and  C_4
REMARK    3  A    between atoms: C_4  and  C_5
REMARK    4  A    between atoms: C_5  and  N_6
REMARK    5  A    between atoms: N_12  and  C_13
REMARK    6  A    between atoms: C_13  and  C_14
REMARK    7  A    between atoms: C_19  and  N_20
REMARK                            x       y       z     vdW  Elec       q    Type
REMARK                         _______ _______ _______ _____ _____    ______ ____
ROOT
ATOM      1  C   UNL     1       1.531   6.756  20.843  0.00  0.00    +0.000 C 
ENDROOT
BRANCH   1   2
ATOM      2  C   UNL     1       2.374   6.666  19.589  0.00  0.00    +0.000 A 
ATOM      3  C   UNL     1       2.388   7.770  18.701  0.00  0.00    +0.000 A 
ATOM      4  C   UNL     1       3.214   7.798  17.594  0.00  0.00    +0.000 A 
ATOM      5  C   UNL     1       4.045   6.727  17.414  0.00  0.00    +0.000 A 
ATOM      6  N   UNL     1       4.076   5.665  18.244  0.00  0.00    +0.000 NA
ATOM      7  C   UNL     1       3.241   5.588  19.317  0.00  0.00    +0.000 A 
BRANCH   7   8
ATOM      8  N   UNL     1       3.356   4.429  20.074  0.00  0.00    +0.000 N 
ATOM      9  C   UNL     1       4.236   3.375  19.549  0.00  0.00    +0.000 C 
ATOM     10  C   UNL     1       3.542   2.112  19.027  0.00  0.00    +0.000 C 
ATOM     11  C   UNL     1       2.399   2.313  18.031  0.00  0.00    +0.000 C 
ATOM     12  C   UNL     1       0.984   2.287  18.616  0.00  0.00    +0.000 C 
ATOM     13  C   UNL     1       0.637   3.337  19.667  0.00  0.00    +0.000 C 
ATOM     14  C   UNL     1       1.382   3.141  20.986  0.00  0.00    +0.000 C 
ATOM     15  C   UNL     1       2.522   4.126  21.227  0.00  0.00    +0.000 C 
ENDBRANCH   7   8
ENDBRANCH   1   2
BRANCH   1  18
ATOM     16  O   UNL     1      -0.819   8.100  21.629  0.00  0.00    +0.000 OA
ATOM     17  C   UNL     1       0.265   8.646  21.774  0.00  0.00    +0.000 C 
ATOM     18  N   UNL     1       1.462   8.087  21.407  0.00  0.00    +0.000 N 
ATOM     19  H   UNL     1       2.218   8.720  21.180  0.00  0.00    +0.000 HD
BRANCH  17  20
ATOM     20  C   UNL     1       0.445  10.025  22.365  0.00  0.00    +0.000 C 
BRANCH  20  21
ATOM     21  C   UNL     1      -0.636  10.952  21.838  0.00  0.00    +0.000 C 
BRANCH  21  22
ATOM     22  C   UNL     1      -0.188  11.660  20.569  0.00  0.00    +0.000 C 
BRANCH  22  23
ATOM     23  N   UNL     1      -1.026  11.310  19.439  0.00  0.00    +0.000 N 
ATOM     24  C   UNL     1      -0.819  10.107  18.673  0.00  0.00    +0.000 C 
ATOM     25  C   UNL     1      -1.785  10.268  17.519  0.00  0.00    +0.000 C 
ATOM     26  C   UNL     1      -2.946  11.046  18.128  0.00  0.00    +0.000 C 
ATOM     27  C   UNL     1      -2.286  11.853  19.219  0.00  0.00    +0.000 C 
ATOM     28  O   UNL     1      -2.800  12.777  19.827  0.00  0.00    +0.000 OA
ENDBRANCH  22  23
ENDBRANCH  21  22
ENDBRANCH  20  21
ENDBRANCH  17  20
ENDBRANCH   1  18
TORSDOF 7
ENDMDL
MODEL 3
REMARK VINA RESULT:      -8.1      6.192      8.352
REMARK  Name = 
REMARK  7 active torsions:
REMARK  status: ('A' for Active; 'I' for Inactive)
REMARK    1  A    between atoms: C_2  and  C_3
REMARK    2  A    between atoms: C_3  and  C_4
REMARK    3  A    between atoms: C_4  and  C_5
REMARK    4  A    between atoms: C_5  and  N_6
REMARK    5  A    between atoms: N_12  and  C_13
REMARK    6  A    between atoms: C_13  and  C_14
REMARK    7  A    between atoms: C_19  and  N_20
REMARK                            x       y       z     vdW  Elec       q    Type
REMARK                         _______ _______ _______ _____ _____    ______ ____
ROOT
ATOM      1  C   UNL     1       1.591   6.797  20.789  0.00  0.00    +0.000 C 
ENDROOT
BRANCH   1   2
ATOM      2  C   UNL     1       2.436   6.647  19.543  0.00  0.00    +0.000 A 
ATOM      3  C   UNL     1       2.484   7.723  18.623  0.00  0.00    +0.000 A 
ATOM      4  C   UNL     1       3.314   7.696  17.519  0.00  0.00    +0.000 A 
ATOM      5  C   UNL     1       4.117   6.598  17.375  0.00  0.00    +0.000 A 
ATOM      6  N   UNL     1       4.116   5.561  18.236  0.00  0.00    +0.000 NA
ATOM      7  C   UNL     1       3.275   5.539  19.307  0.00  0.00    +0.000 A 
BRANCH   7   8
ATOM      8  N   UNL     1       3.356   4.400  20.099  0.00  0.00    +0.000 N 
ATOM      9  C   UNL     1       4.232   3.320  19.625  0.00  0.00    +0.000 C 
ATOM     10  C   UNL     1       3.532   2.052  19.123  0.00  0.00    +0.000 C 
ATOM     11  C   UNL     1       2.414   2.240  18.095  0.00  0.00    +0.000 C 
ATOM     12  C   UNL     1       0.987   2.251  18.648  0.00  0.00    +0.000 C 
ATOM     13  C   UNL     1       0.631   3.335  19.661  0.00  0.00    +0.000 C 
ATOM     14  C   UNL     1       1.343   3.167  21.001  0.00  0.00    +0.000 C 
ATOM     15  C   UNL     1       2.491   4.142  21.241  0.00  0.00    +0.000 C 
ENDBRANCH   7   8
ENDBRANCH   1   2
BRANCH   1  18
ATOM     16  O   UNL     1      -0.753   8.068  21.703  0.00  0.00    +0.000 OA
ATOM     17  C   UNL     1       0.306   8.678  21.711  0.00  0.00    +0.000 C 
ATOM     18  N   UNL     1       1.495   8.159  21.271  0.00  0.00    +0.000 N 
ATOM     19  H   UNL     1       2.190   8.813  20.934  0.00  0.00    +0.000 HD
BRANCH  17  20
ATOM     20  C   UNL     1       0.457  10.103  22.193  0.00  0.00    +0.000 C 
BRANCH  20  21
ATOM     21  C   UNL     1      -0.739  10.484  23.046  0.00  0.00    +0.000 C 
BRANCH  21  22
ATOM     22  C   UNL     1      -1.617  11.509  22.343  0.00  0.00    +0.000 C 
BRANCH  22  23
ATOM     23  N   UNL     1      -1.906  12.641  23.201  0.00  0.00    +0.000 N 
ATOM     24  C   UNL     1      -1.106  13.840  23.187  0.00  0.00    +0.000 C 
ATOM     25  C   UNL     1      -1.661  14.634  24.349  0.00  0.00    +0.000 C 
ATOM     26  C   UNL     1      -3.135  14.247  24.377  0.00  0.00    +0.000 C 
ATOM     27  C   UNL     1      -3.136  12.848  23.812  0.00  0.00    +0.000 C 
ATOM     28  O   UNL     1      -4.074  12.069  23.847  0.00  0.00    +0.000 OA
ENDBRANCH  22  23
ENDBRANCH  21  22
ENDBRANCH  20  21
ENDBRANCH  17  20
ENDBRANCH   1  18
TORSDOF 7
ENDMDL
MODEL 4
REMARK VINA RESULT:      -8.0      1.365      1.639
REMARK  Name = 
REMARK  7 active torsions:
REMARK  status: ('A' for Active; 'I' for Inactive)
REMARK    1  A    between atoms: C_2  and  C_3
REMARK    2  A    between atoms: C_3  and  C_4
REMARK    3  A    between atoms: C_4  and  C_5
REMARK    4  A    between atoms: C_5  and  N_6
REMARK    5  A    between atoms: N_12  and  C_13
REMARK    6  A    between atoms: C_13  and  C_14
REMARK    7  A    between atoms: C_19  and  N_20
REMARK                            x       y       z     vdW  Elec       q    Type
REMARK                         _______ _______ _______ _____ _____    ______ ____
ROOT
ATOM      1  C   UNL     1       5.823   6.022  17.264  0.00  0.00    +0.000 C 
ENDROOT
BRANCH   1   2
ATOM      2  C   UNL     1       4.403   6.287  17.715  0.00  0.00    +0.000 A 
ATOM      3  C   UNL     1       3.903   7.610  17.636  0.00  0.00    +0.000 A 
ATOM      4  C   UNL     1       2.586   7.905  17.932  0.00  0.00    +0.000 A 
ATOM      5  C   UNL     1       1.776   6.855  18.270  0.00  0.00    +0.000 A 
ATOM      6  N   UNL     1       2.208   5.580  18.340  0.00  0.00    +0.000 NA
ATOM      7  C   UNL     1       3.511   5.265  18.100  0.00  0.00    +0.000 A 
BRANCH   7   8
ATOM      8  N   UNL     1       3.829   3.919  18.233  0.00  0.00    +0.000 N 
ATOM      9  C   UNL     1       3.137   2.980  17.338  0.00  0.00    +0.000 C 
ATOM     10  C   UNL     1       2.097   2.064  17.993  0.00  0.00    +0.000 C 
ATOM     11  C   UNL     1       1.045   2.734  18.878  0.00  0.00    +0.000 C 
ATOM     12  C   UNL     1       1.324   2.719  20.383  0.00  0.00    +0.000 C 
ATOM     13  C   UNL     1       2.594   3.410  20.872  0.00  0.00    +0.000 C 
ATOM     14  C   UNL     1       3.873   2.696  20.444  0.00  0.00    +0.000 C 
ATOM     15  C   UNL     1       4.638   3.379  19.315  0.00  0.00    +0.000 C 
ENDBRANCH   7   8
ENDBRANCH   1   2
BRANCH   1  18
ATOM     16  O   UNL     1       8.069   6.784  18.787  0.00  0.00    +0.000 OA
ATOM     17  C   UNL     1       7.699   7.492  17.862  0.00  0.00    +0.000 C 
ATOM     18  N   UNL     1       6.611   7.221  17.075  0.00  0.00    +0.000 N 
ATOM     19  H   UNL     1       6.148   8.008  16.638  0.00  0.00    +0.000 HD
BRANCH  17  20
ATOM     20  C   UNL     1       8.379   8.780  17.459  0.00  0.00    +0.000 C 
BRANCH  20  21
ATOM     21  C   UNL     1       8.743   9.576  18.699  0.00  0.00    +0.000 C 
BRANCH  21  22
ATOM     22  C   UNL     1       9.393  10.902  18.336  0.00  0.00    +0.000 C 
BRANCH  22  23
ATOM     23  N   UNL     1       9.535  11.762  19.495  0.00  0.00    +0.000 N 
ATOM     24  C   UNL     1       9.474  11.252  20.841  0.00  0.00    +0.000 C 
ATOM     25  C   UNL     1       9.482  12.510  21.682  0.00  0.00    +0.000 C 
ATOM     26  C   UNL     1      10.329  13.481  20.868  0.00  0.00    +0.000 C 
ATOM     27  C   UNL     1      10.104  13.028  19.446  0.00  0.00    +0.000 C 
ATOM     28  O   UNL     1      10.419  13.650  18.446  0.00  0.00    +0.000 OA
ENDBRANCH  22  23
ENDBRANCH  21  22
ENDBRANCH  20  21
ENDBRANCH  17  20
ENDBRANCH   1  18
TORSDOF 7
ENDMDL
MODEL 5
REMARK VINA RESULT:      -7.8      2.019      3.084
REMARK  Name = 
REMARK  7 active torsions:
REMARK  status: ('A' for Active; 'I' for Inactive)
REMARK    1  A    between atoms: C_2  and  C_3
REMARK    2  A    between atoms: C_3  and  C_4
REMARK    3  A    between atoms: C_4  and  C_5
REMARK    4  A    between atoms: C_5  and  N_6
REMARK    5  A    between atoms: N_12  and  C_13
REMARK    6  A    between atoms: C_13  and  C_14
REMARK    7  A    between atoms: C_19  and  N_20
REMARK                            x       y       z     vdW  Elec       q    Type
REMARK                         _______ _______ _______ _____ _____    ______ ____
ROOT
ATOM      1  C   UNL     1       7.420   6.253  17.596  0.00  0.00    +0.000 C 
ENDROOT
BRANCH   1   2
ATOM      2  C   UNL     1       6.572   5.493  16.599  0.00  0.00    +0.000 A 
ATOM      3  C   UNL     1       7.070   5.310  15.285  0.00  0.00    +0.000 A 
ATOM      4  C   UNL     1       6.397   4.540  14.357  0.00  0.00    +0.000 A 
ATOM      5  C   UNL     1       5.246   3.929  14.775  0.00  0.00    +0.000 A 
ATOM      6  N   UNL     1       4.748   4.063  16.020  0.00  0.00    +0.000 NA
ATOM      7  C   UNL     1       5.363   4.853  16.943  0.00  0.00    +0.000 A 
BRANCH   7   8
ATOM      8  N   UNL     1       4.730   4.924  18.177  0.00  0.00    +0.000 N 
ATOM      9  C   UNL     1       5.151   3.954  19.198  0.00  0.00    +0.000 C 
ATOM     10  C   UNL     1       4.139   2.855  19.544  0.00  0.00    +0.000 C 
ATOM     11  C   UNL     1       3.535   2.078  18.374  0.00  0.00    +0.000 C 
ATOM     12  C   UNL     1       2.160   2.548  17.892  0.00  0.00    +0.000 C 
ATOM     13  C   UNL     1       2.044   3.980  17.377  0.00  0.00    +0.000 C 
ATOM     14  C   UNL     1       2.223   5.032  18.469  0.00  0.00    +0.000 C 
ATOM     15  C   UNL     1       3.566   5.754  18.446  0.00  0.00    +0.000 C 
ENDBRANCH   7   8
ENDBRANCH   1   2
BRANCH   1  18
ATOM     16  O   UNL     1       8.824   8.146  19.141  0.00  0.00    +0.000 OA
ATOM     17  C   UNL     1       8.261   8.502  18.117  0.00  0.00    +0.000 C 
ATOM     18  N   UNL     1       7.537   7.666  17.307  0.00  0.00    +0.000 N 
ATOM     19  H   UNL     1       6.801   8.082  16.752  0.00  0.00    +0.000 HD
BRANCH  17  20
ATOM     20  C   UNL     1       8.265   9.922  17.599  0.00  0.00    +0.000 C 
BRANCH  20  21
ATOM     21  C   UNL     1       9.087  10.801  18.524  0.00  0.00    +0.000 C 
BRANCH  21  22
ATOM     22  C   UNL     1      10.270  11.420  17.795  0.00  0.00    +0.000 C 
BRANCH  22  23
ATOM     23  N   UNL     1      10.148  12.861  17.707  0.00  0.00    +0.000 N 
ATOM     24  C   UNL     1       9.245  13.609  18.546  0.00  0.00    +0.000 C 
ATOM     25  C   UNL     1       9.327  15.007  17.974  0.00  0.00    +0.000 C 
ATOM     26  C   UNL     1      10.762  15.106  17.470  0.00  0.00    +0.000 C 
ATOM     27  C   UNL     1      11.105  13.679  17.120  0.00  0.00    +0.000 C 
ATOM     28  O   UNL     1      12.080  13.321  16.481  0.00  0.00    +0.000 OA
ENDBRANCH  22  23
ENDBRANCH  21  22
ENDBRANCH  20  21
ENDBRANCH  17  20
ENDBRANCH   1  18
TORSDOF 7
ENDMDL
MODEL 6
REMARK VINA RESULT:      -7.8      0.688      1.283
REMARK  Name = 
REMARK  7 active torsions:
REMARK  status: ('A' for Active; 'I' for Inactive)
REMARK    1  A    between atoms: C_2  and  C_3
REMARK    2  A    between atoms: C_3  and  C_4
REMARK    3  A    between atoms: C_4  and  C_5
REMARK    4  A    between atoms: C_5  and  N_6
REMARK    5  A    between atoms: N_12  and  C_13
REMARK    6  A    between atoms: C_13  and  C_14
REMARK    7  A    between atoms: C_19  and  N_20
REMARK                            x       y       z     vdW  Elec       q    Type
REMARK                         _______ _______ _______ _____ _____    ______ ____
ROOT
ATOM      1  C   UNL     1       5.701   5.427  18.104  0.00  0.00    +0.000 C 
ENDROOT
BRANCH   1   2
ATOM      2  C   UNL     1       4.347   6.063  18.332  0.00  0.00    +0.000 A 
ATOM      3  C   UNL     1       4.022   7.242  17.616  0.00  0.00    +0.000 A 
ATOM      4  C   UNL     1       2.768   7.816  17.696  0.00  0.00    +0.000 A 
ATOM      5  C   UNL     1       1.841   7.173  18.470  0.00  0.00    +0.000 A 
ATOM      6  N   UNL     1       2.103   6.041  19.153  0.00  0.00    +0.000 NA
ATOM      7  C   UNL     1       3.343   5.478  19.131  0.00  0.00    +0.000 A 
BRANCH   7   8
ATOM      8  N   UNL     1       3.485   4.329  19.899  0.00  0.00    +0.000 N 
ATOM      9  C   UNL     1       4.274   3.233  19.319  0.00  0.00    +0.000 C 
ATOM     10  C   UNL     1       3.490   1.988  18.891  0.00  0.00    +0.000 C 
ATOM     11  C   UNL     1       2.268   2.214  18.000  0.00  0.00    +0.000 C 
ATOM     12  C   UNL     1       0.913   2.254  18.712  0.00  0.00    +0.000 C 
ATOM     13  C   UNL     1       0.703   3.335  19.767  0.00  0.00    +0.000 C 
ATOM     14  C   UNL     1       1.558   3.136  21.016  0.00  0.00    +0.000 C 
ATOM     15  C   UNL     1       2.750   4.080  21.130  0.00  0.00    +0.000 C 
ENDBRANCH   7   8
ENDBRANCH   1   2
BRANCH   1  18
ATOM     16  O   UNL     1       7.219   7.269  16.605  0.00  0.00    +0.000 OA
ATOM     17  C   UNL     1       7.472   7.101  17.788  0.00  0.00    +0.000 C 
ATOM     18  N   UNL     1       6.809   6.217  18.598  0.00  0.00    +0.000 N 
ATOM     19  H   UNL     1       7.314   5.848  19.393  0.00  0.00    +0.000 HD
BRANCH  17  20
ATOM     20  C   UNL     1       8.568   7.831  18.530  0.00  0.00    +0.000 C 
BRANCH  20  21
ATOM     21  C   UNL     1       8.490   9.316  18.226  0.00  0.00    +0.000 C 
BRANCH  21  22
ATOM     22  C   UNL     1       9.168  10.140  19.310  0.00  0.00    +0.000 C 
BRANCH  22  23
ATOM     23  N   UNL     1       9.819  11.313  18.759  0.00  0.00    +0.000 N 
ATOM     24  C   UNL     1       9.126  12.249  17.910  0.00  0.00    +0.000 C 
ATOM     25  C   UNL     1      10.232  13.170  17.444  0.00  0.00    +0.000 C 
ATOM     26  C   UNL     1      11.198  13.198  18.623  0.00  0.00    +0.000 C 
ATOM     27  C   UNL     1      10.995  11.849  19.267  0.00  0.00    +0.000 C 
ATOM     28  O   UNL     1      11.715  11.355  20.120  0.00  0.00    +0.000 OA
ENDBRANCH  22  23
ENDBRANCH  21  22
ENDBRANCH  20  21
ENDBRANCH  17  20
ENDBRANCH   1  18
TORSDOF 7
ENDMDL
MODEL 7
REMARK VINA RESULT:      -7.8      1.163      1.226
REMARK  Name = 
REMARK  7 active torsions:
REMARK  status: ('A' for Active; 'I' for Inactive)
REMARK    1  A    between atoms: C_2  and  C_3
REMARK    2  A    between atoms: C_3  and  C_4
REMARK    3  A    between atoms: C_4  and  C_5
REMARK    4  A    between atoms: C_5  and  N_6
REMARK    5  A    between atoms: N_12  and  C_13
REMARK    6  A    between atoms: C_13  and  C_14
REMARK    7  A    between atoms: C_19  and  N_20
REMARK                            x       y       z     vdW  Elec       q    Type
REMARK                         _______ _______ _______ _____ _____    ______ ____
ROOT
ATOM      1  C   UNL     1       5.340   5.637  16.767  0.00  0.00    +0.000 C 
ENDROOT
BRANCH   1   2
ATOM      2  C   UNL     1       4.150   6.067  17.596  0.00  0.00    +0.000 A 
ATOM      3  C   UNL     1       3.779   7.435  17.592  0.00  0.00    +0.000 A 
ATOM      4  C   UNL     1       2.644   7.879  18.243  0.00  0.00    +0.000 A 
ATOM      5  C   UNL     1       1.873   6.933  18.860  0.00  0.00    +0.000 A 
ATOM      6  N   UNL     1       2.180   5.620  18.873  0.00  0.00    +0.000 NA
ATOM      7  C   UNL     1       3.317   5.159  18.281  0.00  0.00    +0.000 A 
BRANCH   7   8
ATOM      8  N   UNL     1       3.527   3.790  18.391  0.00  0.00    +0.000 N 
ATOM      9  C   UNL     1       2.633   2.915  17.620  0.00  0.00    +0.000 C 
ATOM     10  C   UNL     1       1.618   2.101  18.432  0.00  0.00    +0.000 C 
ATOM     11  C   UNL     1       0.769   2.869  19.446  0.00  0.00    +0.000 C 
ATOM     12  C   UNL     1       1.258   2.836  20.897  0.00  0.00    +0.000 C 
ATOM     13  C   UNL     1       2.642   3.408  21.188  0.00  0.00    +0.000 C 
ATOM     14  C   UNL     1       3.777   2.578  20.594  0.00  0.00    +0.000 C 
ATOM     15  C   UNL     1       4.431   3.183  19.356  0.00  0.00    +0.000 C 
ENDBRANCH   7   8
ENDBRANCH   1   2
BRANCH   1  18
ATOM     16  O   UNL     1       7.338   6.287  18.645  0.00  0.00    +0.000 OA
ATOM     17  C   UNL     1       7.290   6.890  17.583  0.00  0.00    +0.000 C 
ATOM     18  N   UNL     1       6.349   6.664  16.613  0.00  0.00    +0.000 N 
ATOM     19  H   UNL     1       6.128   7.433  15.994  0.00  0.00    +0.000 HD
BRANCH  17  20
ATOM     20  C   UNL     1       8.253   7.985  17.189  0.00  0.00    +0.000 C 
BRANCH  20  21
ATOM     21  C   UNL     1       7.938   9.249  17.969  0.00  0.00    +0.000 C 
BRANCH  21  22
ATOM     22  C   UNL     1       8.966   9.497  19.062  0.00  0.00    +0.000 C 
BRANCH  22  23
ATOM     23  N   UNL     1       9.362  10.890  19.116  0.00  0.00    +0.000 N 
ATOM     24  C   UNL     1       9.428  11.716  17.937  0.00  0.00    +0.000 C 
ATOM     25  C   UNL     1      10.053  12.995  18.450  0.00  0.00    +0.000 C 
ATOM     26  C   UNL     1       9.545  13.092  19.884  0.00  0.00    +0.000 C 
ATOM     27  C   UNL     1       9.344  11.650  20.279  0.00  0.00    +0.000 C 
ATOM     28  O   UNL     1       9.149  11.246  21.413  0.00  0.00    +0.000 OA
ENDBRANCH  22  23
ENDBRANCH  21  22
ENDBRANCH  20  21
ENDBRANCH  17  20
ENDBRANCH   1  18
TORSDOF 7
ENDMDL
MODEL 8
REMARK VINA RESULT:      -7.8      1.318      1.460
REMARK  Name = 
REMARK  7 active torsions:
REMARK  status: ('A' for Active; 'I' for Inactive)
REMARK    1  A    between atoms: C_2  and  C_3
REMARK    2  A    between atoms: C_3  and  C_4
REMARK    3  A    between atoms: C_4  and  C_5
REMARK    4  A    between atoms: C_5  and  N_6
REMARK    5  A    between atoms: N_12  and  C_13
REMARK    6  A    between atoms: C_13  and  C_14
REMARK    7  A    between atoms: C_19  and  N_20
REMARK                            x       y       z     vdW  Elec       q    Type
REMARK                         _______ _______ _______ _____ _____    ______ ____
ROOT
ATOM      1  C   UNL     1       5.861   6.249  17.204  0.00  0.00    +0.000 C 
ENDROOT
BRANCH   1   2
ATOM      2  C   UNL     1       4.437   6.443  17.676  0.00  0.00    +0.000 A 
ATOM      3  C   UNL     1       3.874   7.742  17.618  0.00  0.00    +0.000 A 
ATOM      4  C   UNL     1       2.549   7.971  17.935  0.00  0.00    +0.000 A 
ATOM      5  C   UNL     1       1.794   6.881  18.271  0.00  0.00    +0.000 A 
ATOM      6  N   UNL     1       2.286   5.627  18.321  0.00  0.00    +0.000 NA
ATOM      7  C   UNL     1       3.599   5.376  18.060  0.00  0.00    +0.000 A 
BRANCH   7   8
ATOM      8  N   UNL     1       3.980   4.045  18.174  0.00  0.00    +0.000 N 
ATOM      9  C   UNL     1       3.407   3.102  17.203  0.00  0.00    +0.000 C 
ATOM     10  C   UNL     1       2.375   2.110  17.752  0.00  0.00    +0.000 C 
ATOM     11  C   UNL     1       1.228   2.692  18.579  0.00  0.00    +0.000 C 
ATOM     12  C   UNL     1       1.401   2.639  20.099  0.00  0.00    +0.000 C 
ATOM     13  C   UNL     1       2.593   3.379  20.700  0.00  0.00    +0.000 C 
ATOM     14  C   UNL     1       3.937   2.749  20.343  0.00  0.00    +0.000 C 
ATOM     15  C   UNL     1       4.741   3.511  19.294  0.00  0.00    +0.000 C 
ENDBRANCH   7   8
ENDBRANCH   1   2
BRANCH   1  18
ATOM     16  O   UNL     1       8.139   6.963  18.702  0.00  0.00    +0.000 OA
ATOM     17  C   UNL     1       7.718   7.726  17.845  0.00  0.00    +0.000 C 
ATOM     18  N   UNL     1       6.609   7.482  17.078  0.00  0.00    +0.000 N 
ATOM     19  H   UNL     1       6.110   8.284  16.718  0.00  0.00    +0.000 HD
BRANCH  17  20
ATOM     20  C   UNL     1       8.348   9.059  17.516  0.00  0.00    +0.000 C 
BRANCH  20  21
ATOM     21  C   UNL     1       8.855   9.713  18.789  0.00  0.00    +0.000 C 
BRANCH  21  22
ATOM     22  C   UNL     1       9.885  10.791  18.487  0.00  0.00    +0.000 C 
BRANCH  22  23
ATOM     23  N   UNL     1       9.335  12.120  18.670  0.00  0.00    +0.000 N 
ATOM     24  C   UNL     1       8.519  12.758  17.668  0.00  0.00    +0.000 C 
ATOM     25  C   UNL     1       8.346  14.160  18.212  0.00  0.00    +0.000 C 
ATOM     26  C   UNL     1       8.351  13.962  19.723  0.00  0.00    +0.000 C 
ATOM     27  C   UNL     1       9.209  12.735  19.909  0.00  0.00    +0.000 C 
ATOM     28  O   UNL     1       9.658  12.338  20.971  0.00  0.00    +0.000 OA
ENDBRANCH  22  23
ENDBRANCH  21  22
ENDBRANCH  20  21
ENDBRANCH  17  20
ENDBRANCH   1  18
TORSDOF 7
ENDMDL
MODEL 9
REMARK VINA RESULT:      -7.7      6.393      8.965
REMARK  Name = 
REMARK  7 active torsions:
REMARK  status: ('A' for Active; 'I' for Inactive)
REMARK    1  A    between atoms: C_2  and  C_3
REMARK    2  A    between atoms: C_3  and  C_4
REMARK    3  A    between atoms: C_4  and  C_5
REMARK    4  A    between atoms: C_5  and  N_6
REMARK    5  A    between atoms: N_12  and  C_13
REMARK    6  A    between atoms: C_13  and  C_14
REMARK    7  A    between atoms: C_19  and  N_20
REMARK                            x       y       z     vdW  Elec       q    Type
REMARK                         _______ _______ _______ _____ _____    ______ ____
ROOT
ATOM      1  C   UNL     1       1.138   7.767  21.446  0.00  0.00    +0.000 C 
ENDROOT
BRANCH   1   2
ATOM      2  C   UNL     1       1.611   7.917  20.017  0.00  0.00    +0.000 A 
ATOM      3  C   UNL     1       1.288   9.105  19.317  0.00  0.00    +0.000 A 
ATOM      4  C   UNL     1       1.774   9.353  18.048  0.00  0.00    +0.000 A 
ATOM      5  C   UNL     1       2.613   8.416  17.511  0.00  0.00    +0.000 A 
ATOM      6  N   UNL     1       2.960   7.280  18.150  0.00  0.00    +0.000 NA
ATOM      7  C   UNL     1       2.460   6.986  19.382  0.00  0.00    +0.000 A 
BRANCH   7   8
ATOM      8  N   UNL     1       2.876   5.773  19.916  0.00  0.00    +0.000 N 
ATOM      9  C   UNL     1       4.267   5.374  19.656  0.00  0.00    +0.000 C 
ATOM     10  C   UNL     1       4.465   4.201  18.689  0.00  0.00    +0.000 C 
ATOM     11  C   UNL     1       3.738   4.283  17.346  0.00  0.00    +0.000 C 
ATOM     12  C   UNL     1       2.408   3.530  17.253  0.00  0.00    +0.000 C 
ATOM     13  C   UNL     1       1.294   3.948  18.209  0.00  0.00    +0.000 C 
ATOM     14  C   UNL     1       1.591   3.611  19.668  0.00  0.00    +0.000 C 
ATOM     15  C   UNL     1       1.980   4.807  20.532  0.00  0.00    +0.000 C 
ENDBRANCH   7   8
ENDBRANCH   1   2
BRANCH   1  18
ATOM     16  O   UNL     1       1.190   9.485  23.680  0.00  0.00    +0.000 OA
ATOM     17  C   UNL     1       0.232   9.511  22.922  0.00  0.00    +0.000 C 
ATOM     18  N   UNL     1       0.102   8.704  21.821  0.00  0.00    +0.000 N 
ATOM     19  H   UNL     1      -0.838   8.496  21.509  0.00  0.00    +0.000 HD
BRANCH  17  20
ATOM     20  C   UNL     1      -0.958  10.425  23.095  0.00  0.00    +0.000 C 
BRANCH  20  21
ATOM     21  C   UNL     1      -0.746  11.698  22.296  0.00  0.00    +0.000 C 
BRANCH  21  22
ATOM     22  C   UNL     1      -1.396  12.894  22.975  0.00  0.00    +0.000 C 
BRANCH  22  23
ATOM     23  N   UNL     1      -2.716  13.160  22.438  0.00  0.00    +0.000 N 
ATOM     24  C   UNL     1      -2.916  13.640  21.094  0.00  0.00    +0.000 C 
ATOM     25  C   UNL     1      -4.399  13.941  21.057  0.00  0.00    +0.000 C 
ATOM     26  C   UNL     1      -5.000  12.905  22.000  0.00  0.00    +0.000 C 
ATOM     27  C   UNL     1      -3.885  12.644  22.983  0.00  0.00    +0.000 C 
ATOM     28  O   UNL     1      -3.996  12.040  24.036  0.00  0.00    +0.000 OA
ENDBRANCH  22  23
ENDBRANCH  21  22
ENDBRANCH  20  21
ENDBRANCH  17  20
ENDBRANCH   1  18
TORSDOF 7
ENDMDL
