MODEL 1
REMARK VINA RESULT:      -8.9      0.000      0.000
REMARK  Name = 
REMARK  7 active torsions:
REMARK  status: ('A' for Active; 'I' for Inactive)
REMARK    1  A    between atoms: C_1  and  O_2
REMARK    2  A    between atoms: O_2  and  C_3
REMARK    3  A    between atoms: C_6  and  C_7
REMARK    4  A    between atoms: C_7  and  N_8
REMARK    5  A    between atoms: N_8  and  C_9
REMARK    6  A    between atoms: N_8  and  S_15
REMARK    7  A    between atoms: S_15  and  C_18
REMARK                            x       y       z     vdW  Elec       q    Type
REMARK                         _______ _______ _______ _____ _____    ______ ____
ROOT
ATOM      1  N   UNL     1       3.776   5.138  19.418  0.00  0.00    +0.000 NA
ENDROOT
BRANCH   1   2
ATOM      2  C   UNL     1       2.835   3.928  19.560  0.00  0.00    +0.000 C 
ATOM      3  C   UNL     1       2.375   3.746  21.027  0.00  0.00    +0.000 C 
ATOM      4  C   UNL     1       1.048   3.030  20.950  0.00  0.00    +0.000 C 
ATOM      5  N   UNL     1       0.484   3.546  19.753  0.00  0.00    +0.000 N 
ATOM      6  C   UNL     1       1.476   3.872  18.851  0.00  0.00    +0.000 C 
ATOM      7  O   UNL     1       1.237   3.924  17.656  0.00  0.00    +0.000 OA
ATOM      8  H   UNL     1      -0.426   3.281  19.384  0.00  0.00    +0.000 HD
ENDBRANCH   1   2
BRANCH   1   9
ATOM      9  S   UNL     1       5.428   4.571  19.176  0.00  0.00    +0.000 S 
ATOM     10  O   UNL     1       6.338   5.552  19.726  0.00  0.00    +0.000 OA
ATOM     11  O   UNL     1       5.460   3.198  19.641  0.00  0.00    +0.000 OA
BRANCH   9  12
ATOM     12  C   UNL     1       5.728   4.541  17.416  0.00  0.00    +0.000 A 
ATOM     13  C   UNL     1       6.865   5.164  16.890  0.00  0.00    +0.000 A 
ATOM     14  C   UNL     1       7.129   5.078  15.519  0.00  0.00    +0.000 A 
ATOM     15  C   UNL     1       6.268   4.360  14.685  0.00  0.00    +0.000 A 
ATOM     16 CL   UNL     1       6.578   4.286  12.995  0.00  0.00    +0.000 Cl
ATOM     17  C   UNL     1       5.162   3.697  15.216  0.00  0.00    +0.000 A 
ATOM     18  C   UNL     1       4.897   3.775  16.585  0.00  0.00    +0.000 A 
ENDBRANCH   9  12
ENDBRANCH   1   9
BRANCH   1  19
ATOM     19  C   UNL     1       3.383   6.037  18.280  0.00  0.00    +0.000 C 
BRANCH  19  23
ATOM     20  C   UNL     1       1.113   9.604  19.244  0.00  0.00    +0.000 A 
ATOM     21  C   UNL     1       1.642   9.437  17.959  0.00  0.00    +0.000 A 
ATOM     22  C   UNL     1       2.395   8.298  17.631  0.00  0.00    +0.000 A 
ATOM     23  C   UNL     1       2.617   7.300  18.587  0.00  0.00    +0.000 A 
ATOM     24  C   UNL     1       2.057   7.460  19.867  0.00  0.00    +0.000 A 
ATOM     25  C   UNL     1       1.330   8.604  20.191  0.00  0.00    +0.000 A 
ATOM     26  F   UNL     1       0.836   8.687  21.434  0.00  0.00    +0.000 F 
BRANCH  20  28
ATOM     27  C   UNL     1      -1.014  10.645  19.172  0.00  0.00    +0.000 C 
ATOM     28  O   UNL     1       0.384  10.749  19.425  0.00  0.00    +0.000 OA
ENDBRANCH  20  28
ENDBRANCH  19  23
ENDBRANCH   1  19
TORSDOF 6
ENDMDL
MODEL 2
REMARK VINA RESULT:      -8.5      2.064      2.416
REMARK  Name = 
REMARK  7 active torsions:
REMARK  status: ('A' for Active; 'I' for Inactive)
REMARK    1  A    between atoms: C_1  and  O_2
REMARK    2  A    between atoms: O_2  and  C_3
REMARK    3  A    between atoms: C_6  and  C_7
REMARK    4  A    between atoms: C_7  and  N_8
REMARK    5  A    between atoms: N_8  and  C_9
REMARK    6  A    between atoms: N_8  and  S_15
REMARK    7  A    between atoms: S_15  and  C_18
REMARK                            x       y       z     vdW  Elec       q    Type
REMARK                         _______ _______ _______ _____ _____    ______ ____
ROOT
ATOM      1  N   UNL     1       3.535   4.877  19.108  0.00  0.00    +0.000 NA
ENDROOT
BRANCH   1   2
ATOM      2  C   UNL     1       2.752   3.633  19.560  0.00  0.00    +0.000 C 
ATOM      3  C   UNL     1       2.505   3.652  21.089  0.00  0.00    +0.000 C 
ATOM      4  C   UNL     1       1.260   2.827  21.310  0.00  0.00    +0.000 C 
ATOM      5  N   UNL     1       0.497   3.094  20.143  0.00  0.00    +0.000 N 
ATOM      6  C   UNL     1       1.326   3.351  19.070  0.00  0.00    +0.000 C 
ATOM      7  O   UNL     1       0.931   3.189  17.927  0.00  0.00    +0.000 OA
ATOM      8  H   UNL     1      -0.420   2.698  19.951  0.00  0.00    +0.000 HD
ENDBRANCH   1   2
BRANCH   1   9
ATOM      9  S   UNL     1       5.024   4.373  18.308  0.00  0.00    +0.000 S 
ATOM     10  O   UNL     1       5.699   3.412  19.153  0.00  0.00    +0.000 OA
ATOM     11  O   UNL     1       4.659   4.026  16.949  0.00  0.00    +0.000 OA
BRANCH   9  12
ATOM     12  C   UNL     1       6.092   5.801  18.222  0.00  0.00    +0.000 A 
ATOM     13  C   UNL     1       7.293   5.821  18.938  0.00  0.00    +0.000 A 
ATOM     14  C   UNL     1       8.156   6.914  18.811  0.00  0.00    +0.000 A 
ATOM     15  C   UNL     1       7.825   7.971  17.961  0.00  0.00    +0.000 A 
ATOM     16 CL   UNL     1       8.873   9.329  17.834  0.00  0.00    +0.000 Cl
ATOM     17  C   UNL     1       6.652   7.930  17.208  0.00  0.00    +0.000 A 
ATOM     18  C   UNL     1       5.789   6.838  17.325  0.00  0.00    +0.000 A 
ENDBRANCH   9  12
ENDBRANCH   1   9
BRANCH   1  19
ATOM     19  C   UNL     1       2.737   5.748  18.179  0.00  0.00    +0.000 C 
BRANCH  19  23
ATOM     20  C   UNL     1       1.234   9.510  19.724  0.00  0.00    +0.000 A 
ATOM     21  C   UNL     1       1.504   9.372  18.358  0.00  0.00    +0.000 A 
ATOM     22  C   UNL     1       2.008   8.169  17.839  0.00  0.00    +0.000 A 
ATOM     23  C   UNL     1       2.236   7.078  18.685  0.00  0.00    +0.000 A 
ATOM     24  C   UNL     1       1.934   7.213  20.052  0.00  0.00    +0.000 A 
ATOM     25  C   UNL     1       1.456   8.418  20.562  0.00  0.00    +0.000 A 
ATOM     26  F   UNL     1       1.199   8.472  21.877  0.00  0.00    +0.000 F 
BRANCH  20  28
ATOM     27  C   UNL     1      -0.616  10.990  19.705  0.00  0.00    +0.000 C 
ATOM     28  O   UNL     1       0.729  10.729  20.093  0.00  0.00    +0.000 OA
ENDBRANCH  20  28
ENDBRANCH  19  23
ENDBRANCH   1  19
TORSDOF 6
ENDMDL
MODEL 3
REMARK VINA RESULT:      -8.5      2.082      2.493
REMARK  Name = 
REMARK  7 active torsions:
REMARK  status: ('A' for Active; 'I' for Inactive)
REMARK    1  A    between atoms: C_1  and  O_2
REMARK    2  A    between atoms: O_2  and  C_3
REMARK    3  A    between atoms: C_6  and  C_7
REMARK    4  A    between atoms: C_7  and  N_8
REMARK    5  A    between atoms: N_8  and  C_9
REMARK    6  A    between atoms: N_8  and  S_15
REMARK    7  A    between atoms: S_15  and  C_18
REMARK                            x       y       z     vdW  Elec       q    Type
REMARK                         _______ _______ _______ _____ _____    ______ ____
ROOT
ATOM      1  N   UNL     1       3.545   4.818  19.155  0.00  0.00    +0.000 NA
ENDROOT
BRANCH   1   2
ATOM      2  C   UNL     1       2.779   3.608  19.715  0.00  0.00    +0.000 C 
ATOM      3  C   UNL     1       2.488   3.780  21.226  0.00  0.00    +0.000 C 
ATOM      4  C   UNL     1       1.257   2.950  21.501  0.00  0.00    +0.000 C 
ATOM      5  N   UNL     1       0.521   3.074  20.293  0.00  0.00    +0.000 N 
ATOM      6  C   UNL     1       1.374   3.239  19.220  0.00  0.00    +0.000 C 
ATOM      7  O   UNL     1       1.015   2.949  18.091  0.00  0.00    +0.000 OA
ATOM      8  H   UNL     1      -0.381   2.637  20.120  0.00  0.00    +0.000 HD
ENDBRANCH   1   2
BRANCH   1   9
ATOM      9  S   UNL     1       4.963   4.255  18.270  0.00  0.00    +0.000 S 
ATOM     10  O   UNL     1       5.660   3.283  19.085  0.00  0.00    +0.000 OA
ATOM     11  O   UNL     1       4.502   3.902  16.942  0.00  0.00    +0.000 OA
BRANCH   9  12
ATOM     12  C   UNL     1       6.069   5.646  18.095  0.00  0.00    +0.000 A 
ATOM     13  C   UNL     1       5.707   6.730  17.289  0.00  0.00    +0.000 A 
ATOM     14  C   UNL     1       6.548   7.845  17.212  0.00  0.00    +0.000 A 
ATOM     15  C   UNL     1       7.734   7.879  17.949  0.00  0.00    +0.000 A 
ATOM     16 CL   UNL     1       8.782   9.237  17.823  0.00  0.00    +0.000 Cl
ATOM     17  C   UNL     1       8.072   6.820  18.791  0.00  0.00    +0.000 A 
ATOM     18  C   UNL     1       7.233   5.706  18.877  0.00  0.00    +0.000 A 
ENDBRANCH   9  12
ENDBRANCH   1   9
BRANCH   1  19
ATOM     19  C   UNL     1       2.695   5.665  18.250  0.00  0.00    +0.000 C 
BRANCH  19  23
ATOM     20  C   UNL     1       1.278   9.473  19.763  0.00  0.00    +0.000 A 
ATOM     21  C   UNL     1       1.630   9.343  18.415  0.00  0.00    +0.000 A 
ATOM     22  C   UNL     1       2.108   8.124  17.908  0.00  0.00    +0.000 A 
ATOM     23  C   UNL     1       2.227   7.010  18.747  0.00  0.00    +0.000 A 
ATOM     24  C   UNL     1       1.843   7.139  20.094  0.00  0.00    +0.000 A 
ATOM     25  C   UNL     1       1.391   8.359  20.594  0.00  0.00    +0.000 A 
ATOM     26  F   UNL     1       1.051   8.405  21.890  0.00  0.00    +0.000 F 
BRANCH  20  28
ATOM     27  C   UNL     1       1.165  11.785  19.257  0.00  0.00    +0.000 C 
ATOM     28  O   UNL     1       0.810  10.709  20.121  0.00  0.00    +0.000 OA
ENDBRANCH  20  28
ENDBRANCH  19  23
ENDBRANCH   1  19
TORSDOF 6
ENDMDL
MODEL 4
REMARK VINA RESULT:      -8.4      2.235      2.777
REMARK  Name = 
REMARK  7 active torsions:
REMARK  status: ('A' for Active; 'I' for Inactive)
REMARK    1  A    between atoms: C_1  and  O_2
REMARK    2  A    between atoms: O_2  and  C_3
REMARK    3  A    between atoms: C_6  and  C_7
REMARK    4  A    between atoms: C_7  and  N_8
REMARK    5  A    between atoms: N_8  and  C_9
REMARK    6  A    between atoms: N_8  and  S_15
REMARK    7  A    between atoms: S_15  and  C_18
REMARK                            x       y       z     vdW  Elec       q    Type
REMARK                         _______ _______ _______ _____ _____    ______ ____
ROOT
ATOM      1  N   UNL     1       3.520   4.722  19.200  0.00  0.00    +0.000 NA
ENDROOT
BRANCH   1   2
ATOM      2  C   UNL     1       2.735   3.513  19.735  0.00  0.00    +0.000 C 
ATOM      3  C   UNL     1       2.475   3.643  21.256  0.00  0.00    +0.000 C 
ATOM      4  C   UNL     1       1.230   2.833  21.526  0.00  0.00    +0.000 C 
ATOM      5  N   UNL     1       0.476   3.014  20.337  0.00  0.00    +0.000 N 
ATOM      6  C   UNL     1       1.313   3.193  19.255  0.00  0.00    +0.000 C 
ATOM      7  O   UNL     1       0.928   2.949  18.123  0.00  0.00    +0.000 OA
ATOM      8  H   UNL     1      -0.439   2.604  20.167  0.00  0.00    +0.000 HD
ENDBRANCH   1   2
BRANCH   1   9
ATOM      9  S   UNL     1       4.934   4.156  18.312  0.00  0.00    +0.000 S 
ATOM     10  O   UNL     1       5.640   3.194  19.131  0.00  0.00    +0.000 OA
ATOM     11  O   UNL     1       4.466   3.789  16.990  0.00  0.00    +0.000 OA
BRANCH   9  12
ATOM     12  C   UNL     1       6.034   5.549  18.117  0.00  0.00    +0.000 A 
ATOM     13  C   UNL     1       5.673   6.614  17.285  0.00  0.00    +0.000 A 
ATOM     14  C   UNL     1       6.509   7.732  17.192  0.00  0.00    +0.000 A 
ATOM     15  C   UNL     1       7.689   7.788  17.937  0.00  0.00    +0.000 A 
ATOM     16 CL   UNL     1       8.730   9.149  17.792  0.00  0.00    +0.000 Cl
ATOM     17  C   UNL     1       8.025   6.749  18.804  0.00  0.00    +0.000 A 
ATOM     18  C   UNL     1       7.191   5.633  18.907  0.00  0.00    +0.000 A 
ENDBRANCH   9  12
ENDBRANCH   1   9
BRANCH   1  19
ATOM     19  C   UNL     1       2.685   5.597  18.307  0.00  0.00    +0.000 C 
BRANCH  19  23
ATOM     20  C   UNL     1       1.296   9.428  19.788  0.00  0.00    +0.000 A 
ATOM     21  C   UNL     1       1.351   8.324  20.646  0.00  0.00    +0.000 A 
ATOM     22  C   UNL     1       1.781   7.070  20.183  0.00  0.00    +0.000 A 
ATOM     23  C   UNL     1       2.176   6.909  18.850  0.00  0.00    +0.000 A 
ATOM     24  C   UNL     1       2.146   8.029  18.001  0.00  0.00    +0.000 A 
ATOM     25  C   UNL     1       1.697   9.264  18.463  0.00  0.00    +0.000 A 
ATOM     26  F   UNL     1       1.690  10.282  17.591  0.00  0.00    +0.000 F 
BRANCH  20  28
ATOM     27  C   UNL     1       0.342  10.475  21.687  0.00  0.00    +0.000 C 
ATOM     28  O   UNL     1       0.877  10.593  20.372  0.00  0.00    +0.000 OA
ENDBRANCH  20  28
ENDBRANCH  19  23
ENDBRANCH   1  19
TORSDOF 6
ENDMDL
MODEL 5
REMARK VINA RESULT:      -8.4      1.015      1.373
REMARK  Name = 
REMARK  7 active torsions:
REMARK  status: ('A' for Active; 'I' for Inactive)
REMARK    1  A    between atoms: C_1  and  O_2
REMARK    2  A    between atoms: O_2  and  C_3
REMARK    3  A    between atoms: C_6  and  C_7
REMARK    4  A    between atoms: C_7  and  N_8
REMARK    5  A    between atoms: N_8  and  C_9
REMARK    6  A    between atoms: N_8  and  S_15
REMARK    7  A    between atoms: S_15  and  C_18
REMARK                            x       y       z     vdW  Elec       q    Type
REMARK                         _______ _______ _______ _____ _____    ______ ____
ROOT
ATOM      1  N   UNL     1       3.782   5.065  19.541  0.00  0.00    +0.000 NA
ENDROOT
BRANCH   1   2
ATOM      2  C   UNL     1       2.842   3.851  19.623  0.00  0.00    +0.000 C 
ATOM      3  C   UNL     1       2.368   3.607  21.076  0.00  0.00    +0.000 C 
ATOM      4  C   UNL     1       1.042   2.895  20.958  0.00  0.00    +0.000 C 
ATOM      5  N   UNL     1       0.489   3.460  19.779  0.00  0.00    +0.000 N 
ATOM      6  C   UNL     1       1.489   3.824  18.900  0.00  0.00    +0.000 C 
ATOM      7  O   UNL     1       1.260   3.926  17.706  0.00  0.00    +0.000 OA
ATOM      8  H   UNL     1      -0.418   3.210  19.390  0.00  0.00    +0.000 HD
ENDBRANCH   1   2
BRANCH   1   9
ATOM      9  S   UNL     1       5.431   4.512  19.249  0.00  0.00    +0.000 S 
ATOM     10  O   UNL     1       6.349   5.498  19.776  0.00  0.00    +0.000 OA
ATOM     11  O   UNL     1       5.487   3.138  19.708  0.00  0.00    +0.000 OA
BRANCH   9  12
ATOM     12  C   UNL     1       5.680   4.490  17.481  0.00  0.00    +0.000 A 
ATOM     13  C   UNL     1       6.783   5.145  16.922  0.00  0.00    +0.000 A 
ATOM     14  C   UNL     1       7.009   5.066  15.544  0.00  0.00    +0.000 A 
ATOM     15  C   UNL     1       6.146   4.323  14.736  0.00  0.00    +0.000 A 
ATOM     16 CL   UNL     1       6.408   4.257  13.037  0.00  0.00    +0.000 Cl
ATOM     17  C   UNL     1       5.075   3.629  15.298  0.00  0.00    +0.000 A 
ATOM     18  C   UNL     1       4.848   3.699  16.674  0.00  0.00    +0.000 A 
ENDBRANCH   9  12
ENDBRANCH   1   9
BRANCH   1  19
ATOM     19  C   UNL     1       3.379   6.029  18.460  0.00  0.00    +0.000 C 
BRANCH  19  23
ATOM     20  C   UNL     1       1.146   9.603  19.481  0.00  0.00    +0.000 A 
ATOM     21  C   UNL     1       1.258   8.559  20.407  0.00  0.00    +0.000 A 
ATOM     22  C   UNL     1       1.961   7.386  20.090  0.00  0.00    +0.000 A 
ATOM     23  C   UNL     1       2.576   7.248  18.841  0.00  0.00    +0.000 A 
ATOM     24  C   UNL     1       2.485   8.313  17.927  0.00  0.00    +0.000 A 
ATOM     25  C   UNL     1       1.766   9.465  18.240  0.00  0.00    +0.000 A 
ATOM     26  F   UNL     1       1.719  10.432  17.313  0.00  0.00    +0.000 F 
BRANCH  20  28
ATOM     27  C   UNL     1       0.171  10.734  21.321  0.00  0.00    +0.000 C 
ATOM     28  O   UNL     1       0.450  10.696  19.924  0.00  0.00    +0.000 OA
ENDBRANCH  20  28
ENDBRANCH  19  23
ENDBRANCH   1  19
TORSDOF 6
ENDMDL
MODEL 6
REMARK VINA RESULT:      -8.0      3.450      6.451
REMARK  Name = 
REMARK  7 active torsions:
REMARK  status: ('A' for Active; 'I' for Inactive)
REMARK    1  A    between atoms: C_1  and  O_2
REMARK    2  A    between atoms: O_2  and  C_3
REMARK    3  A    between atoms: C_6  and  C_7
REMARK    4  A    between atoms: C_7  and  N_8
REMARK    5  A    between atoms: N_8  and  C_9
REMARK    6  A    between atoms: N_8  and  S_15
REMARK    7  A    between atoms: S_15  and  C_18
REMARK                            x       y       z     vdW  Elec       q    Type
REMARK                         _______ _______ _______ _____ _____    ______ ____
ROOT
ATOM      1  N   UNL     1       2.939   4.579  19.216  0.00  0.00    +0.000 NA
ENDROOT
BRANCH   1   2
ATOM      2  C   UNL     1       2.932   3.042  19.256  0.00  0.00    +0.000 C 
ATOM      3  C   UNL     1       3.151   2.444  17.844  0.00  0.00    +0.000 C 
ATOM      4  C   UNL     1       3.757   1.080  18.070  0.00  0.00    +0.000 C 
ATOM      5  N   UNL     1       4.544   1.277  19.236  0.00  0.00    +0.000 N 
ATOM      6  C   UNL     1       3.983   2.247  20.041  0.00  0.00    +0.000 C 
ATOM      7  O   UNL     1       4.229   2.281  21.236  0.00  0.00    +0.000 OA
ATOM      8  H   UNL     1       5.105   0.555  19.681  0.00  0.00    +0.000 HD
ENDBRANCH   1   2
BRANCH   1   9
ATOM      9  S   UNL     1       1.891   5.204  20.489  0.00  0.00    +0.000 S 
ATOM     10  O   UNL     1       0.582   4.605  20.344  0.00  0.00    +0.000 OA
ATOM     11  O   UNL     1       2.628   5.065  21.729  0.00  0.00    +0.000 OA
BRANCH   9  12
ATOM     12  C   UNL     1       1.676   6.952  20.192  0.00  0.00    +0.000 A 
ATOM     13  C   UNL     1       1.975   7.490  18.937  0.00  0.00    +0.000 A 
ATOM     14  C   UNL     1       1.739   8.847  18.693  0.00  0.00    +0.000 A 
ATOM     15  C   UNL     1       1.194   9.653  19.694  0.00  0.00    +0.000 A 
ATOM     16 CL   UNL     1       0.938  11.329  19.401  0.00  0.00    +0.000 Cl
ATOM     17  C   UNL     1       0.849   9.107  20.929  0.00  0.00    +0.000 A 
ATOM     18  C   UNL     1       1.076   7.751  21.177  0.00  0.00    +0.000 A 
ENDBRANCH   9  12
ENDBRANCH   1   9
BRANCH   1  19
ATOM     19  C   UNL     1       4.321   5.149  19.381  0.00  0.00    +0.000 C 
BRANCH  19  23
ATOM     20  C   UNL     1       6.768   5.474  15.816  0.00  0.00    +0.000 A 
ATOM     21  C   UNL     1       7.215   4.718  16.906  0.00  0.00    +0.000 A 
ATOM     22  C   UNL     1       6.447   4.614  18.076  0.00  0.00    +0.000 A 
ATOM     23  C   UNL     1       5.208   5.258  18.165  0.00  0.00    +0.000 A 
ATOM     24  C   UNL     1       4.751   5.991  17.056  0.00  0.00    +0.000 A 
ATOM     25  C   UNL     1       5.530   6.108  15.907  0.00  0.00    +0.000 A 
ATOM     26  F   UNL     1       5.030   6.831  14.895  0.00  0.00    +0.000 F 
BRANCH  20  28
ATOM     27  C   UNL     1       7.186   4.693  13.619  0.00  0.00    +0.000 C 
ATOM     28  O   UNL     1       7.605   5.476  14.732  0.00  0.00    +0.000 OA
ENDBRANCH  20  28
ENDBRANCH  19  23
ENDBRANCH   1  19
TORSDOF 6
ENDMDL
MODEL 7
REMARK VINA RESULT:      -7.8      3.638      6.565
REMARK  Name = 
REMARK  7 active torsions:
REMARK  status: ('A' for Active; 'I' for Inactive)
REMARK    1  A    between atoms: C_1  and  O_2
REMARK    2  A    between atoms: O_2  and  C_3
REMARK    3  A    between atoms: C_6  and  C_7
REMARK    4  A    between atoms: C_7  and  N_8
REMARK    5  A    between atoms: N_8  and  C_9
REMARK    6  A    between atoms: N_8  and  S_15
REMARK    7  A    between atoms: S_15  and  C_18
REMARK                            x       y       z     vdW  Elec       q    Type
REMARK                         _______ _______ _______ _____ _____    ______ ____
ROOT
ATOM      1  N   UNL     1       2.804   4.748  19.210  0.00  0.00    +0.000 NA
ENDROOT
BRANCH   1   2
ATOM      2  C   UNL     1       2.790   3.210  19.216  0.00  0.00    +0.000 C 
ATOM      3  C   UNL     1       3.031   2.643  17.795  0.00  0.00    +0.000 C 
ATOM      4  C   UNL     1       3.628   1.271  18.001  0.00  0.00    +0.000 C 
ATOM      5  N   UNL     1       4.396   1.440  19.184  0.00  0.00    +0.000 N 
ATOM      6  C   UNL     1       3.825   2.393  20.001  0.00  0.00    +0.000 C 
ATOM      7  O   UNL     1       4.050   2.400  21.200  0.00  0.00    +0.000 OA
ATOM      8  H   UNL     1       4.947   0.705  19.622  0.00  0.00    +0.000 HD
ENDBRANCH   1   2
BRANCH   1   9
ATOM      9  S   UNL     1       1.784   5.348  20.517  0.00  0.00    +0.000 S 
ATOM     10  O   UNL     1       0.469   4.757  20.385  0.00  0.00    +0.000 OA
ATOM     11  O   UNL     1       2.544   5.178  21.739  0.00  0.00    +0.000 OA
BRANCH   9  12
ATOM     12  C   UNL     1       1.571   7.103  20.264  0.00  0.00    +0.000 A 
ATOM     13  C   UNL     1       1.878   7.673  19.025  0.00  0.00    +0.000 A 
ATOM     14  C   UNL     1       1.644   9.036  18.814  0.00  0.00    +0.000 A 
ATOM     15  C   UNL     1       1.092   9.817  19.832  0.00  0.00    +0.000 A 
ATOM     16 CL   UNL     1       0.838  11.499  19.580  0.00  0.00    +0.000 Cl
ATOM     17  C   UNL     1       0.740   9.239  21.051  0.00  0.00    +0.000 A 
ATOM     18  C   UNL     1       0.965   7.877  21.266  0.00  0.00    +0.000 A 
ENDBRANCH   9  12
ENDBRANCH   1   9
BRANCH   1  19
ATOM     19  C   UNL     1       4.191   5.307  19.361  0.00  0.00    +0.000 C 
BRANCH  19  23
ATOM     20  C   UNL     1       6.916   5.313  15.988  0.00  0.00    +0.000 A 
ATOM     21  C   UNL     1       5.665   5.932  15.879  0.00  0.00    +0.000 A 
ATOM     22  C   UNL     1       4.761   5.927  16.952  0.00  0.00    +0.000 A 
ATOM     23  C   UNL     1       5.105   5.309  18.160  0.00  0.00    +0.000 A 
ATOM     24  C   UNL     1       6.374   4.715  18.273  0.00  0.00    +0.000 A 
ATOM     25  C   UNL     1       7.257   4.706  17.195  0.00  0.00    +0.000 A 
ATOM     26  F   UNL     1       8.446   4.112  17.378  0.00  0.00    +0.000 F 
BRANCH  20  28
ATOM     27  C   UNL     1       7.185   4.819  13.686  0.00  0.00    +0.000 C 
ATOM     28  O   UNL     1       7.707   5.408  14.874  0.00  0.00    +0.000 OA
ENDBRANCH  20  28
ENDBRANCH  19  23
ENDBRANCH   1  19
TORSDOF 6
ENDMDL
MODEL 8
REMARK VINA RESULT:      -7.8      2.805      5.026
REMARK  Name = 
REMARK  7 active torsions:
REMARK  status: ('A' for Active; 'I' for Inactive)
REMARK    1  A    between atoms: C_1  and  O_2
REMARK    2  A    between atoms: O_2  and  C_3
REMARK    3  A    between atoms: C_6  and  C_7
REMARK    4  A    between atoms: C_7  and  N_8
REMARK    5  A    between atoms: N_8  and  C_9
REMARK    6  A    between atoms: N_8  and  S_15
REMARK    7  A    between atoms: S_15  and  C_18
REMARK                            x       y       z     vdW  Elec       q    Type
REMARK                         _______ _______ _______ _____ _____    ______ ____
ROOT
ATOM      1  N   UNL     1       4.005   5.499  17.636  0.00  0.00    +0.000 NA
ENDROOT
BRANCH   1   2
ATOM      2  C   UNL     1       5.538   5.494  17.504  0.00  0.00    +0.000 C 
ATOM      3  C   UNL     1       6.041   6.766  16.778  0.00  0.00    +0.000 C 
ATOM      4  C   UNL     1       7.455   6.978  17.264  0.00  0.00    +0.000 C 
ATOM      5  N   UNL     1       7.397   6.517  18.605  0.00  0.00    +0.000 N 
ATOM      6  C   UNL     1       6.456   5.515  18.733  0.00  0.00    +0.000 C 
ATOM      7  O   UNL     1       6.527   4.708  19.645  0.00  0.00    +0.000 OA
ATOM      8  H   UNL     1       8.185   6.513  19.248  0.00  0.00    +0.000 HD
ENDBRANCH   1   2
BRANCH   1   9
ATOM      9  S   UNL     1       3.400   3.848  17.498  0.00  0.00    +0.000 S 
ATOM     10  O   UNL     1       2.334   3.827  16.520  0.00  0.00    +0.000 OA
ATOM     11  O   UNL     1       4.563   3.000  17.333  0.00  0.00    +0.000 OA
BRANCH   9  12
ATOM     12  C   UNL     1       2.651   3.422  19.062  0.00  0.00    +0.000 A 
ATOM     13  C   UNL     1       1.265   3.511  19.221  0.00  0.00    +0.000 A 
ATOM     14  C   UNL     1       0.680   3.110  20.427  0.00  0.00    +0.000 A 
ATOM     15  C   UNL     1       1.478   2.611  21.459  0.00  0.00    +0.000 A 
ATOM     16 CL   UNL     1       0.759   2.152  22.953  0.00  0.00    +0.000 Cl
ATOM     17  C   UNL     1       2.854   2.475  21.284  0.00  0.00    +0.000 A 
ATOM     18  C   UNL     1       3.443   2.868  20.080  0.00  0.00    +0.000 A 
ENDBRANCH   9  12
ENDBRANCH   1   9
BRANCH   1  19
ATOM     19  C   UNL     1       3.544   6.094  18.937  0.00  0.00    +0.000 C 
BRANCH  19  23
ATOM     20  C   UNL     1       1.043   9.636  18.918  0.00  0.00    +0.000 A 
ATOM     21  C   UNL     1       1.770   9.286  17.775  0.00  0.00    +0.000 A 
ATOM     22  C   UNL     1       2.600   8.154  17.765  0.00  0.00    +0.000 A 
ATOM     23  C   UNL     1       2.702   7.345  18.902  0.00  0.00    +0.000 A 
ATOM     24  C   UNL     1       1.945   7.684  20.037  0.00  0.00    +0.000 A 
ATOM     25  C   UNL     1       1.141   8.822  20.046  0.00  0.00    +0.000 A 
ATOM     26  F   UNL     1       0.457   9.084  21.169  0.00  0.00    +0.000 F 
BRANCH  20  28
ATOM     27  C   UNL     1      -1.139  10.518  18.648  0.00  0.00    +0.000 C 
ATOM     28  O   UNL     1       0.259  10.751  18.786  0.00  0.00    +0.000 OA
ENDBRANCH  20  28
ENDBRANCH  19  23
ENDBRANCH   1  19
TORSDOF 6
ENDMDL
MODEL 9
REMARK VINA RESULT:      -7.8      0.802      1.088
REMARK  Name = 
REMARK  7 active torsions:
REMARK  status: ('A' for Active; 'I' for Inactive)
REMARK    1  A    between atoms: C_1  and  O_2
REMARK    2  A    between atoms: O_2  and  C_3
REMARK    3  A    between atoms: C_6  and  C_7
REMARK    4  A    between atoms: C_7  and  N_8
REMARK    5  A    between atoms: N_8  and  C_9
REMARK    6  A    between atoms: N_8  and  S_15
REMARK    7  A    between atoms: S_15  and  C_18
REMARK                            x       y       z     vdW  Elec       q    Type
REMARK                         _______ _______ _______ _____ _____    ______ ____
ROOT
ATOM      1  N   UNL     1       3.815   5.387  19.221  0.00  0.00    +0.000 NA
ENDROOT
BRANCH   1   2
ATOM      2  C   UNL     1       3.078   4.046  19.384  0.00  0.00    +0.000 C 
ATOM      3  C   UNL     1       2.336   3.978  20.742  0.00  0.00    +0.000 C 
ATOM      4  C   UNL     1       1.195   3.011  20.533  0.00  0.00    +0.000 C 
ATOM      5  N   UNL     1       0.837   3.239  19.178  0.00  0.00    +0.000 N 
ATOM      6  C   UNL     1       1.940   3.628  18.444  0.00  0.00    +0.000 C 
ATOM      7  O   UNL     1       1.969   3.469  17.235  0.00  0.00    +0.000 OA
ATOM      8  H   UNL     1       0.089   2.752  18.690  0.00  0.00    +0.000 HD
ENDBRANCH   1   2
BRANCH   1   9
ATOM      9  S   UNL     1       5.506   5.081  18.824  0.00  0.00    +0.000 S 
ATOM     10  O   UNL     1       6.255   6.302  19.027  0.00  0.00    +0.000 OA
ATOM     11  O   UNL     1       5.876   3.868  19.525  0.00  0.00    +0.000 OA
BRANCH   9  12
ATOM     12  C   UNL     1       5.587   4.729  17.075  0.00  0.00    +0.000 A 
ATOM     13  C   UNL     1       5.459   3.413  16.620  0.00  0.00    +0.000 A 
ATOM     14  C   UNL     1       5.456   3.154  15.245  0.00  0.00    +0.000 A 
ATOM     15  C   UNL     1       5.564   4.208  14.335  0.00  0.00    +0.000 A 
ATOM     16 CL   UNL     1       5.594   3.882  12.646  0.00  0.00    +0.000 Cl
ATOM     17  C   UNL     1       5.642   5.524  14.786  0.00  0.00    +0.000 A 
ATOM     18  C   UNL     1       5.640   5.790  16.158  0.00  0.00    +0.000 A 
ENDBRANCH   9  12
ENDBRANCH   1   9
BRANCH   1  19
ATOM     19  C   UNL     1       3.199   6.252  18.157  0.00  0.00    +0.000 C 
BRANCH  19  23
ATOM     20  C   UNL     1       1.039   9.785  19.442  0.00  0.00    +0.000 A 
ATOM     21  C   UNL     1       1.474   9.674  18.117  0.00  0.00    +0.000 A 
ATOM     22  C   UNL     1       2.191   8.547  17.684  0.00  0.00    +0.000 A 
ATOM     23  C   UNL     1       2.470   7.504  18.575  0.00  0.00    +0.000 A 
ATOM     24  C   UNL     1       2.004   7.608  19.897  0.00  0.00    +0.000 A 
ATOM     25  C   UNL     1       1.313   8.740  20.325  0.00  0.00    +0.000 A 
ATOM     26  F   UNL     1       0.909   8.769  21.603  0.00  0.00    +0.000 F 
BRANCH  20  28
ATOM     27  C   UNL     1       0.547  12.023  18.844  0.00  0.00    +0.000 C 
ATOM     28  O   UNL     1       0.337  10.925  19.727  0.00  0.00    +0.000 OA
ENDBRANCH  20  28
ENDBRANCH  19  23
ENDBRANCH   1  19
TORSDOF 6
ENDMDL
