MODEL 1
REMARK VINA RESULT:      -7.0      0.000      0.000
REMARK  Name = 
REMARK  7 active torsions:
REMARK  status: ('A' for Active; 'I' for Inactive)
REMARK    1  A    between atoms: N_1  and  C_2
REMARK    2  A    between atoms: C_2  and  C_3
REMARK    3  A    between atoms: C_2  and  C_5
REMARK    4  A    between atoms: C_2  and  C_7
REMARK    5  A    between atoms: C_9  and  C_10
REMARK    6  A    between atoms: C_13  and  O_14
REMARK    7  A    between atoms: O_14  and  C_15
REMARK                            x       y       z     vdW  Elec       q    Type
REMARK                         _______ _______ _______ _____ _____    ______ ____
ROOT
ATOM      1  C   UNL     1       3.547   4.198  19.292  0.00  0.00    +0.000 A 
ATOM      2  N   UNL     1       2.661   5.118  19.613  0.00  0.00    +0.000 NA
ATOM      3  C   UNL     1       3.034   6.259  18.938  0.00  0.00    +0.000 A 
ATOM      4  C   UNL     1       4.148   6.013  18.164  0.00  0.00    +0.000 A 
ATOM      5  N   UNL     1       4.458   4.701  18.394  0.00  0.00    +0.000 N 
ATOM      6  H   UNL     1       5.208   4.159  17.985  0.00  0.00    +0.000 HD
ENDROOT
BRANCH   3   7
ATOM      7  C   UNL     1       2.302   7.506  19.054  0.00  0.00    +0.000 A 
ATOM      8  C   UNL     1       1.722   7.922  20.258  0.00  0.00    +0.000 A 
ATOM      9  C   UNL     1       1.010   9.123  20.317  0.00  0.00    +0.000 A 
ATOM     10  C   UNL     1       0.881   9.936  19.187  0.00  0.00    +0.000 A 
ATOM     11  C   UNL     1       1.417   9.510  17.975  0.00  0.00    +0.000 A 
ATOM     12  C   UNL     1       2.138   8.309  17.917  0.00  0.00    +0.000 A 
BRANCH  10  13
ATOM     13  O   UNL     1       0.159  11.074  19.377  0.00  0.00    +0.000 OA
BRANCH  13  14
ATOM     14  C   UNL     1      -1.170  11.140  18.879  0.00  0.00    +0.000 C 
ATOM     15  F   UNL     1      -1.298  11.795  17.707  0.00  0.00    +0.000 F 
ATOM     16  F   UNL     1      -1.653   9.886  18.731  0.00  0.00    +0.000 F 
ATOM     17  F   UNL     1      -1.936  11.778  19.793  0.00  0.00    +0.000 F 
ENDBRANCH  13  14
ENDBRANCH  10  13
ENDBRANCH   3   7
BRANCH   1  18
ATOM     18  C   UNL     1       3.566   2.770  19.765  0.00  0.00    +0.000 C 
BRANCH  18  19
ATOM     19  N   UNL     1       4.977   2.305  19.927  0.00  0.00    +0.000 NA
ATOM     20  H   UNL     1       5.094   1.486  19.321  0.00  0.00    +0.000 HD
ATOM     21  H   UNL     1       5.051   1.924  20.878  0.00  0.00    +0.000 HD
ENDBRANCH  18  19
BRANCH  18  22
ATOM     22  C   UNL     1       2.817   1.907  18.734  0.00  0.00    +0.000 C 
ATOM     23  F   UNL     1       3.721   1.265  17.938  0.00  0.00    +0.000 F 
ENDBRANCH  18  22
BRANCH  18  24
ATOM     24  C   UNL     1       2.831   2.659  21.120  0.00  0.00    +0.000 C 
ATOM     25  F   UNL     1       1.589   2.121  20.918  0.00  0.00    +0.000 F 
ENDBRANCH  18  24
ENDBRANCH   1  18
TORSDOF 7
ENDMDL
MODEL 2
REMARK VINA RESULT:      -7.0      0.525      1.335
REMARK  Name = 
REMARK  7 active torsions:
REMARK  status: ('A' for Active; 'I' for Inactive)
REMARK    1  A    between atoms: N_1  and  C_2
REMARK    2  A    between atoms: C_2  and  C_3
REMARK    3  A    between atoms: C_2  and  C_5
REMARK    4  A    between atoms: C_2  and  C_7
REMARK    5  A    between atoms: C_9  and  C_10
REMARK    6  A    between atoms: C_13  and  O_14
REMARK    7  A    between atoms: O_14  and  C_15
REMARK                            x       y       z     vdW  Elec       q    Type
REMARK                         _______ _______ _______ _____ _____    ______ ____
ROOT
ATOM      1  C   UNL     1       3.600   4.140  19.230  0.00  0.00    +0.000 A 
ATOM      2  N   UNL     1       2.729   5.088  19.511  0.00  0.00    +0.000 NA
ATOM      3  C   UNL     1       3.130   6.197  18.800  0.00  0.00    +0.000 A 
ATOM      4  C   UNL     1       4.245   5.903  18.046  0.00  0.00    +0.000 A 
ATOM      5  N   UNL     1       4.528   4.595  18.324  0.00  0.00    +0.000 N 
ATOM      6  H   UNL     1       5.270   4.024  17.941  0.00  0.00    +0.000 HD
ENDROOT
BRANCH   3   7
ATOM      7  C   UNL     1       2.422   7.462  18.867  0.00  0.00    +0.000 A 
ATOM      8  C   UNL     1       2.389   8.356  17.792  0.00  0.00    +0.000 A 
ATOM      9  C   UNL     1       1.708   9.572  17.909  0.00  0.00    +0.000 A 
ATOM     10  C   UNL     1       1.035   9.906  19.087  0.00  0.00    +0.000 A 
ATOM     11  C   UNL     1       1.099   9.041  20.177  0.00  0.00    +0.000 A 
ATOM     12  C   UNL     1       1.774   7.819  20.058  0.00  0.00    +0.000 A 
BRANCH  10  13
ATOM     13  O   UNL     1       0.418  11.118  19.074  0.00  0.00    +0.000 OA
BRANCH  13  14
ATOM     14  C   UNL     1      -0.991  11.174  18.906  0.00  0.00    +0.000 C 
ATOM     15  F   UNL     1      -1.533  10.075  18.342  0.00  0.00    +0.000 F 
ATOM     16  F   UNL     1      -1.576  11.379  20.107  0.00  0.00    +0.000 F 
ATOM     17  F   UNL     1      -1.284  12.230  18.112  0.00  0.00    +0.000 F 
ENDBRANCH  13  14
ENDBRANCH  10  13
ENDBRANCH   3   7
BRANCH   1  18
ATOM     18  C   UNL     1       3.586   2.730  19.753  0.00  0.00    +0.000 C 
BRANCH  18  19
ATOM     19  N   UNL     1       4.984   2.272  20.022  0.00  0.00    +0.000 NA
ATOM     20  H   UNL     1       5.519   2.424  19.160  0.00  0.00    +0.000 HD
ATOM     21  H   UNL     1       4.943   1.251  20.114  0.00  0.00    +0.000 HD
ENDBRANCH  18  19
BRANCH  18  22
ATOM     22  C   UNL     1       2.905   1.830  18.705  0.00  0.00    +0.000 C 
ATOM     23  F   UNL     1       2.105   2.593  17.904  0.00  0.00    +0.000 F 
ENDBRANCH  18  22
BRANCH  18  24
ATOM     24  C   UNL     1       2.765   2.665  21.060  0.00  0.00    +0.000 C 
ATOM     25  F   UNL     1       1.479   2.300  20.769  0.00  0.00    +0.000 F 
ENDBRANCH  18  24
ENDBRANCH   1  18
TORSDOF 7
ENDMDL
MODEL 3
REMARK VINA RESULT:      -6.7      2.564      3.291
REMARK  Name = 
REMARK  7 active torsions:
REMARK  status: ('A' for Active; 'I' for Inactive)
REMARK    1  A    between atoms: N_1  and  C_2
REMARK    2  A    between atoms: C_2  and  C_3
REMARK    3  A    between atoms: C_2  and  C_5
REMARK    4  A    between atoms: C_2  and  C_7
REMARK    5  A    between atoms: C_9  and  C_10
REMARK    6  A    between atoms: C_13  and  O_14
REMARK    7  A    between atoms: O_14  and  C_15
REMARK                            x       y       z     vdW  Elec       q    Type
REMARK                         _______ _______ _______ _____ _____    ______ ____
ROOT
ATOM      1  C   UNL     1       4.946   5.364  17.528  0.00  0.00    +0.000 A 
ATOM      2  N   UNL     1       4.570   6.567  17.909  0.00  0.00    +0.000 NA
ATOM      3  C   UNL     1       3.228   6.472  18.204  0.00  0.00    +0.000 A 
ATOM      4  C   UNL     1       2.793   5.176  18.031  0.00  0.00    +0.000 A 
ATOM      5  N   UNL     1       3.893   4.484  17.608  0.00  0.00    +0.000 N 
ATOM      6  H   UNL     1       3.964   3.498  17.394  0.00  0.00    +0.000 HD
ENDROOT
BRANCH   3   7
ATOM      7  C   UNL     1       2.446   7.611  18.648  0.00  0.00    +0.000 A 
ATOM      8  C   UNL     1       1.922   7.697  19.941  0.00  0.00    +0.000 A 
ATOM      9  C   UNL     1       1.158   8.806  20.319  0.00  0.00    +0.000 A 
ATOM     10  C   UNL     1       0.922   9.852  19.422  0.00  0.00    +0.000 A 
ATOM     11  C   UNL     1       1.403   9.754  18.119  0.00  0.00    +0.000 A 
ATOM     12  C   UNL     1       2.175   8.647  17.743  0.00  0.00    +0.000 A 
BRANCH  10  13
ATOM     13  O   UNL     1       0.160  10.868  19.910  0.00  0.00    +0.000 OA
BRANCH  13  14
ATOM     14  C   UNL     1      -1.093  11.145  19.301  0.00  0.00    +0.000 C 
ATOM     15  F   UNL     1      -1.025  11.941  18.214  0.00  0.00    +0.000 F 
ATOM     16  F   UNL     1      -1.686   9.982  18.952  0.00  0.00    +0.000 F 
ATOM     17  F   UNL     1      -1.883  11.760  20.211  0.00  0.00    +0.000 F 
ENDBRANCH  13  14
ENDBRANCH  10  13
ENDBRANCH   3   7
BRANCH   1  18
ATOM     18  C   UNL     1       6.331   4.950  17.113  0.00  0.00    +0.000 C 
BRANCH  18  19
ATOM     19  N   UNL     1       6.956   4.114  18.184  0.00  0.00    +0.000 NA
ATOM     20  H   UNL     1       7.610   4.719  18.691  0.00  0.00    +0.000 HD
ATOM     21  H   UNL     1       7.561   3.436  17.708  0.00  0.00    +0.000 HD
ENDBRANCH  18  19
BRANCH  18  22
ATOM     22  C   UNL     1       7.161   6.221  16.853  0.00  0.00    +0.000 C 
ATOM     23  F   UNL     1       7.885   6.525  17.968  0.00  0.00    +0.000 F 
ENDBRANCH  18  22
BRANCH  18  24
ATOM     24  C   UNL     1       6.263   4.135  15.802  0.00  0.00    +0.000 C 
ATOM     25  F   UNL     1       5.516   4.820  14.882  0.00  0.00    +0.000 F 
ENDBRANCH  18  24
ENDBRANCH   1  18
TORSDOF 7
ENDMDL
MODEL 4
REMARK VINA RESULT:      -6.7      1.269      1.428
REMARK  Name = 
REMARK  7 active torsions:
REMARK  status: ('A' for Active; 'I' for Inactive)
REMARK    1  A    between atoms: N_1  and  C_2
REMARK    2  A    between atoms: C_2  and  C_3
REMARK    3  A    between atoms: C_2  and  C_5
REMARK    4  A    between atoms: C_2  and  C_7
REMARK    5  A    between atoms: C_9  and  C_10
REMARK    6  A    between atoms: C_13  and  O_14
REMARK    7  A    between atoms: O_14  and  C_15
REMARK                            x       y       z     vdW  Elec       q    Type
REMARK                         _______ _______ _______ _____ _____    ______ ____
ROOT
ATOM      1  C   UNL     1       3.621   4.327  19.007  0.00  0.00    +0.000 A 
ATOM      2  N   UNL     1       2.761   5.228  19.436  0.00  0.00    +0.000 NA
ATOM      3  C   UNL     1       3.022   6.375  18.720  0.00  0.00    +0.000 A 
ATOM      4  C   UNL     1       4.037   6.152  17.815  0.00  0.00    +0.000 A 
ATOM      5  N   UNL     1       4.403   4.848  18.004  0.00  0.00    +0.000 N 
ATOM      6  H   UNL     1       5.108   4.321  17.506  0.00  0.00    +0.000 HD
ENDROOT
BRANCH   3   7
ATOM      7  C   UNL     1       2.282   7.606  18.926  0.00  0.00    +0.000 A 
ATOM      8  C   UNL     1       1.755   7.960  20.172  0.00  0.00    +0.000 A 
ATOM      9  C   UNL     1       1.033   9.149  20.318  0.00  0.00    +0.000 A 
ATOM     10  C   UNL     1       0.842  10.009  19.233  0.00  0.00    +0.000 A 
ATOM     11  C   UNL     1       1.326   9.644  17.979  0.00  0.00    +0.000 A 
ATOM     12  C   UNL     1       2.057   8.457  17.834  0.00  0.00    +0.000 A 
BRANCH  10  13
ATOM     13  O   UNL     1       0.117  11.128  19.506  0.00  0.00    +0.000 OA
BRANCH  13  14
ATOM     14  C   UNL     1       0.758  12.395  19.454  0.00  0.00    +0.000 C 
ATOM     15  F   UNL     1       2.070  12.373  19.760  0.00  0.00    +0.000 F 
ATOM     16  F   UNL     1       0.608  12.919  18.217  0.00  0.00    +0.000 F 
ATOM     17  F   UNL     1       0.144  13.219  20.334  0.00  0.00    +0.000 F 
ENDBRANCH  13  14
ENDBRANCH  10  13
ENDBRANCH   3   7
BRANCH   1  18
ATOM     18  C   UNL     1       3.730   2.901  19.475  0.00  0.00    +0.000 C 
BRANCH  18  19
ATOM     19  N   UNL     1       5.159   2.566  19.760  0.00  0.00    +0.000 NA
ATOM     20  H   UNL     1       5.714   2.944  18.986  0.00  0.00    +0.000 HD
ATOM     21  H   UNL     1       5.245   1.548  19.656  0.00  0.00    +0.000 HD
ENDBRANCH  18  19
BRANCH  18  22
ATOM     22  C   UNL     1       3.158   1.986  18.377  0.00  0.00    +0.000 C 
ATOM     23  F   UNL     1       3.777   0.771  18.432  0.00  0.00    +0.000 F 
ENDBRANCH  18  22
BRANCH  18  24
ATOM     24  C   UNL     1       2.891   2.707  20.758  0.00  0.00    +0.000 C 
ATOM     25  F   UNL     1       1.686   2.150  20.430  0.00  0.00    +0.000 F 
ENDBRANCH  18  24
ENDBRANCH   1  18
TORSDOF 7
ENDMDL
MODEL 5
REMARK VINA RESULT:      -6.7      1.411      1.959
REMARK  Name = 
REMARK  7 active torsions:
REMARK  status: ('A' for Active; 'I' for Inactive)
REMARK    1  A    between atoms: N_1  and  C_2
REMARK    2  A    between atoms: C_2  and  C_3
REMARK    3  A    between atoms: C_2  and  C_5
REMARK    4  A    between atoms: C_2  and  C_7
REMARK    5  A    between atoms: C_9  and  C_10
REMARK    6  A    between atoms: C_13  and  O_14
REMARK    7  A    between atoms: O_14  and  C_15
REMARK                            x       y       z     vdW  Elec       q    Type
REMARK                         _______ _______ _______ _____ _____    ______ ____
ROOT
ATOM      1  C   UNL     1       3.448   4.472  19.084  0.00  0.00    +0.000 A 
ATOM      2  N   UNL     1       3.252   5.693  18.630  0.00  0.00    +0.000 NA
ATOM      3  C   UNL     1       2.443   6.318  19.552  0.00  0.00    +0.000 A 
ATOM      4  C   UNL     1       2.173   5.469  20.603  0.00  0.00    +0.000 A 
ATOM      5  N   UNL     1       2.820   4.305  20.296  0.00  0.00    +0.000 N 
ATOM      6  H   UNL     1       2.866   3.455  20.843  0.00  0.00    +0.000 HD
ENDROOT
BRANCH   3   7
ATOM      7  C   UNL     1       1.990   7.687  19.388  0.00  0.00    +0.000 A 
ATOM      8  C   UNL     1       1.320   8.377  20.403  0.00  0.00    +0.000 A 
ATOM      9  C   UNL     1       0.886   9.690  20.193  0.00  0.00    +0.000 A 
ATOM     10  C   UNL     1       1.129  10.339  18.979  0.00  0.00    +0.000 A 
ATOM     11  C   UNL     1       1.756   9.645  17.948  0.00  0.00    +0.000 A 
ATOM     12  C   UNL     1       2.198   8.332  18.161  0.00  0.00    +0.000 A 
BRANCH  10  13
ATOM     13  O   UNL     1       0.650  11.610  18.900  0.00  0.00    +0.000 OA
BRANCH  13  14
ATOM     14  C   UNL     1      -0.720  11.813  18.583  0.00  0.00    +0.000 C 
ATOM     15  F   UNL     1      -1.302  10.789  17.927  0.00  0.00    +0.000 F 
ATOM     16  F   UNL     1      -1.411  12.050  19.720  0.00  0.00    +0.000 F 
ATOM     17  F   UNL     1      -0.817  12.912  17.798  0.00  0.00    +0.000 F 
ENDBRANCH  13  14
ENDBRANCH  10  13
ENDBRANCH   3   7
BRANCH   1  18
ATOM     18  C   UNL     1       4.280   3.399  18.436  0.00  0.00    +0.000 C 
BRANCH  18  19
ATOM     19  N   UNL     1       5.193   2.782  19.447  0.00  0.00    +0.000 NA
ATOM     20  H   UNL     1       5.357   3.488  20.172  0.00  0.00    +0.000 HD
ATOM     21  H   UNL     1       6.106   2.678  18.990  0.00  0.00    +0.000 HD
ENDBRANCH  18  19
BRANCH  18  22
ATOM     22  C   UNL     1       5.082   4.035  17.286  0.00  0.00    +0.000 C 
ATOM     23  F   UNL     1       4.368   3.938  16.128  0.00  0.00    +0.000 F 
ENDBRANCH  18  22
BRANCH  18  24
ATOM     24  C   UNL     1       3.358   2.309  17.845  0.00  0.00    +0.000 C 
ATOM     25  F   UNL     1       2.142   2.859  17.546  0.00  0.00    +0.000 F 
ENDBRANCH  18  24
ENDBRANCH   1  18
TORSDOF 7
ENDMDL
MODEL 6
REMARK VINA RESULT:      -6.7      1.097      1.773
REMARK  Name = 
REMARK  7 active torsions:
REMARK  status: ('A' for Active; 'I' for Inactive)
REMARK    1  A    between atoms: N_1  and  C_2
REMARK    2  A    between atoms: C_2  and  C_3
REMARK    3  A    between atoms: C_2  and  C_5
REMARK    4  A    between atoms: C_2  and  C_7
REMARK    5  A    between atoms: C_9  and  C_10
REMARK    6  A    between atoms: C_13  and  O_14
REMARK    7  A    between atoms: O_14  and  C_15
REMARK                            x       y       z     vdW  Elec       q    Type
REMARK                         _______ _______ _______ _____ _____    ______ ____
ROOT
ATOM      1  C   UNL     1       3.152   4.168  19.678  0.00  0.00    +0.000 A 
ATOM      2  N   UNL     1       2.267   5.141  19.742  0.00  0.00    +0.000 NA
ATOM      3  C   UNL     1       2.899   6.264  19.256  0.00  0.00    +0.000 A 
ATOM      4  C   UNL     1       4.181   5.954  18.857  0.00  0.00    +0.000 A 
ATOM      5  N   UNL     1       4.325   4.622  19.125  0.00  0.00    +0.000 N 
ATOM      6  H   UNL     1       5.131   4.035  18.949  0.00  0.00    +0.000 HD
ENDROOT
BRANCH   3   7
ATOM      7  C   UNL     1       2.243   7.556  19.185  0.00  0.00    +0.000 A 
ATOM      8  C   UNL     1       1.551   8.103  20.270  0.00  0.00    +0.000 A 
ATOM      9  C   UNL     1       0.919   9.344  20.148  0.00  0.00    +0.000 A 
ATOM     10  C   UNL     1       0.982  10.066  18.953  0.00  0.00    +0.000 A 
ATOM     11  C   UNL     1       1.631   9.510  17.854  0.00  0.00    +0.000 A 
ATOM     12  C   UNL     1       2.272   8.269  17.978  0.00  0.00    +0.000 A 
BRANCH  10  13
ATOM     13  O   UNL     1       0.321  11.255  18.963  0.00  0.00    +0.000 OA
BRANCH  13  14
ATOM     14  C   UNL     1      -1.078  11.269  18.712  0.00  0.00    +0.000 C 
ATOM     15  F   UNL     1      -1.555  10.150  18.131  0.00  0.00    +0.000 F 
ATOM     16  F   UNL     1      -1.737  11.471  19.873  0.00  0.00    +0.000 F 
ATOM     17  F   UNL     1      -1.353  12.308  17.889  0.00  0.00    +0.000 F 
ENDBRANCH  13  14
ENDBRANCH  10  13
ENDBRANCH   3   7
BRANCH   1  18
ATOM     18  C   UNL     1       2.937   2.735  20.083  0.00  0.00    +0.000 C 
BRANCH  18  19
ATOM     19  N   UNL     1       1.886   2.114  19.220  0.00  0.00    +0.000 NA
ATOM     20  H   UNL     1       2.359   1.757  18.383  0.00  0.00    +0.000 HD
ATOM     21  H   UNL     1       1.305   2.884  18.868  0.00  0.00    +0.000 HD
ENDBRANCH  18  19
BRANCH  18  22
ATOM     22  C   UNL     1       2.519   2.707  21.565  0.00  0.00    +0.000 C 
ATOM     23  F   UNL     1       1.166   2.551  21.651  0.00  0.00    +0.000 F 
ENDBRANCH  18  22
BRANCH  18  24
ATOM     24  C   UNL     1       4.256   1.945  19.933  0.00  0.00    +0.000 C 
ATOM     25  F   UNL     1       4.826   1.778  21.165  0.00  0.00    +0.000 F 
ENDBRANCH  18  24
ENDBRANCH   1  18
TORSDOF 7
ENDMDL
MODEL 7
REMARK VINA RESULT:      -6.6      2.609      3.472
REMARK  Name = 
REMARK  7 active torsions:
REMARK  status: ('A' for Active; 'I' for Inactive)
REMARK    1  A    between atoms: N_1  and  C_2
REMARK    2  A    between atoms: C_2  and  C_3
REMARK    3  A    between atoms: C_2  and  C_5
REMARK    4  A    between atoms: C_2  and  C_7
REMARK    5  A    between atoms: C_9  and  C_10
REMARK    6  A    between atoms: C_13  and  O_14
REMARK    7  A    between atoms: O_14  and  C_15
REMARK                            x       y       z     vdW  Elec       q    Type
REMARK                         _______ _______ _______ _____ _____    ______ ____
ROOT
ATOM      1  C   UNL     1       4.879   5.348  17.163  0.00  0.00    +0.000 A 
ATOM      2  N   UNL     1       4.500   6.566  17.489  0.00  0.00    +0.000 NA
ATOM      3  C   UNL     1       3.242   6.441  18.036  0.00  0.00    +0.000 A 
ATOM      4  C   UNL     1       2.869   5.115  18.074  0.00  0.00    +0.000 A 
ATOM      5  N   UNL     1       3.918   4.433  17.523  0.00  0.00    +0.000 N 
ATOM      6  H   UNL     1       4.014   3.434  17.397  0.00  0.00    +0.000 HD
ENDROOT
BRANCH   3   7
ATOM      7  C   UNL     1       2.480   7.583  18.504  0.00  0.00    +0.000 A 
ATOM      8  C   UNL     1       2.238   8.700  17.698  0.00  0.00    +0.000 A 
ATOM      9  C   UNL     1       1.513   9.786  18.199  0.00  0.00    +0.000 A 
ATOM     10  C   UNL     1       1.004   9.768  19.501  0.00  0.00    +0.000 A 
ATOM     11  C   UNL     1       1.278   8.679  20.325  0.00  0.00    +0.000 A 
ATOM     12  C   UNL     1       1.998   7.587  19.820  0.00  0.00    +0.000 A 
BRANCH  10  13
ATOM     13  O   UNL     1       0.324  10.887  19.869  0.00  0.00    +0.000 OA
BRANCH  13  14
ATOM     14  C   UNL     1      -1.001  11.077  19.392  0.00  0.00    +0.000 C 
ATOM     15  F   UNL     1      -1.853  11.602  20.296  0.00  0.00    +0.000 F 
ATOM     16  F   UNL     1      -0.973  11.880  18.305  0.00  0.00    +0.000 F 
ATOM     17  F   UNL     1      -1.494   9.876  19.012  0.00  0.00    +0.000 F 
ENDBRANCH  13  14
ENDBRANCH  10  13
ENDBRANCH   3   7
BRANCH   1  18
ATOM     18  C   UNL     1       6.191   4.956  16.540  0.00  0.00    +0.000 C 
BRANCH  18  19
ATOM     19  N   UNL     1       6.726   6.089  15.724  0.00  0.00    +0.000 NA
ATOM     20  H   UNL     1       7.708   6.212  15.992  0.00  0.00    +0.000 HD
ATOM     21  H   UNL     1       6.265   6.939  16.069  0.00  0.00    +0.000 HD
ENDBRANCH  18  19
BRANCH  18  22
ATOM     22  C   UNL     1       5.961   3.710  15.666  0.00  0.00    +0.000 C 
ATOM     23  F   UNL     1       6.548   3.895  14.449  0.00  0.00    +0.000 F 
ENDBRANCH  18  22
BRANCH  18  24
ATOM     24  C   UNL     1       7.208   4.596  17.646  0.00  0.00    +0.000 C 
ATOM     25  F   UNL     1       7.895   5.721  18.012  0.00  0.00    +0.000 F 
ENDBRANCH  18  24
ENDBRANCH   1  18
TORSDOF 7
ENDMDL
MODEL 8
REMARK VINA RESULT:      -6.6      1.327      1.830
REMARK  Name = 
REMARK  7 active torsions:
REMARK  status: ('A' for Active; 'I' for Inactive)
REMARK    1  A    between atoms: N_1  and  C_2
REMARK    2  A    between atoms: C_2  and  C_3
REMARK    3  A    between atoms: C_2  and  C_5
REMARK    4  A    between atoms: C_2  and  C_7
REMARK    5  A    between atoms: C_9  and  C_10
REMARK    6  A    between atoms: C_13  and  O_14
REMARK    7  A    between atoms: O_14  and  C_15
REMARK                            x       y       z     vdW  Elec       q    Type
REMARK                         _______ _______ _______ _____ _____    ______ ____
ROOT
ATOM      1  C   UNL     1       3.563   4.146  19.477  0.00  0.00    +0.000 A 
ATOM      2  N   UNL     1       2.619   5.057  19.594  0.00  0.00    +0.000 NA
ATOM      3  C   UNL     1       3.138   6.214  19.056  0.00  0.00    +0.000 A 
ATOM      4  C   UNL     1       4.408   5.987  18.572  0.00  0.00    +0.000 A 
ATOM      5  N   UNL     1       4.662   4.671  18.841  0.00  0.00    +0.000 N 
ATOM      6  H   UNL     1       5.492   4.139  18.615  0.00  0.00    +0.000 HD
ENDROOT
BRANCH   3   7
ATOM      7  C   UNL     1       2.391   7.457  19.018  0.00  0.00    +0.000 A 
ATOM      8  C   UNL     1       2.330   8.256  17.871  0.00  0.00    +0.000 A 
ATOM      9  C   UNL     1       1.612   9.456  17.887  0.00  0.00    +0.000 A 
ATOM     10  C   UNL     1       0.931   9.868  19.036  0.00  0.00    +0.000 A 
ATOM     11  C   UNL     1       1.022   9.101  20.195  0.00  0.00    +0.000 A 
ATOM     12  C   UNL     1       1.734   7.894  20.177  0.00  0.00    +0.000 A 
BRANCH  10  13
ATOM     13  O   UNL     1       0.277  11.056  18.923  0.00  0.00    +0.000 OA
BRANCH  13  14
ATOM     14  C   UNL     1       0.968  12.257  19.238  0.00  0.00    +0.000 C 
ATOM     15  F   UNL     1       1.850  12.148  20.252  0.00  0.00    +0.000 F 
ATOM     16  F   UNL     1       1.620  12.697  18.139  0.00  0.00    +0.000 F 
ATOM     17  F   UNL     1       0.056  13.194  19.586  0.00  0.00    +0.000 F 
ENDBRANCH  13  14
ENDBRANCH  10  13
ENDBRANCH   3   7
BRANCH   1  18
ATOM     18  C   UNL     1       3.475   2.707  19.909  0.00  0.00    +0.000 C 
BRANCH  18  19
ATOM     19  N   UNL     1       4.844   2.110  19.973  0.00  0.00    +0.000 NA
ATOM     20  H   UNL     1       4.761   1.140  19.652  0.00  0.00    +0.000 HD
ATOM     21  H   UNL     1       5.078   2.024  20.969  0.00  0.00    +0.000 HD
ENDBRANCH  18  19
BRANCH  18  22
ATOM     22  C   UNL     1       2.591   1.951  18.901  0.00  0.00    +0.000 C 
ATOM     23  F   UNL     1       2.913   2.341  17.634  0.00  0.00    +0.000 F 
ENDBRANCH  18  22
BRANCH  18  24
ATOM     24  C   UNL     1       2.812   2.620  21.302  0.00  0.00    +0.000 C 
ATOM     25  F   UNL     1       1.480   2.346  21.153  0.00  0.00    +0.000 F 
ENDBRANCH  18  24
ENDBRANCH   1  18
TORSDOF 7
ENDMDL
MODEL 9
REMARK VINA RESULT:      -6.6      1.359      2.060
REMARK  Name = 
REMARK  7 active torsions:
REMARK  status: ('A' for Active; 'I' for Inactive)
REMARK    1  A    between atoms: N_1  and  C_2
REMARK    2  A    between atoms: C_2  and  C_3
REMARK    3  A    between atoms: C_2  and  C_5
REMARK    4  A    between atoms: C_2  and  C_7
REMARK    5  A    between atoms: C_9  and  C_10
REMARK    6  A    between atoms: C_13  and  O_14
REMARK    7  A    between atoms: O_14  and  C_15
REMARK                            x       y       z     vdW  Elec       q    Type
REMARK                         _______ _______ _______ _____ _____    ______ ____
ROOT
ATOM      1  C   UNL     1       3.512   4.525  19.366  0.00  0.00    +0.000 A 
ATOM      2  N   UNL     1       3.372   5.745  18.891  0.00  0.00    +0.000 NA
ATOM      3  C   UNL     1       2.404   6.346  19.664  0.00  0.00    +0.000 A 
ATOM      4  C   UNL     1       1.975   5.483  20.649  0.00  0.00    +0.000 A 
ATOM      5  N   UNL     1       2.690   4.335  20.451  0.00  0.00    +0.000 N 
ATOM      6  H   UNL     1       2.659   3.481  20.993  0.00  0.00    +0.000 HD
ENDROOT
BRANCH   3   7
ATOM      7  C   UNL     1       1.957   7.708  19.433  0.00  0.00    +0.000 A 
ATOM      8  C   UNL     1       2.154   8.360  18.211  0.00  0.00    +0.000 A 
ATOM      9  C   UNL     1       1.723   9.679  18.041  0.00  0.00    +0.000 A 
ATOM     10  C   UNL     1       1.074  10.360  19.075  0.00  0.00    +0.000 A 
ATOM     11  C   UNL     1       0.912   9.733  20.308  0.00  0.00    +0.000 A 
ATOM     12  C   UNL     1       1.337   8.408  20.476  0.00  0.00    +0.000 A 
BRANCH  10  13
ATOM     13  O   UNL     1       0.710  11.638  18.783  0.00  0.00    +0.000 OA
BRANCH  13  14
ATOM     14  C   UNL     1      -0.664  11.936  18.578  0.00  0.00    +0.000 C 
ATOM     15  F   UNL     1      -1.369  10.950  17.988  0.00  0.00    +0.000 F 
ATOM     16  F   UNL     1      -1.238  12.230  19.765  0.00  0.00    +0.000 F 
ATOM     17  F   UNL     1      -0.750  13.031  17.789  0.00  0.00    +0.000 F 
ENDBRANCH  13  14
ENDBRANCH  10  13
ENDBRANCH   3   7
BRANCH   1  18
ATOM     18  C   UNL     1       4.465   3.474  18.864  0.00  0.00    +0.000 C 
BRANCH  18  19
ATOM     19  N   UNL     1       5.869   3.981  18.941  0.00  0.00    +0.000 NA
ATOM     20  H   UNL     1       5.940   4.535  19.801  0.00  0.00    +0.000 HD
ATOM     21  H   UNL     1       5.970   4.674  18.190  0.00  0.00    +0.000 HD
ENDBRANCH  18  19
BRANCH  18  22
ATOM     22  C   UNL     1       4.084   3.126  17.414  0.00  0.00    +0.000 C 
ATOM     23  F   UNL     1       2.729   3.192  17.272  0.00  0.00    +0.000 F 
ENDBRANCH  18  22
BRANCH  18  24
ATOM     24  C   UNL     1       4.333   2.197  19.723  0.00  0.00    +0.000 C 
ATOM     25  F   UNL     1       3.969   1.149  18.922  0.00  0.00    +0.000 F 
ENDBRANCH  18  24
ENDBRANCH   1  18
TORSDOF 7
ENDMDL
