MODEL 1
REMARK VINA RESULT:      -6.7      0.000      0.000
REMARK  Name = 
REMARK  4 active torsions:
REMARK  status: ('A' for Active; 'I' for Inactive)
REMARK    1  A    between atoms: C_1  and  C_2
REMARK    2  A    between atoms: C_4  and  C_5
REMARK    3  A    between atoms: C_19  and  C_20
REMARK    4  A    between atoms: N_22  and  C_23
REMARK                            x       y       z     vdW  Elec       q    Type
REMARK                         _______ _______ _______ _____ _____    ______ ____
ROOT
ATOM      1  C   UNL     1      -1.086  11.203  19.111  0.00  0.00    +0.000 C 
ATOM      2  O   UNL     1      -0.848  10.116  19.628  0.00  0.00    +0.000 OA
ATOM      3  N   UNL     1      -0.316  12.353  19.360  0.00  0.00    +0.000 N 
ATOM      4  C   UNL     1       0.827  12.241  20.267  0.00  0.00    +0.000 C 
ATOM      5  C   UNL     1       0.953  13.471  21.167  0.00  0.00    +0.000 C 
ATOM      6  C   UNL     1       0.959  14.773  20.360  0.00  0.00    +0.000 C 
ATOM      7  C   UNL     1      -0.256  14.853  19.427  0.00  0.00    +0.000 C 
ATOM      8  C   UNL     1      -0.255  16.114  18.566  0.00  0.00    +0.000 C 
ATOM      9  N   UNL     1      -1.375  16.846  19.046  0.00  0.00    +0.000 N 
ATOM     10  C   UNL     1      -2.041  16.179  20.029  0.00  0.00    +0.000 C 
ATOM     11  O   UNL     1      -3.024  16.588  20.614  0.00  0.00    +0.000 OA
ATOM     12  O   UNL     1      -1.453  14.970  20.237  0.00  0.00    +0.000 OA
ATOM     13  C   UNL     1      -0.340  13.586  18.556  0.00  0.00    +0.000 C 
ATOM     14  H   UNL     1      -1.678  17.763  18.749  0.00  0.00    +0.000 HD
ENDROOT
BRANCH   1  18
ATOM     15  C   UNL     1      -3.162  10.245  14.707  0.00  0.00    +0.000 C 
ATOM     16  C   UNL     1      -3.269  10.840  16.082  0.00  0.00    +0.000 A 
ATOM     17  C   UNL     1      -2.143  10.912  16.892  0.00  0.00    +0.000 A 
ATOM     18  C   UNL     1      -2.268  11.311  18.230  0.00  0.00    +0.000 A 
ATOM     19  C   UNL     1      -3.518  11.802  18.663  0.00  0.00    +0.000 A 
ATOM     20  C   UNL     1      -4.144  12.387  19.808  0.00  0.00    +0.000 A 
ATOM     21  C   UNL     1      -3.592  12.784  21.129  0.00  0.00    +0.000 C 
ATOM     22  N   UNL     1      -5.454  12.609  19.609  0.00  0.00    +0.000 NA
ATOM     23  N   UNL     1      -5.669  12.197  18.349  0.00  0.00    +0.000 N 
ATOM     24  C   UNL     1      -6.987  12.266  17.773  0.00  0.00    +0.000 C 
ATOM     25  C   UNL     1      -4.551  11.710  17.733  0.00  0.00    +0.000 A 
ATOM     26  N   UNL     1      -4.499  11.219  16.478  0.00  0.00    +0.000 NA
ENDBRANCH   1  18
TORSDOF 1
ENDMDL
MODEL 2
REMARK VINA RESULT:      -6.6      8.291     10.739
REMARK  Name = 
REMARK  4 active torsions:
REMARK  status: ('A' for Active; 'I' for Inactive)
REMARK    1  A    between atoms: C_1  and  C_2
REMARK    2  A    between atoms: C_4  and  C_5
REMARK    3  A    between atoms: C_19  and  C_20
REMARK    4  A    between atoms: N_22  and  C_23
REMARK                            x       y       z     vdW  Elec       q    Type
REMARK                         _______ _______ _______ _____ _____    ______ ____
ROOT
ATOM      1  C   UNL     1       3.424   4.263  17.262  0.00  0.00    +0.000 C 
ATOM      2  O   UNL     1       2.818   3.401  16.634  0.00  0.00    +0.000 OA
ATOM      3  N   UNL     1       4.634   4.825  16.817  0.00  0.00    +0.000 N 
ATOM      4  C   UNL     1       5.185   4.368  15.541  0.00  0.00    +0.000 C 
ATOM      5  C   UNL     1       6.705   4.230  15.602  0.00  0.00    +0.000 C 
ATOM      6  C   UNL     1       7.377   5.508  16.117  0.00  0.00    +0.000 C 
ATOM      7  C   UNL     1       6.775   5.949  17.457  0.00  0.00    +0.000 C 
ATOM      8  C   UNL     1       7.383   7.251  17.974  0.00  0.00    +0.000 C 
ATOM      9  N   UNL     1       8.082   6.850  19.146  0.00  0.00    +0.000 N 
ATOM     10  C   UNL     1       7.938   5.520  19.399  0.00  0.00    +0.000 C 
ATOM     11  O   UNL     1       8.442   4.923  20.330  0.00  0.00    +0.000 OA
ATOM     12  O   UNL     1       7.119   4.965  18.464  0.00  0.00    +0.000 OA
ATOM     13  C   UNL     1       5.243   6.059  17.341  0.00  0.00    +0.000 C 
ATOM     14  H   UNL     1       8.651   7.431  19.746  0.00  0.00    +0.000 HD
ENDROOT
BRANCH   1  18
ATOM     15  C   UNL     1       2.291   3.065  21.943  0.00  0.00    +0.000 C 
ATOM     16  C   UNL     1       2.329   4.090  20.846  0.00  0.00    +0.000 A 
ATOM     17  C   UNL     1       2.679   3.710  19.558  0.00  0.00    +0.000 A 
ATOM     18  C   UNL     1       2.878   4.685  18.570  0.00  0.00    +0.000 A 
ATOM     19  C   UNL     1       2.539   6.021  18.876  0.00  0.00    +0.000 A 
ATOM     20  C   UNL     1       2.456   7.312  18.268  0.00  0.00    +0.000 A 
ATOM     21  C   UNL     1       2.693   7.751  16.868  0.00  0.00    +0.000 C 
ATOM     22  N   UNL     1       2.088   8.261  19.145  0.00  0.00    +0.000 NA
ATOM     23  N   UNL     1       1.913   7.592  20.296  0.00  0.00    +0.000 N 
ATOM     24  C   UNL     1       1.522   8.292  21.494  0.00  0.00    +0.000 C 
ATOM     25  C   UNL     1       2.163   6.254  20.197  0.00  0.00    +0.000 A 
ATOM     26  N   UNL     1       2.076   5.364  21.207  0.00  0.00    +0.000 NA
ENDBRANCH   1  18
TORSDOF 1
ENDMDL
MODEL 3
REMARK VINA RESULT:      -6.6      3.665      6.850
REMARK  Name = 
REMARK  4 active torsions:
REMARK  status: ('A' for Active; 'I' for Inactive)
REMARK    1  A    between atoms: C_1  and  C_2
REMARK    2  A    between atoms: C_4  and  C_5
REMARK    3  A    between atoms: C_19  and  C_20
REMARK    4  A    between atoms: N_22  and  C_23
REMARK                            x       y       z     vdW  Elec       q    Type
REMARK                         _______ _______ _______ _____ _____    ______ ____
ROOT
ATOM      1  C   UNL     1      -4.336  12.672  24.179  0.00  0.00    +0.000 C 
ATOM      2  O   UNL     1      -4.498  12.192  25.296  0.00  0.00    +0.000 OA
ATOM      3  N   UNL     1      -5.404  12.991  23.321  0.00  0.00    +0.000 N 
ATOM      4  C   UNL     1      -6.768  12.752  23.792  0.00  0.00    +0.000 C 
ATOM      5  C   UNL     1      -7.660  12.208  22.676  0.00  0.00    +0.000 C 
ATOM      6  C   UNL     1      -7.609  13.086  21.421  0.00  0.00    +0.000 C 
ATOM      7  C   UNL     1      -6.163  13.308  20.959  0.00  0.00    +0.000 C 
ATOM      8  C   UNL     1      -6.069  14.224  19.741  0.00  0.00    +0.000 C 
ATOM      9  N   UNL     1      -5.593  13.365  18.713  0.00  0.00    +0.000 N 
ATOM     10  C   UNL     1      -5.366  12.101  19.166  0.00  0.00    +0.000 C 
ATOM     11  O   UNL     1      -4.969  11.173  18.489  0.00  0.00    +0.000 OA
ATOM     12  O   UNL     1      -5.625  12.042  20.500  0.00  0.00    +0.000 OA
ATOM     13  C   UNL     1      -5.309  13.843  22.124  0.00  0.00    +0.000 C 
ATOM     14  H   UNL     1      -5.443  13.600  17.742  0.00  0.00    +0.000 HD
ENDROOT
BRANCH   1  18
ATOM     15  C   UNL     1      -0.359  10.788  21.884  0.00  0.00    +0.000 C 
ATOM     16  C   UNL     1      -1.020  11.942  22.582  0.00  0.00    +0.000 A 
ATOM     17  C   UNL     1      -2.254  11.763  23.193  0.00  0.00    +0.000 A 
ATOM     18  C   UNL     1      -2.951  12.869  23.700  0.00  0.00    +0.000 A 
ATOM     19  C   UNL     1      -2.288  14.115  23.733  0.00  0.00    +0.000 A 
ATOM     20  C   UNL     1      -2.469  15.457  24.191  0.00  0.00    +0.000 A 
ATOM     21  C   UNL     1      -3.577  16.090  24.952  0.00  0.00    +0.000 C 
ATOM     22  N   UNL     1      -1.432  16.247  23.865  0.00  0.00    +0.000 NA
ATOM     23  N   UNL     1      -0.583  15.425  23.227  0.00  0.00    +0.000 N 
ATOM     24  C   UNL     1       0.663  15.926  22.705  0.00  0.00    +0.000 C 
ATOM     25  C   UNL     1      -1.036  14.141  23.121  0.00  0.00    +0.000 A 
ATOM     26  N   UNL     1      -0.385  13.128  22.515  0.00  0.00    +0.000 NA
ENDBRANCH   1  18
TORSDOF 1
ENDMDL
MODEL 4
REMARK VINA RESULT:      -6.5      9.079     11.403
REMARK  Name = 
REMARK  4 active torsions:
REMARK  status: ('A' for Active; 'I' for Inactive)
REMARK    1  A    between atoms: C_1  and  C_2
REMARK    2  A    between atoms: C_4  and  C_5
REMARK    3  A    between atoms: C_19  and  C_20
REMARK    4  A    between atoms: N_22  and  C_23
REMARK                            x       y       z     vdW  Elec       q    Type
REMARK                         _______ _______ _______ _____ _____    ______ ____
ROOT
ATOM      1  C   UNL     1       3.689   4.453  16.844  0.00  0.00    +0.000 C 
ATOM      2  O   UNL     1       3.112   3.641  16.128  0.00  0.00    +0.000 OA
ATOM      3  N   UNL     1       4.867   5.115  16.454  0.00  0.00    +0.000 N 
ATOM      4  C   UNL     1       5.419   4.830  15.129  0.00  0.00    +0.000 C 
ATOM      5  C   UNL     1       6.945   4.754  15.160  0.00  0.00    +0.000 C 
ATOM      6  C   UNL     1       7.568   5.994  15.809  0.00  0.00    +0.000 C 
ATOM      7  C   UNL     1       6.966   6.255  17.197  0.00  0.00    +0.000 C 
ATOM      8  C   UNL     1       7.524   7.516  17.852  0.00  0.00    +0.000 C 
ATOM      9  N   UNL     1       8.256   7.018  18.964  0.00  0.00    +0.000 N 
ATOM     10  C   UNL     1       8.174   5.662  19.067  0.00  0.00    +0.000 C 
ATOM     11  O   UNL     1       8.717   4.988  19.919  0.00  0.00    +0.000 OA
ATOM     12  O   UNL     1       7.367   5.180  18.083  0.00  0.00    +0.000 OA
ATOM     13  C   UNL     1       5.430   6.309  17.108  0.00  0.00    +0.000 C 
ATOM     14  H   UNL     1       8.808   7.552  19.621  0.00  0.00    +0.000 HD
ENDROOT
BRANCH   1  18
ATOM     15  C   UNL     1       1.815   7.687  20.107  0.00  0.00    +0.000 C 
ATOM     16  C   UNL     1       2.233   6.283  19.777  0.00  0.00    +0.000 A 
ATOM     17  C   UNL     1       2.899   6.024  18.586  0.00  0.00    +0.000 A 
ATOM     18  C   UNL     1       3.144   4.700  18.196  0.00  0.00    +0.000 A 
ATOM     19  C   UNL     1       2.862   3.671  19.120  0.00  0.00    +0.000 A 
ATOM     20  C   UNL     1       2.990   2.255  19.278  0.00  0.00    +0.000 A 
ATOM     21  C   UNL     1       3.605   1.225  18.402  0.00  0.00    +0.000 C 
ATOM     22  N   UNL     1       2.460   1.826  20.436  0.00  0.00    +0.000 NA
ATOM     23  N   UNL     1       2.016   2.947  21.028  0.00  0.00    +0.000 N 
ATOM     24  C   UNL     1       1.359   2.884  22.309  0.00  0.00    +0.000 C 
ATOM     25  C   UNL     1       2.231   4.078  20.294  0.00  0.00    +0.000 A 
ATOM     26  N   UNL     1       1.869   5.326  20.653  0.00  0.00    +0.000 NA
ENDBRANCH   1  18
TORSDOF 1
ENDMDL
MODEL 5
REMARK VINA RESULT:      -6.5      3.026      5.686
REMARK  Name = 
REMARK  4 active torsions:
REMARK  status: ('A' for Active; 'I' for Inactive)
REMARK    1  A    between atoms: C_1  and  C_2
REMARK    2  A    between atoms: C_4  and  C_5
REMARK    3  A    between atoms: C_19  and  C_20
REMARK    4  A    between atoms: N_22  and  C_23
REMARK                            x       y       z     vdW  Elec       q    Type
REMARK                         _______ _______ _______ _____ _____    ______ ____
ROOT
ATOM      1  C   UNL     1      -0.625  10.833  22.643  0.00  0.00    +0.000 C 
ATOM      2  O   UNL     1      -0.010  10.271  23.543  0.00  0.00    +0.000 OA
ATOM      3  N   UNL     1      -0.505  10.468  21.290  0.00  0.00    +0.000 N 
ATOM      4  C   UNL     1       0.384   9.358  20.947  0.00  0.00    +0.000 C 
ATOM      5  C   UNL     1       1.156   9.635  19.657  0.00  0.00    +0.000 C 
ATOM      6  C   UNL     1       0.227  10.031  18.505  0.00  0.00    +0.000 C 
ATOM      7  C   UNL     1      -0.684  11.199  18.905  0.00  0.00    +0.000 C 
ATOM      8  C   UNL     1      -1.664  11.586  17.800  0.00  0.00    +0.000 C 
ATOM      9  N   UNL     1      -1.235  12.885  17.413  0.00  0.00    +0.000 N 
ATOM     10  C   UNL     1      -0.178  13.318  18.155  0.00  0.00    +0.000 C 
ATOM     11  O   UNL     1       0.385  14.385  18.019  0.00  0.00    +0.000 OA
ATOM     12  O   UNL     1       0.135  12.381  19.090  0.00  0.00    +0.000 OA
ATOM     13  C   UNL     1      -1.426  10.871  20.214  0.00  0.00    +0.000 C 
ATOM     14  H   UNL     1      -1.613  13.458  16.671  0.00  0.00    +0.000 HD
ENDROOT
BRANCH   1  18
ATOM     15  C   UNL     1      -4.812  12.463  24.750  0.00  0.00    +0.000 C 
ATOM     16  C   UNL     1      -3.530  12.762  24.028  0.00  0.00    +0.000 A 
ATOM     17  C   UNL     1      -2.761  11.720  23.526  0.00  0.00    +0.000 A 
ATOM     18  C   UNL     1      -1.488  11.980  23.000  0.00  0.00    +0.000 A 
ATOM     19  C   UNL     1      -1.100  13.326  22.833  0.00  0.00    +0.000 A 
ATOM     20  C   UNL     1      -0.033  14.116  22.300  0.00  0.00    +0.000 A 
ATOM     21  C   UNL     1       1.209  13.727  21.585  0.00  0.00    +0.000 C 
ATOM     22  N   UNL     1      -0.233  15.431  22.492  0.00  0.00    +0.000 NA
ATOM     23  N   UNL     1      -1.420  15.493  23.118  0.00  0.00    +0.000 N 
ATOM     24  C   UNL     1      -1.972  16.765  23.508  0.00  0.00    +0.000 C 
ATOM     25  C   UNL     1      -1.987  14.272  23.344  0.00  0.00    +0.000 A 
ATOM     26  N   UNL     1      -3.164  14.057  23.966  0.00  0.00    +0.000 NA
ENDBRANCH   1  18
TORSDOF 1
ENDMDL
MODEL 6
REMARK VINA RESULT:      -6.3      8.926     12.113
REMARK  Name = 
REMARK  4 active torsions:
REMARK  status: ('A' for Active; 'I' for Inactive)
REMARK    1  A    between atoms: C_1  and  C_2
REMARK    2  A    between atoms: C_4  and  C_5
REMARK    3  A    between atoms: C_19  and  C_20
REMARK    4  A    between atoms: N_22  and  C_23
REMARK                            x       y       z     vdW  Elec       q    Type
REMARK                         _______ _______ _______ _____ _____    ______ ____
ROOT
ATOM      1  C   UNL     1       9.468  15.530  17.928  0.00  0.00    +0.000 C 
ATOM      2  O   UNL     1       9.734  16.439  17.148  0.00  0.00    +0.000 OA
ATOM      3  N   UNL     1      10.314  14.425  18.132  0.00  0.00    +0.000 N 
ATOM      4  C   UNL     1      11.571  14.366  17.387  0.00  0.00    +0.000 C 
ATOM      5  C   UNL     1      11.879  12.945  16.916  0.00  0.00    +0.000 C 
ATOM      6  C   UNL     1      11.821  11.934  18.066  0.00  0.00    +0.000 C 
ATOM      7  C   UNL     1      10.486  12.026  18.816  0.00  0.00    +0.000 C 
ATOM      8  C   UNL     1      10.413  11.070  20.005  0.00  0.00    +0.000 C 
ATOM      9  N   UNL     1       9.406  10.140  19.624  0.00  0.00    +0.000 N 
ATOM     10  C   UNL     1       8.865  10.439  18.410  0.00  0.00    +0.000 C 
ATOM     11  O   UNL     1       7.997   9.799  17.851  0.00  0.00    +0.000 OA
ATOM     12  O   UNL     1       9.427  11.582  17.931  0.00  0.00    +0.000 OA
ATOM     13  C   UNL     1      10.222  13.478  19.255  0.00  0.00    +0.000 C 
ATOM     14  H   UNL     1       9.102   9.325  20.137  0.00  0.00    +0.000 HD
ENDROOT
BRANCH   1  18
ATOM     15  C   UNL     1       4.619  14.478  17.950  0.00  0.00    +0.000 C 
ATOM     16  C   UNL     1       5.815  15.066  18.642  0.00  0.00    +0.000 A 
ATOM     17  C   UNL     1       7.016  15.191  17.957  0.00  0.00    +0.000 A 
ATOM     18  C   UNL     1       8.175  15.583  18.643  0.00  0.00    +0.000 A 
ATOM     19  C   UNL     1       8.043  16.013  19.980  0.00  0.00    +0.000 A 
ATOM     20  C   UNL     1       8.815  16.566  21.049  0.00  0.00    +0.000 A 
ATOM     21  C   UNL     1      10.238  16.988  21.113  0.00  0.00    +0.000 C 
ATOM     22  N   UNL     1       8.087  16.726  22.168  0.00  0.00    +0.000 NA
ATOM     23  N   UNL     1       6.859  16.304  21.823  0.00  0.00    +0.000 N 
ATOM     24  C   UNL     1       5.788  16.312  22.786  0.00  0.00    +0.000 C 
ATOM     25  C   UNL     1       6.770  15.872  20.531  0.00  0.00    +0.000 A 
ATOM     26  N   UNL     1       5.659  15.386  19.942  0.00  0.00    +0.000 NA
ENDBRANCH   1  18
TORSDOF 1
ENDMDL
MODEL 7
REMARK VINA RESULT:      -6.2      3.028      5.517
REMARK  Name = 
REMARK  4 active torsions:
REMARK  status: ('A' for Active; 'I' for Inactive)
REMARK    1  A    between atoms: C_1  and  C_2
REMARK    2  A    between atoms: C_4  and  C_5
REMARK    3  A    between atoms: C_19  and  C_20
REMARK    4  A    between atoms: N_22  and  C_23
REMARK                            x       y       z     vdW  Elec       q    Type
REMARK                         _______ _______ _______ _____ _____    ______ ____
ROOT
ATOM      1  C   UNL     1      -2.177  14.224  20.216  0.00  0.00    +0.000 C 
ATOM      2  O   UNL     1      -1.371  15.062  19.826  0.00  0.00    +0.000 OA
ATOM      3  N   UNL     1      -3.424  14.562  20.772  0.00  0.00    +0.000 N 
ATOM      4  C   UNL     1      -3.777  15.978  20.876  0.00  0.00    +0.000 C 
ATOM      5  C   UNL     1      -4.502  16.282  22.187  0.00  0.00    +0.000 C 
ATOM      6  C   UNL     1      -5.700  15.352  22.409  0.00  0.00    +0.000 C 
ATOM      7  C   UNL     1      -5.286  13.879  22.296  0.00  0.00    +0.000 C 
ATOM      8  C   UNL     1      -6.465  12.923  22.457  0.00  0.00    +0.000 C 
ATOM      9  N   UNL     1      -6.184  12.248  23.677  0.00  0.00    +0.000 N 
ATOM     10  C   UNL     1      -5.002  12.648  24.223  0.00  0.00    +0.000 C 
ATOM     11  O   UNL     1      -4.536  12.237  25.267  0.00  0.00    +0.000 OA
ATOM     12  O   UNL     1      -4.409  13.560  23.405  0.00  0.00    +0.000 OA
ATOM     13  C   UNL     1      -4.551  13.634  20.965  0.00  0.00    +0.000 C 
ATOM     14  H   UNL     1      -6.762  11.563  24.143  0.00  0.00    +0.000 HD
ENDROOT
BRANCH   1  18
ATOM     15  C   UNL     1      -1.492  10.179  17.423  0.00  0.00    +0.000 C 
ATOM     16  C   UNL     1      -1.460  10.836  18.774  0.00  0.00    +0.000 A 
ATOM     17  C   UNL     1      -1.966  12.119  18.929  0.00  0.00    +0.000 A 
ATOM     18  C   UNL     1      -1.790  12.799  20.143  0.00  0.00    +0.000 A 
ATOM     19  C   UNL     1      -1.257  12.082  21.235  0.00  0.00    +0.000 A 
ATOM     20  C   UNL     1      -0.966  12.233  22.627  0.00  0.00    +0.000 A 
ATOM     21  C   UNL     1      -1.208  13.364  23.559  0.00  0.00    +0.000 C 
ATOM     22  N   UNL     1      -0.384  11.138  23.144  0.00  0.00    +0.000 NA
ATOM     23  N   UNL     1      -0.319  10.283  22.110  0.00  0.00    +0.000 N 
ATOM     24  C   UNL     1       0.270   8.979  22.279  0.00  0.00    +0.000 C 
ATOM     25  C   UNL     1      -0.828  10.787  20.948  0.00  0.00    +0.000 A 
ATOM     26  N   UNL     1      -0.868  10.141  19.765  0.00  0.00    +0.000 NA
ENDBRANCH   1  18
TORSDOF 1
ENDMDL
MODEL 8
REMARK VINA RESULT:      -6.1      1.320      2.938
REMARK  Name = 
REMARK  4 active torsions:
REMARK  status: ('A' for Active; 'I' for Inactive)
REMARK    1  A    between atoms: C_1  and  C_2
REMARK    2  A    between atoms: C_4  and  C_5
REMARK    3  A    between atoms: C_19  and  C_20
REMARK    4  A    between atoms: N_22  and  C_23
REMARK                            x       y       z     vdW  Elec       q    Type
REMARK                         _______ _______ _______ _____ _____    ______ ____
ROOT
ATOM      1  C   UNL     1      -0.750  11.516  19.148  0.00  0.00    +0.000 C 
ATOM      2  O   UNL     1      -0.393  10.345  19.232  0.00  0.00    +0.000 OA
ATOM      3  N   UNL     1       0.140  12.570  18.875  0.00  0.00    +0.000 N 
ATOM      4  C   UNL     1       1.553  12.251  18.671  0.00  0.00    +0.000 C 
ATOM      5  C   UNL     1       2.464  13.294  19.316  0.00  0.00    +0.000 C 
ATOM      6  C   UNL     1       2.106  14.718  18.877  0.00  0.00    +0.000 C 
ATOM      7  C   UNL     1       0.619  15.013  19.113  0.00  0.00    +0.000 C 
ATOM      8  C   UNL     1       0.213  16.406  18.637  0.00  0.00    +0.000 C 
ATOM      9  N   UNL     1      -0.114  17.088  19.841  0.00  0.00    +0.000 N 
ATOM     10  C   UNL     1       0.008  16.286  20.934  0.00  0.00    +0.000 C 
ATOM     11  O   UNL     1      -0.200  16.626  22.082  0.00  0.00    +0.000 OA
ATOM     12  O   UNL     1       0.374  15.035  20.542  0.00  0.00    +0.000 OA
ATOM     13  C   UNL     1      -0.249  13.926  18.454  0.00  0.00    +0.000 C 
ATOM     14  H   UNL     1      -0.390  18.055  19.939  0.00  0.00    +0.000 HD
ENDROOT
BRANCH   1  18
ATOM     15  C   UNL     1      -4.160  13.541  22.131  0.00  0.00    +0.000 C 
ATOM     16  C   UNL     1      -3.825  12.817  20.859  0.00  0.00    +0.000 A 
ATOM     17  C   UNL     1      -2.533  12.356  20.647  0.00  0.00    +0.000 A 
ATOM     18  C   UNL     1      -2.174  11.828  19.399  0.00  0.00    +0.000 A 
ATOM     19  C   UNL     1      -3.195  11.617  18.447  0.00  0.00    +0.000 A 
ATOM     20  C   UNL     1      -3.401  11.064  17.145  0.00  0.00    +0.000 A 
ATOM     21  C   UNL     1      -2.471  10.370  16.218  0.00  0.00    +0.000 C 
ATOM     22  N   UNL     1      -4.671  11.210  16.729  0.00  0.00    +0.000 NA
ATOM     23  N   UNL     1      -5.282  11.826  17.755  0.00  0.00    +0.000 N 
ATOM     24  C   UNL     1      -6.679  12.170  17.671  0.00  0.00    +0.000 C 
ATOM     25  C   UNL     1      -4.454  12.091  18.808  0.00  0.00    +0.000 A 
ATOM     26  N   UNL     1      -4.814  12.713  19.950  0.00  0.00    +0.000 NA
ENDBRANCH   1  18
TORSDOF 1
ENDMDL
MODEL 9
REMARK VINA RESULT:      -6.0      3.089      5.268
REMARK  Name = 
REMARK  4 active torsions:
REMARK  status: ('A' for Active; 'I' for Inactive)
REMARK    1  A    between atoms: C_1  and  C_2
REMARK    2  A    between atoms: C_4  and  C_5
REMARK    3  A    between atoms: C_19  and  C_20
REMARK    4  A    between atoms: N_22  and  C_23
REMARK                            x       y       z     vdW  Elec       q    Type
REMARK                         _______ _______ _______ _____ _____    ______ ____
ROOT
ATOM      1  C   UNL     1       0.066  13.809  22.045  0.00  0.00    +0.000 C 
ATOM      2  O   UNL     1       1.224  14.155  22.259  0.00  0.00    +0.000 OA
ATOM      3  N   UNL     1      -1.046  14.564  22.458  0.00  0.00    +0.000 N 
ATOM      4  C   UNL     1      -0.808  15.823  23.163  0.00  0.00    +0.000 C 
ATOM      5  C   UNL     1      -1.806  16.027  24.303  0.00  0.00    +0.000 C 
ATOM      6  C   UNL     1      -3.255  15.875  23.829  0.00  0.00    +0.000 C 
ATOM      7  C   UNL     1      -3.463  14.541  23.101  0.00  0.00    +0.000 C 
ATOM      8  C   UNL     1      -4.884  14.378  22.566  0.00  0.00    +0.000 C 
ATOM      9  N   UNL     1      -5.411  13.308  23.340  0.00  0.00    +0.000 N 
ATOM     10  C   UNL     1      -4.495  12.808  24.215  0.00  0.00    +0.000 C 
ATOM     11  O   UNL     1      -4.694  11.901  24.999  0.00  0.00    +0.000 OA
ATOM     12  O   UNL     1      -3.312  13.463  24.059  0.00  0.00    +0.000 OA
ATOM     13  C   UNL     1      -2.425  14.384  21.974  0.00  0.00    +0.000 C 
ATOM     14  H   UNL     1      -6.350  12.934  23.307  0.00  0.00    +0.000 HD
ENDROOT
BRANCH   1  18
ATOM     15  C   UNL     1      -0.467   8.890  22.427  0.00  0.00    +0.000 C 
ATOM     16  C   UNL     1      -0.417  10.120  21.566  0.00  0.00    +0.000 A 
ATOM     17  C   UNL     1      -0.049  11.337  22.123  0.00  0.00    +0.000 A 
ATOM     18  C   UNL     1      -0.160  12.514  21.368  0.00  0.00    +0.000 A 
ATOM     19  C   UNL     1      -0.476  12.398  19.998  0.00  0.00    +0.000 A 
ATOM     20  C   UNL     1      -0.618  13.196  18.820  0.00  0.00    +0.000 A 
ATOM     21  C   UNL     1      -0.402  14.648  18.590  0.00  0.00    +0.000 C 
ATOM     22  N   UNL     1      -1.006  12.467  17.759  0.00  0.00    +0.000 NA
ATOM     23  N   UNL     1      -1.091  11.215  18.236  0.00  0.00    +0.000 N 
ATOM     24  C   UNL     1      -1.502  10.134  17.377  0.00  0.00    +0.000 C 
ATOM     25  C   UNL     1      -0.783  11.110  19.562  0.00  0.00    +0.000 A 
ATOM     26  N   UNL     1      -0.806   9.971  20.285  0.00  0.00    +0.000 NA
ENDBRANCH   1  18
TORSDOF 1
ENDMDL
