MODEL 1
REMARK VINA RESULT:      -7.2      0.000      0.000
REMARK  Name = 
REMARK  11 active torsions:
REMARK  status: ('A' for Active; 'I' for Inactive)
REMARK    1  A    between atoms: C_1  and  C_2
REMARK    2  A    between atoms: C_2  and  N_3
REMARK    3  A    between atoms: C_4  and  C_6
REMARK    4  A    between atoms: C_9  and  C_10
REMARK    5  A    between atoms: C_9  and  C_11
REMARK    6  A    between atoms: N_13  and  C_14
REMARK    7  A    between atoms: C_17  and  C_18
REMARK    8  A    between atoms: C_18  and  C_19
REMARK    9  A    between atoms: C_20  and  C_21
REMARK   10  A    between atoms: C_22  and  C_23
REMARK   11  A    between atoms: C_22  and  C_24
REMARK                            x       y       z     vdW  Elec       q    Type
REMARK                         _______ _______ _______ _____ _____    ______ ____
ROOT
ATOM      1  C   UNL     1       6.079   4.278  16.375  0.00  0.00    +0.000 C 
ATOM      2  C   UNL     1       5.001   3.194  16.216  0.00  0.00    +0.000 C 
ATOM      3  C   UNL     1       3.809   3.598  17.084  0.00  0.00    +0.000 C 
ATOM      4  C   UNL     1       4.259   4.805  17.929  0.00  0.00    +0.000 C 
ATOM      5  C   UNL     1       4.856   4.302  19.261  0.00  0.00    +0.000 C 
ATOM      6  C   UNL     1       5.327   5.505  16.985  0.00  0.00    +0.000 C 
ATOM      7  C   UNL     1       6.294   6.429  17.743  0.00  0.00    +0.000 C 
ATOM      8  C   UNL     1       4.663   6.337  15.854  0.00  0.00    +0.000 C 
ENDROOT
BRANCH   1  10
ATOM      9  N   UNL     1       6.317   3.797  13.982  0.00  0.00    +0.000 N 
ATOM     10  C   UNL     1       6.800   4.532  15.046  0.00  0.00    +0.000 C 
ATOM     11  O   UNL     1       7.750   5.299  14.936  0.00  0.00    +0.000 OA
ATOM     12  H   UNL     1       5.460   3.271  14.086  0.00  0.00    +0.000 HD
BRANCH   9  14
ATOM     13  C   UNL     1       6.432   2.834  11.712  0.00  0.00    +0.000 C 
ATOM     14  C   UNL     1       6.887   3.937  12.655  0.00  0.00    +0.000 C 
ENDBRANCH   9  14
ENDBRANCH   1  10
BRANCH   4  15
ATOM     15  C   UNL     1       3.062   5.718  18.278  0.00  0.00    +0.000 C 
ATOM     16  O   UNL     1       1.969   5.578  17.733  0.00  0.00    +0.000 OA
ATOM     17  N   UNL     1       3.354   6.769  19.130  0.00  0.00    +0.000 N 
ATOM     18  H   UNL     1       4.262   7.208  19.055  0.00  0.00    +0.000 HD
BRANCH  17  19
ATOM     19  C   UNL     1       2.330   7.567  19.584  0.00  0.00    +0.000 A 
ATOM     20  O   UNL     1       1.733   7.186  20.742  0.00  0.00    +0.000 OA
ATOM     21  N   UNL     1       0.833   8.160  21.136  0.00  0.00    +0.000 NA
ATOM     22  C   UNL     1       0.848   9.083  20.166  0.00  0.00    +0.000 A 
ATOM     23  C   UNL     1       1.727   8.711  19.108  0.00  0.00    +0.000 A 
ATOM     24  C   UNL     1       1.922   9.371  17.795  0.00  0.00    +0.000 C 
BRANCH  22  25
ATOM     25  C   UNL     1       0.011  10.311  20.297  0.00  0.00    +0.000 C 
ATOM     26  C   UNL     1      -1.060  10.417  19.225  0.00  0.00    +0.000 C 
ENDBRANCH  22  25
ENDBRANCH  17  19
ENDBRANCH   4  15
TORSDOF 5
ENDMDL
MODEL 2
REMARK VINA RESULT:      -7.2      1.317      1.485
REMARK  Name = 
REMARK  11 active torsions:
REMARK  status: ('A' for Active; 'I' for Inactive)
REMARK    1  A    between atoms: C_1  and  C_2
REMARK    2  A    between atoms: C_2  and  N_3
REMARK    3  A    between atoms: C_4  and  C_6
REMARK    4  A    between atoms: C_9  and  C_10
REMARK    5  A    between atoms: C_9  and  C_11
REMARK    6  A    between atoms: N_13  and  C_14
REMARK    7  A    between atoms: C_17  and  C_18
REMARK    8  A    between atoms: C_18  and  C_19
REMARK    9  A    between atoms: C_20  and  C_21
REMARK   10  A    between atoms: C_22  and  C_23
REMARK   11  A    between atoms: C_22  and  C_24
REMARK                            x       y       z     vdW  Elec       q    Type
REMARK                         _______ _______ _______ _____ _____    ______ ____
ROOT
ATOM      1  C   UNL     1       6.166   4.654  16.334  0.00  0.00    +0.000 C 
ATOM      2  C   UNL     1       5.144   3.510  16.438  0.00  0.00    +0.000 C 
ATOM      3  C   UNL     1       3.952   4.028  17.242  0.00  0.00    +0.000 C 
ATOM      4  C   UNL     1       4.355   5.405  17.804  0.00  0.00    +0.000 C 
ATOM      5  C   UNL     1       5.008   5.220  19.191  0.00  0.00    +0.000 C 
ATOM      6  C   UNL     1       5.363   5.943  16.701  0.00  0.00    +0.000 C 
ATOM      7  C   UNL     1       6.296   7.051  17.219  0.00  0.00    +0.000 C 
ATOM      8  C   UNL     1       4.630   6.489  15.445  0.00  0.00    +0.000 C 
ENDROOT
BRANCH   1  10
ATOM      9  N   UNL     1       6.239   3.849  14.018  0.00  0.00    +0.000 N 
ATOM     10  C   UNL     1       6.843   4.660  14.958  0.00  0.00    +0.000 C 
ATOM     11  O   UNL     1       7.858   5.303  14.715  0.00  0.00    +0.000 OA
ATOM     12  H   UNL     1       5.340   3.433  14.221  0.00  0.00    +0.000 HD
BRANCH   9  14
ATOM     13  C   UNL     1       6.044   2.692  11.847  0.00  0.00    +0.000 C 
ATOM     14  C   UNL     1       6.755   3.758  12.665  0.00  0.00    +0.000 C 
ENDBRANCH   9  14
ENDBRANCH   1  10
BRANCH   4  15
ATOM     15  C   UNL     1       3.119   6.312  17.996  0.00  0.00    +0.000 C 
ATOM     16  O   UNL     1       1.976   5.868  17.898  0.00  0.00    +0.000 OA
ATOM     17  N   UNL     1       3.397   7.660  18.143  0.00  0.00    +0.000 N 
ATOM     18  H   UNL     1       4.177   8.047  17.629  0.00  0.00    +0.000 HD
BRANCH  17  19
ATOM     19  C   UNL     1       2.369   8.528  18.430  0.00  0.00    +0.000 A 
ATOM     20  O   UNL     1       2.093   9.471  17.493  0.00  0.00    +0.000 OA
ATOM     21  N   UNL     1       0.953  10.163  17.862  0.00  0.00    +0.000 NA
ATOM     22  C   UNL     1       0.601   9.673  19.058  0.00  0.00    +0.000 A 
ATOM     23  C   UNL     1       1.522   8.684  19.506  0.00  0.00    +0.000 A 
ATOM     24  C   UNL     1       1.581   8.008  20.824  0.00  0.00    +0.000 C 
BRANCH  22  25
ATOM     25  C   UNL     1      -0.631  10.178  19.732  0.00  0.00    +0.000 C 
ATOM     26  C   UNL     1      -1.546  10.948  18.796  0.00  0.00    +0.000 C 
ENDBRANCH  22  25
ENDBRANCH  17  19
ENDBRANCH   4  15
TORSDOF 5
ENDMDL
MODEL 3
REMARK VINA RESULT:      -6.6      0.988      1.053
REMARK  Name = 
REMARK  11 active torsions:
REMARK  status: ('A' for Active; 'I' for Inactive)
REMARK    1  A    between atoms: C_1  and  C_2
REMARK    2  A    between atoms: C_2  and  N_3
REMARK    3  A    between atoms: C_4  and  C_6
REMARK    4  A    between atoms: C_9  and  C_10
REMARK    5  A    between atoms: C_9  and  C_11
REMARK    6  A    between atoms: N_13  and  C_14
REMARK    7  A    between atoms: C_17  and  C_18
REMARK    8  A    between atoms: C_18  and  C_19
REMARK    9  A    between atoms: C_20  and  C_21
REMARK   10  A    between atoms: C_22  and  C_23
REMARK   11  A    between atoms: C_22  and  C_24
REMARK                            x       y       z     vdW  Elec       q    Type
REMARK                         _______ _______ _______ _____ _____    ______ ____
ROOT
ATOM      1  C   UNL     1       5.986   3.912  16.125  0.00  0.00    +0.000 C 
ATOM      2  C   UNL     1       4.529   3.489  15.880  0.00  0.00    +0.000 C 
ATOM      3  C   UNL     1       3.700   3.977  17.067  0.00  0.00    +0.000 C 
ATOM      4  C   UNL     1       4.694   4.497  18.123  0.00  0.00    +0.000 C 
ATOM      5  C   UNL     1       5.083   3.342  19.072  0.00  0.00    +0.000 C 
ATOM      6  C   UNL     1       5.903   5.012  17.231  0.00  0.00    +0.000 C 
ATOM      7  C   UNL     1       7.226   5.123  18.007  0.00  0.00    +0.000 C 
ATOM      8  C   UNL     1       5.615   6.395  16.585  0.00  0.00    +0.000 C 
ENDROOT
BRANCH   1  10
ATOM      9  N   UNL     1       6.245   3.631  13.702  0.00  0.00    +0.000 N 
ATOM     10  C   UNL     1       6.661   4.334  14.815  0.00  0.00    +0.000 C 
ATOM     11  O   UNL     1       7.526   5.201  14.757  0.00  0.00    +0.000 OA
ATOM     12  H   UNL     1       5.448   3.013  13.772  0.00  0.00    +0.000 HD
BRANCH   9  14
ATOM     13  C   UNL     1       6.787   2.703  11.480  0.00  0.00    +0.000 C 
ATOM     14  C   UNL     1       6.782   3.924  12.387  0.00  0.00    +0.000 C 
ENDBRANCH   9  14
ENDBRANCH   1  10
BRANCH   4  15
ATOM     15  C   UNL     1       4.058   5.608  18.989  0.00  0.00    +0.000 C 
ATOM     16  O   UNL     1       4.666   6.112  19.931  0.00  0.00    +0.000 OA
ATOM     17  N   UNL     1       2.730   5.881  18.712  0.00  0.00    +0.000 N 
ATOM     18  H   UNL     1       2.131   5.115  18.432  0.00  0.00    +0.000 HD
BRANCH  17  19
ATOM     19  C   UNL     1       2.114   6.929  19.354  0.00  0.00    +0.000 A 
ATOM     20  O   UNL     1       1.618   6.674  20.592  0.00  0.00    +0.000 OA
ATOM     21  N   UNL     1       1.165   7.853  21.157  0.00  0.00    +0.000 NA
ATOM     22  C   UNL     1       1.330   8.794  20.217  0.00  0.00    +0.000 A 
ATOM     23  C   UNL     1       1.855   8.240  19.014  0.00  0.00    +0.000 A 
ATOM     24  C   UNL     1       2.045   8.900  17.701  0.00  0.00    +0.000 C 
BRANCH  22  25
ATOM     25  C   UNL     1       0.978  10.212  20.518  0.00  0.00    +0.000 C 
ATOM     26  C   UNL     1      -0.405  10.598  20.022  0.00  0.00    +0.000 C 
ENDBRANCH  22  25
ENDBRANCH  17  19
ENDBRANCH   4  15
TORSDOF 5
ENDMDL
MODEL 4
REMARK VINA RESULT:      -6.3      0.970      1.095
REMARK  Name = 
REMARK  11 active torsions:
REMARK  status: ('A' for Active; 'I' for Inactive)
REMARK    1  A    between atoms: C_1  and  C_2
REMARK    2  A    between atoms: C_2  and  N_3
REMARK    3  A    between atoms: C_4  and  C_6
REMARK    4  A    between atoms: C_9  and  C_10
REMARK    5  A    between atoms: C_9  and  C_11
REMARK    6  A    between atoms: N_13  and  C_14
REMARK    7  A    between atoms: C_17  and  C_18
REMARK    8  A    between atoms: C_18  and  C_19
REMARK    9  A    between atoms: C_20  and  C_21
REMARK   10  A    between atoms: C_22  and  C_23
REMARK   11  A    between atoms: C_22  and  C_24
REMARK                            x       y       z     vdW  Elec       q    Type
REMARK                         _______ _______ _______ _____ _____    ______ ____
ROOT
ATOM      1  C   UNL     1       5.505   3.952  17.231  0.00  0.00    +0.000 C 
ATOM      2  C   UNL     1       4.281   3.152  16.757  0.00  0.00    +0.000 C 
ATOM      3  C   UNL     1       3.044   3.774  17.404  0.00  0.00    +0.000 C 
ATOM      4  C   UNL     1       3.547   4.804  18.433  0.00  0.00    +0.000 C 
ATOM      5  C   UNL     1       3.723   4.114  19.803  0.00  0.00    +0.000 C 
ATOM      6  C   UNL     1       4.918   5.287  17.792  0.00  0.00    +0.000 C 
ATOM      7  C   UNL     1       5.874   5.928  18.812  0.00  0.00    +0.000 C 
ATOM      8  C   UNL     1       4.706   6.302  16.636  0.00  0.00    +0.000 C 
ENDROOT
BRANCH   1  10
ATOM      9  N   UNL     1       6.037   3.845  14.838  0.00  0.00    +0.000 N 
ATOM     10  C   UNL     1       6.532   4.099  16.101  0.00  0.00    +0.000 C 
ATOM     11  O   UNL     1       7.708   4.384  16.300  0.00  0.00    +0.000 OA
ATOM     12  H   UNL     1       5.041   3.734  14.706  0.00  0.00    +0.000 HD
BRANCH   9  14
ATOM     13  C   UNL     1       7.377   5.377  13.441  0.00  0.00    +0.000 C 
ATOM     14  C   UNL     1       6.884   3.956  13.665  0.00  0.00    +0.000 C 
ENDBRANCH   9  14
ENDBRANCH   1  10
BRANCH   4  15
ATOM     15  C   UNL     1       2.526   5.948  18.623  0.00  0.00    +0.000 C 
ATOM     16  O   UNL     1       1.608   6.126  17.824  0.00  0.00    +0.000 OA
ATOM     17  N   UNL     1       2.807   6.819  19.661  0.00  0.00    +0.000 N 
ATOM     18  H   UNL     1       3.775   7.028  19.863  0.00  0.00    +0.000 HD
BRANCH  17  19
ATOM     19  C   UNL     1       1.896   7.801  19.975  0.00  0.00    +0.000 A 
ATOM     20  O   UNL     1       1.165   7.612  21.103  0.00  0.00    +0.000 OA
ATOM     21  N   UNL     1       0.409   8.743  21.356  0.00  0.00    +0.000 NA
ATOM     22  C   UNL     1       0.642   9.572  20.329  0.00  0.00    +0.000 A 
ATOM     23  C   UNL     1       1.520   8.984  19.375  0.00  0.00    +0.000 A 
ATOM     24  C   UNL     1       1.911   9.499  18.041  0.00  0.00    +0.000 C 
BRANCH  22  25
ATOM     25  C   UNL     1       0.007  10.922  20.309  0.00  0.00    +0.000 C 
ATOM     26  C   UNL     1      -1.199  10.996  19.388  0.00  0.00    +0.000 C 
ENDBRANCH  22  25
ENDBRANCH  17  19
ENDBRANCH   4  15
TORSDOF 5
ENDMDL
MODEL 5
REMARK VINA RESULT:      -6.3      1.480      1.788
REMARK  Name = 
REMARK  11 active torsions:
REMARK  status: ('A' for Active; 'I' for Inactive)
REMARK    1  A    between atoms: C_1  and  C_2
REMARK    2  A    between atoms: C_2  and  N_3
REMARK    3  A    between atoms: C_4  and  C_6
REMARK    4  A    between atoms: C_9  and  C_10
REMARK    5  A    between atoms: C_9  and  C_11
REMARK    6  A    between atoms: N_13  and  C_14
REMARK    7  A    between atoms: C_17  and  C_18
REMARK    8  A    between atoms: C_18  and  C_19
REMARK    9  A    between atoms: C_20  and  C_21
REMARK   10  A    between atoms: C_22  and  C_23
REMARK   11  A    between atoms: C_22  and  C_24
REMARK                            x       y       z     vdW  Elec       q    Type
REMARK                         _______ _______ _______ _____ _____    ______ ____
ROOT
ATOM      1  C   UNL     1       5.627   4.644  16.807  0.00  0.00    +0.000 C 
ATOM      2  C   UNL     1       4.273   3.921  16.713  0.00  0.00    +0.000 C 
ATOM      3  C   UNL     1       3.222   4.823  17.360  0.00  0.00    +0.000 C 
ATOM      4  C   UNL     1       3.981   5.981  18.035  0.00  0.00    +0.000 C 
ATOM      5  C   UNL     1       4.317   5.593  19.491  0.00  0.00    +0.000 C 
ATOM      6  C   UNL     1       5.265   6.133  17.113  0.00  0.00    +0.000 C 
ATOM      7  C   UNL     1       6.431   6.856  17.808  0.00  0.00    +0.000 C 
ATOM      8  C   UNL     1       4.959   6.887  15.790  0.00  0.00    +0.000 C 
ENDROOT
BRANCH   1  10
ATOM      9  N   UNL     1       5.743   3.955  14.456  0.00  0.00    +0.000 N 
ATOM     10  C   UNL     1       6.462   4.406  15.544  0.00  0.00    +0.000 C 
ATOM     11  O   UNL     1       7.677   4.569  15.505  0.00  0.00    +0.000 OA
ATOM     12  H   UNL     1       4.732   3.950  14.493  0.00  0.00    +0.000 HD
BRANCH   9  14
ATOM     13  C   UNL     1       5.403   3.273  12.108  0.00  0.00    +0.000 C 
ATOM     14  C   UNL     1       6.391   3.697  13.184  0.00  0.00    +0.000 C 
ENDBRANCH   9  14
ENDBRANCH   1  10
BRANCH   4  15
ATOM     15  C   UNL     1       3.115   7.260  18.088  0.00  0.00    +0.000 C 
ATOM     16  O   UNL     1       3.104   8.065  17.159  0.00  0.00    +0.000 OA
ATOM     17  N   UNL     1       2.478   7.488  19.295  0.00  0.00    +0.000 N 
ATOM     18  H   UNL     1       2.953   7.218  20.146  0.00  0.00    +0.000 HD
BRANCH  17  19
ATOM     19  C   UNL     1       1.598   8.540  19.399  0.00  0.00    +0.000 A 
ATOM     20  O   UNL     1       1.274   9.175  18.244  0.00  0.00    +0.000 OA
ATOM     21  N   UNL     1       0.279  10.104  18.495  0.00  0.00    +0.000 NA
ATOM     22  C   UNL     1       0.071  10.065  19.818  0.00  0.00    +0.000 A 
ATOM     23  C   UNL     1       0.948   9.142  20.456  0.00  0.00    +0.000 A 
ATOM     24  C   UNL     1       1.144   8.907  21.906  0.00  0.00    +0.000 C 
BRANCH  22  25
ATOM     25  C   UNL     1      -0.985  10.925  20.427  0.00  0.00    +0.000 C 
ATOM     26  C   UNL     1      -0.439  12.224  20.994  0.00  0.00    +0.000 C 
ENDBRANCH  22  25
ENDBRANCH  17  19
ENDBRANCH   4  15
TORSDOF 5
ENDMDL
MODEL 6
REMARK VINA RESULT:      -6.3      1.404      1.622
REMARK  Name = 
REMARK  11 active torsions:
REMARK  status: ('A' for Active; 'I' for Inactive)
REMARK    1  A    between atoms: C_1  and  C_2
REMARK    2  A    between atoms: C_2  and  N_3
REMARK    3  A    between atoms: C_4  and  C_6
REMARK    4  A    between atoms: C_9  and  C_10
REMARK    5  A    between atoms: C_9  and  C_11
REMARK    6  A    between atoms: N_13  and  C_14
REMARK    7  A    between atoms: C_17  and  C_18
REMARK    8  A    between atoms: C_18  and  C_19
REMARK    9  A    between atoms: C_20  and  C_21
REMARK   10  A    between atoms: C_22  and  C_23
REMARK   11  A    between atoms: C_22  and  C_24
REMARK                            x       y       z     vdW  Elec       q    Type
REMARK                         _______ _______ _______ _____ _____    ______ ____
ROOT
ATOM      1  C   UNL     1       6.091   4.042  15.937  0.00  0.00    +0.000 C 
ATOM      2  C   UNL     1       4.658   3.505  15.790  0.00  0.00    +0.000 C 
ATOM      3  C   UNL     1       3.812   4.139  16.894  0.00  0.00    +0.000 C 
ATOM      4  C   UNL     1       4.783   4.881  17.832  0.00  0.00    +0.000 C 
ATOM      5  C   UNL     1       5.245   3.924  18.952  0.00  0.00    +0.000 C 
ATOM      6  C   UNL     1       5.954   5.306  16.846  0.00  0.00    +0.000 C 
ATOM      7  C   UNL     1       7.275   5.616  17.569  0.00  0.00    +0.000 C 
ATOM      8  C   UNL     1       5.583   6.543  15.983  0.00  0.00    +0.000 C 
ENDROOT
BRANCH   1  10
ATOM      9  N   UNL     1       6.209   3.499  13.548  0.00  0.00    +0.000 N 
ATOM     10  C   UNL     1       6.731   4.275  14.563  0.00  0.00    +0.000 C 
ATOM     11  O   UNL     1       7.653   5.062  14.380  0.00  0.00    +0.000 OA
ATOM     12  H   UNL     1       5.373   2.955  13.714  0.00  0.00    +0.000 HD
BRANCH   9  14
ATOM     13  C   UNL     1       6.763   2.271  11.480  0.00  0.00    +0.000 C 
ATOM     14  C   UNL     1       6.702   3.615  12.188  0.00  0.00    +0.000 C 
ENDBRANCH   9  14
ENDBRANCH   1  10
BRANCH   4  15
ATOM     15  C   UNL     1       4.092   6.085  18.512  0.00  0.00    +0.000 C 
ATOM     16  O   UNL     1       4.463   6.501  19.608  0.00  0.00    +0.000 OA
ATOM     17  N   UNL     1       2.961   6.553  17.867  0.00  0.00    +0.000 N 
ATOM     18  H   UNL     1       2.365   5.884  17.399  0.00  0.00    +0.000 HD
BRANCH  17  19
ATOM     19  C   UNL     1       2.345   7.689  18.338  0.00  0.00    +0.000 A 
ATOM     20  O   UNL     1       2.414   8.789  17.544  0.00  0.00    +0.000 OA
ATOM     21  N   UNL     1       1.631   9.794  18.084  0.00  0.00    +0.000 NA
ATOM     22  C   UNL     1       1.159   9.307  19.239  0.00  0.00    +0.000 A 
ATOM     23  C   UNL     1       1.653   7.995  19.491  0.00  0.00    +0.000 A 
ATOM     24  C   UNL     1       1.496   7.168  20.710  0.00  0.00    +0.000 C 
BRANCH  22  25
ATOM     25  C   UNL     1       0.230  10.130  20.066  0.00  0.00    +0.000 C 
ATOM     26  C   UNL     1      -0.832  10.837  19.240  0.00  0.00    +0.000 C 
ENDBRANCH  22  25
ENDBRANCH  17  19
ENDBRANCH   4  15
TORSDOF 5
ENDMDL
MODEL 7
REMARK VINA RESULT:      -6.3      2.540      8.036
REMARK  Name = 
REMARK  11 active torsions:
REMARK  status: ('A' for Active; 'I' for Inactive)
REMARK    1  A    between atoms: C_1  and  C_2
REMARK    2  A    between atoms: C_2  and  N_3
REMARK    3  A    between atoms: C_4  and  C_6
REMARK    4  A    between atoms: C_9  and  C_10
REMARK    5  A    between atoms: C_9  and  C_11
REMARK    6  A    between atoms: N_13  and  C_14
REMARK    7  A    between atoms: C_17  and  C_18
REMARK    8  A    between atoms: C_18  and  C_19
REMARK    9  A    between atoms: C_20  and  C_21
REMARK   10  A    between atoms: C_22  and  C_23
REMARK   11  A    between atoms: C_22  and  C_24
REMARK                            x       y       z     vdW  Elec       q    Type
REMARK                         _______ _______ _______ _____ _____    ______ ____
ROOT
ATOM      1  C   UNL     1       4.041   6.034  18.451  0.00  0.00    +0.000 C 
ATOM      2  C   UNL     1       3.678   7.045  17.351  0.00  0.00    +0.000 C 
ATOM      3  C   UNL     1       4.716   6.907  16.238  0.00  0.00    +0.000 C 
ATOM      4  C   UNL     1       5.820   5.973  16.768  0.00  0.00    +0.000 C 
ATOM      5  C   UNL     1       6.911   6.814  17.465  0.00  0.00    +0.000 C 
ATOM      6  C   UNL     1       5.021   5.030  17.765  0.00  0.00    +0.000 C 
ATOM      7  C   UNL     1       5.923   4.337  18.801  0.00  0.00    +0.000 C 
ATOM      8  C   UNL     1       4.218   3.927  17.022  0.00  0.00    +0.000 C 
ENDROOT
BRANCH   1  10
ATOM      9  N   UNL     1       2.897   5.071  20.396  0.00  0.00    +0.000 N 
ATOM     10  C   UNL     1       2.778   5.419  19.066  0.00  0.00    +0.000 C 
ATOM     11  O   UNL     1       1.752   5.218  18.424  0.00  0.00    +0.000 OA
ATOM     12  H   UNL     1       3.713   5.364  20.917  0.00  0.00    +0.000 HD
BRANCH   9  14
ATOM     13  C   UNL     1       2.020   3.029  21.470  0.00  0.00    +0.000 C 
ATOM     14  C   UNL     1       1.783   4.490  21.121  0.00  0.00    +0.000 C 
ENDBRANCH   9  14
ENDBRANCH   1  10
BRANCH   4  15
ATOM     15  C   UNL     1       6.502   5.203  15.614  0.00  0.00    +0.000 C 
ATOM     16  O   UNL     1       7.607   4.683  15.756  0.00  0.00    +0.000 OA
ATOM     17  N   UNL     1       5.845   5.265  14.398  0.00  0.00    +0.000 N 
ATOM     18  H   UNL     1       5.361   6.120  14.158  0.00  0.00    +0.000 HD
BRANCH  17  19
ATOM     19  C   UNL     1       6.317   4.520  13.343  0.00  0.00    +0.000 A 
ATOM     20  O   UNL     1       7.625   4.687  13.020  0.00  0.00    +0.000 OA
ATOM     21  N   UNL     1       7.978   3.770  12.046  0.00  0.00    +0.000 NA
ATOM     22  C   UNL     1       6.852   3.110  11.743  0.00  0.00    +0.000 A 
ATOM     23  C   UNL     1       5.742   3.607  12.484  0.00  0.00    +0.000 A 
ATOM     24  C   UNL     1       4.309   3.259  12.343  0.00  0.00    +0.000 C 
BRANCH  22  25
ATOM     25  C   UNL     1       6.889   2.003  10.743  0.00  0.00    +0.000 C 
ATOM     26  C   UNL     1       6.397   0.679  11.305  0.00  0.00    +0.000 C 
ENDBRANCH  22  25
ENDBRANCH  17  19
ENDBRANCH   4  15
TORSDOF 5
ENDMDL
MODEL 8
REMARK VINA RESULT:      -6.2      1.118      1.210
REMARK  Name = 
REMARK  11 active torsions:
REMARK  status: ('A' for Active; 'I' for Inactive)
REMARK    1  A    between atoms: C_1  and  C_2
REMARK    2  A    between atoms: C_2  and  N_3
REMARK    3  A    between atoms: C_4  and  C_6
REMARK    4  A    between atoms: C_9  and  C_10
REMARK    5  A    between atoms: C_9  and  C_11
REMARK    6  A    between atoms: N_13  and  C_14
REMARK    7  A    between atoms: C_17  and  C_18
REMARK    8  A    between atoms: C_18  and  C_19
REMARK    9  A    between atoms: C_20  and  C_21
REMARK   10  A    between atoms: C_22  and  C_23
REMARK   11  A    between atoms: C_22  and  C_24
REMARK                            x       y       z     vdW  Elec       q    Type
REMARK                         _______ _______ _______ _____ _____    ______ ____
ROOT
ATOM      1  C   UNL     1       5.561   3.950  17.075  0.00  0.00    +0.000 C 
ATOM      2  C   UNL     1       4.186   3.512  16.544  0.00  0.00    +0.000 C 
ATOM      3  C   UNL     1       3.140   3.921  17.581  0.00  0.00    +0.000 C 
ATOM      4  C   UNL     1       3.908   4.404  18.826  0.00  0.00    +0.000 C 
ATOM      5  C   UNL     1       4.150   3.208  19.773  0.00  0.00    +0.000 C 
ATOM      6  C   UNL     1       5.245   4.989  18.198  0.00  0.00    +0.000 C 
ATOM      7  C   UNL     1       6.400   5.084  19.208  0.00  0.00    +0.000 C 
ATOM      8  C   UNL     1       5.040   6.398  17.577  0.00  0.00    +0.000 C 
ENDROOT
BRANCH   1  10
ATOM      9  N   UNL     1       6.063   4.038  14.675  0.00  0.00    +0.000 N 
ATOM     10  C   UNL     1       6.452   4.453  15.933  0.00  0.00    +0.000 C 
ATOM     11  O   UNL     1       7.450   5.142  16.117  0.00  0.00    +0.000 OA
ATOM     12  H   UNL     1       5.172   3.577  14.555  0.00  0.00    +0.000 HD
BRANCH   9  14
ATOM     13  C   UNL     1       6.442   3.604  12.275  0.00  0.00    +0.000 C 
ATOM     14  C   UNL     1       6.799   4.444  13.492  0.00  0.00    +0.000 C 
ENDBRANCH   9  14
ENDBRANCH   1  10
BRANCH   4  15
ATOM     15  C   UNL     1       3.093   5.455  19.612  0.00  0.00    +0.000 C 
ATOM     16  O   UNL     1       2.846   5.310  20.808  0.00  0.00    +0.000 OA
ATOM     17  N   UNL     1       2.556   6.475  18.846  0.00  0.00    +0.000 N 
ATOM     18  H   UNL     1       2.246   6.258  17.909  0.00  0.00    +0.000 HD
BRANCH  17  19
ATOM     19  C   UNL     1       1.911   7.514  19.474  0.00  0.00    +0.000 A 
ATOM     20  O   UNL     1       1.386   7.251  20.698  0.00  0.00    +0.000 OA
ATOM     21  N   UNL     1       0.904   8.423  21.253  0.00  0.00    +0.000 NA
ATOM     22  C   UNL     1       1.081   9.367  20.319  0.00  0.00    +0.000 A 
ATOM     23  C   UNL     1       1.643   8.822  19.129  0.00  0.00    +0.000 A 
ATOM     24  C   UNL     1       1.858   9.486  17.822  0.00  0.00    +0.000 C 
BRANCH  22  25
ATOM     25  C   UNL     1       0.703  10.780  20.612  0.00  0.00    +0.000 C 
ATOM     26  C   UNL     1      -0.698  11.130  20.138  0.00  0.00    +0.000 C 
ENDBRANCH  22  25
ENDBRANCH  17  19
ENDBRANCH   4  15
TORSDOF 5
ENDMDL
MODEL 9
REMARK VINA RESULT:      -6.1      4.513     11.206
REMARK  Name = 
REMARK  11 active torsions:
REMARK  status: ('A' for Active; 'I' for Inactive)
REMARK    1  A    between atoms: C_1  and  C_2
REMARK    2  A    between atoms: C_2  and  N_3
REMARK    3  A    between atoms: C_4  and  C_6
REMARK    4  A    between atoms: C_9  and  C_10
REMARK    5  A    between atoms: C_9  and  C_11
REMARK    6  A    between atoms: N_13  and  C_14
REMARK    7  A    between atoms: C_17  and  C_18
REMARK    8  A    between atoms: C_18  and  C_19
REMARK    9  A    between atoms: C_20  and  C_21
REMARK   10  A    between atoms: C_22  and  C_23
REMARK   11  A    between atoms: C_22  and  C_24
REMARK                            x       y       z     vdW  Elec       q    Type
REMARK                         _______ _______ _______ _____ _____    ______ ____
ROOT
ATOM      1  C   UNL     1      -3.096  13.665  21.916  0.00  0.00    +0.000 C 
ATOM      2  C   UNL     1      -3.640  12.881  20.709  0.00  0.00    +0.000 C 
ATOM      3  C   UNL     1      -2.457  12.175  20.048  0.00  0.00    +0.000 C 
ATOM      4  C   UNL     1      -1.180  12.710  20.723  0.00  0.00    +0.000 C 
ATOM      5  C   UNL     1      -0.672  13.945  19.950  0.00  0.00    +0.000 C 
ATOM      6  C   UNL     1      -1.686  13.050  22.190  0.00  0.00    +0.000 C 
ATOM      7  C   UNL     1      -0.779  14.048  22.929  0.00  0.00    +0.000 C 
ATOM      8  C   UNL     1      -1.822  11.784  23.079  0.00  0.00    +0.000 C 
ENDROOT
BRANCH   1  10
ATOM      9  N   UNL     1      -5.170  12.790  22.890  0.00  0.00    +0.000 N 
ATOM     10  C   UNL     1      -4.084  13.617  23.088  0.00  0.00    +0.000 C 
ATOM     11  O   UNL     1      -3.943  14.284  24.108  0.00  0.00    +0.000 OA
ATOM     12  H   UNL     1      -5.186  12.169  22.093  0.00  0.00    +0.000 HD
BRANCH   9  14
ATOM     13  C   UNL     1      -7.318  13.632  23.767  0.00  0.00    +0.000 C 
ATOM     14  C   UNL     1      -6.185  12.629  23.914  0.00  0.00    +0.000 C 
ENDBRANCH   9  14
ENDBRANCH   1  10
BRANCH   4  15
ATOM     15  C   UNL     1      -0.051  11.655  20.697  0.00  0.00    +0.000 C 
ATOM     16  O   UNL     1       1.072  11.908  21.130  0.00  0.00    +0.000 OA
ATOM     17  N   UNL     1      -0.360  10.480  20.035  0.00  0.00    +0.000 N 
ATOM     18  H   UNL     1      -0.961  10.531  19.223  0.00  0.00    +0.000 HD
BRANCH  17  19
ATOM     19  C   UNL     1       0.542   9.442  20.057  0.00  0.00    +0.000 A 
ATOM     20  O   UNL     1       0.578   8.695  21.190  0.00  0.00    +0.000 OA
ATOM     21  N   UNL     1       1.422   7.615  21.000  0.00  0.00    +0.000 NA
ATOM     22  C   UNL     1       1.942   7.770  19.775  0.00  0.00    +0.000 A 
ATOM     23  C   UNL     1       1.477   8.968  19.161  0.00  0.00    +0.000 A 
ATOM     24  C   UNL     1       1.915   9.581  17.885  0.00  0.00    +0.000 C 
BRANCH  22  25
ATOM     25  C   UNL     1       2.874   6.741  19.229  0.00  0.00    +0.000 C 
ATOM     26  C   UNL     1       2.233   5.862  18.169  0.00  0.00    +0.000 C 
ENDBRANCH  22  25
ENDBRANCH  17  19
ENDBRANCH   4  15
TORSDOF 5
ENDMDL
