MODEL 1
REMARK VINA RESULT:      -6.1      0.000      0.000
REMARK  Name = 
REMARK  7 active torsions:
REMARK  status: ('A' for Active; 'I' for Inactive)
REMARK    1  A    between atoms: N_1  and  C_2
REMARK    2  A    between atoms: C_2  and  C_3
REMARK    3  A    between atoms: C_3  and  S_4
REMARK    4  A    between atoms: S_4  and  C_5
REMARK    5  A    between atoms: C_5  and  C_6
REMARK    6  A    between atoms: C_5  and  C_10
REMARK    7  A    between atoms: C_6  and  N_7
REMARK                            x       y       z     vdW  Elec       q    Type
REMARK                         _______ _______ _______ _____ _____    ______ ____
ROOT
ATOM      1  C   UNL     1       5.029   4.569  18.400  0.00  0.00    +0.000 C 
ENDROOT
BRANCH   1   2
ATOM      2  C   UNL     1       3.665   4.355  19.070  0.00  0.00    +0.000 A 
ATOM      3  C   UNL     1       3.109   5.350  19.904  0.00  0.00    +0.000 A 
ATOM      4  C   UNL     1       1.856   5.192  20.494  0.00  0.00    +0.000 A 
ATOM      5  C   UNL     1       1.137   4.022  20.298  0.00  0.00    +0.000 A 
ATOM      6  C   UNL     1       1.681   3.000  19.519  0.00  0.00    +0.000 A 
ATOM      7  C   UNL     1       2.931   3.162  18.913  0.00  0.00    +0.000 A 
ATOM      8 CL   UNL     1       3.530   1.834  17.980  0.00  0.00    +0.000 Cl
ENDBRANCH   1   2
BRANCH   1   9
ATOM      9  S   UNL     1       4.824   5.237  16.663  0.00  0.00    +0.000 S 
BRANCH   9  10
ATOM     10  C   UNL     1       5.621   3.970  15.627  0.00  0.00    +0.000 C 
BRANCH  10  11
ATOM     11  C   UNL     1       6.744   4.534  14.756  0.00  0.00    +0.000 C 
BRANCH  11  12
ATOM     12  N   UNL     1       7.427   5.634  15.434  0.00  0.00    +0.000 NA
ATOM     13  H   UNL     1       8.423   5.601  15.222  0.00  0.00    +0.000 HD
ATOM     14  H   UNL     1       7.340   5.542  16.445  0.00  0.00    +0.000 HD
ENDBRANCH  11  12
ENDBRANCH  10  11
ENDBRANCH   9  10
ENDBRANCH   1   9
BRANCH   1  15
ATOM     15  C   UNL     1       6.039   5.290  19.296  0.00  0.00    +0.000 C 
BRANCH  15  16
ATOM     16  N   UNL     1       7.364   5.425  18.621  0.00  0.00    +0.000 N 
ATOM     17  O   UNL     1       7.928   4.378  18.272  0.00  0.00    +0.000 OA
ATOM     18  O   UNL     1       7.831   6.566  18.513  0.00  0.00    +0.000 OA
ENDBRANCH  15  16
ENDBRANCH   1  15
TORSDOF 7
ENDMDL
MODEL 2
REMARK VINA RESULT:      -5.9      1.562      1.800
REMARK  Name = 
REMARK  7 active torsions:
REMARK  status: ('A' for Active; 'I' for Inactive)
REMARK    1  A    between atoms: N_1  and  C_2
REMARK    2  A    between atoms: C_2  and  C_3
REMARK    3  A    between atoms: C_3  and  S_4
REMARK    4  A    between atoms: S_4  and  C_5
REMARK    5  A    between atoms: C_5  and  C_6
REMARK    6  A    between atoms: C_5  and  C_10
REMARK    7  A    between atoms: C_6  and  N_7
REMARK                            x       y       z     vdW  Elec       q    Type
REMARK                         _______ _______ _______ _____ _____    ______ ____
ROOT
ATOM      1  C   UNL     1       4.903   4.136  18.594  0.00  0.00    +0.000 C 
ENDROOT
BRANCH   1   2
ATOM      2  C   UNL     1       3.673   3.916  19.488  0.00  0.00    +0.000 A 
ATOM      3  C   UNL     1       3.615   2.816  20.372  0.00  0.00    +0.000 A 
ATOM      4  C   UNL     1       2.526   2.617  21.218  0.00  0.00    +0.000 A 
ATOM      5  C   UNL     1       1.447   3.488  21.181  0.00  0.00    +0.000 A 
ATOM      6  C   UNL     1       1.453   4.556  20.283  0.00  0.00    +0.000 A 
ATOM      7  C   UNL     1       2.552   4.768  19.443  0.00  0.00    +0.000 A 
ATOM      8 CL   UNL     1       2.461   6.108  18.353  0.00  0.00    +0.000 Cl
ENDBRANCH   1   2
BRANCH   1   9
ATOM      9  S   UNL     1       4.478   3.863  16.791  0.00  0.00    +0.000 S 
BRANCH   9  10
ATOM     10  C   UNL     1       5.148   5.343  15.971  0.00  0.00    +0.000 C 
BRANCH  10  11
ATOM     11  C   UNL     1       6.201   5.011  14.913  0.00  0.00    +0.000 C 
BRANCH  11  12
ATOM     12  N   UNL     1       7.532   5.423  15.353  0.00  0.00    +0.000 NA
ATOM     13  H   UNL     1       7.474   6.327  15.819  0.00  0.00    +0.000 HD
ATOM     14  H   UNL     1       8.152   5.545  14.554  0.00  0.00    +0.000 HD
ENDBRANCH  11  12
ENDBRANCH  10  11
ENDBRANCH   9  10
ENDBRANCH   1   9
BRANCH   1  15
ATOM     15  C   UNL     1       5.676   5.414  18.930  0.00  0.00    +0.000 C 
BRANCH  15  16
ATOM     16  N   UNL     1       7.123   5.128  19.158  0.00  0.00    +0.000 N 
ATOM     17  O   UNL     1       7.731   4.539  18.252  0.00  0.00    +0.000 OA
ATOM     18  O   UNL     1       7.598   5.447  20.256  0.00  0.00    +0.000 OA
ENDBRANCH  15  16
ENDBRANCH   1  15
TORSDOF 7
ENDMDL
MODEL 3
REMARK VINA RESULT:      -5.9      2.421      3.259
REMARK  Name = 
REMARK  7 active torsions:
REMARK  status: ('A' for Active; 'I' for Inactive)
REMARK    1  A    between atoms: N_1  and  C_2
REMARK    2  A    between atoms: C_2  and  C_3
REMARK    3  A    between atoms: C_3  and  S_4
REMARK    4  A    between atoms: S_4  and  C_5
REMARK    5  A    between atoms: C_5  and  C_6
REMARK    6  A    between atoms: C_5  and  C_10
REMARK    7  A    between atoms: C_6  and  N_7
REMARK                            x       y       z     vdW  Elec       q    Type
REMARK                         _______ _______ _______ _____ _____    ______ ____
ROOT
ATOM      1  C   UNL     1       5.105   4.994  17.507  0.00  0.00    +0.000 C 
ENDROOT
BRANCH   1   2
ATOM      2  C   UNL     1       3.835   4.179  17.793  0.00  0.00    +0.000 A 
ATOM      3  C   UNL     1       3.846   2.770  17.692  0.00  0.00    +0.000 A 
ATOM      4  C   UNL     1       2.716   2.008  17.982  0.00  0.00    +0.000 A 
ATOM      5  C   UNL     1       1.531   2.631  18.347  0.00  0.00    +0.000 A 
ATOM      6  C   UNL     1       1.475   4.023  18.409  0.00  0.00    +0.000 A 
ATOM      7  C   UNL     1       2.612   4.791  18.133  0.00  0.00    +0.000 A 
ATOM      8 CL   UNL     1       2.440   6.510  18.219  0.00  0.00    +0.000 Cl
ENDBRANCH   1   2
BRANCH   1   9
ATOM      9  S   UNL     1       5.950   5.498  19.099  0.00  0.00    +0.000 S 
BRANCH   9  10
ATOM     10  C   UNL     1       7.689   5.713  18.605  0.00  0.00    +0.000 C 
BRANCH  10  11
ATOM     11  C   UNL     1       8.085   7.181  18.448  0.00  0.00    +0.000 C 
BRANCH  11  12
ATOM     12  N   UNL     1       7.388   7.793  17.319  0.00  0.00    +0.000 NA
ATOM     13  H   UNL     1       6.756   7.113  16.899  0.00  0.00    +0.000 HD
ATOM     14  H   UNL     1       8.050   8.065  16.594  0.00  0.00    +0.000 HD
ENDBRANCH  11  12
ENDBRANCH  10  11
ENDBRANCH   9  10
ENDBRANCH   1   9
BRANCH   1  15
ATOM     15  C   UNL     1       5.993   4.373  16.426  0.00  0.00    +0.000 C 
BRANCH  15  16
ATOM     16  N   UNL     1       6.381   5.382  15.397  0.00  0.00    +0.000 N 
ATOM     17  O   UNL     1       7.501   5.258  14.880  0.00  0.00    +0.000 OA
ATOM     18  O   UNL     1       5.584   6.303  15.176  0.00  0.00    +0.000 OA
ENDBRANCH  15  16
ENDBRANCH   1  15
TORSDOF 7
ENDMDL
MODEL 4
REMARK VINA RESULT:      -5.7      3.437      5.622
REMARK  Name = 
REMARK  7 active torsions:
REMARK  status: ('A' for Active; 'I' for Inactive)
REMARK    1  A    between atoms: N_1  and  C_2
REMARK    2  A    between atoms: C_2  and  C_3
REMARK    3  A    between atoms: C_3  and  S_4
REMARK    4  A    between atoms: S_4  and  C_5
REMARK    5  A    between atoms: C_5  and  C_6
REMARK    6  A    between atoms: C_5  and  C_10
REMARK    7  A    between atoms: C_6  and  N_7
REMARK                            x       y       z     vdW  Elec       q    Type
REMARK                         _______ _______ _______ _____ _____    ______ ____
ROOT
ATOM      1  C   UNL     1       4.534   4.042  19.136  0.00  0.00    +0.000 C 
ENDROOT
BRANCH   1   2
ATOM      2  C   UNL     1       5.383   4.279  17.878  0.00  0.00    +0.000 A 
ATOM      3  C   UNL     1       4.985   3.749  16.631  0.00  0.00    +0.000 A 
ATOM      4  C   UNL     1       5.720   3.982  15.471  0.00  0.00    +0.000 A 
ATOM      5  C   UNL     1       6.894   4.720  15.526  0.00  0.00    +0.000 A 
ATOM      6  C   UNL     1       7.339   5.216  16.751  0.00  0.00    +0.000 A 
ATOM      7  C   UNL     1       6.595   4.997  17.916  0.00  0.00    +0.000 A 
ATOM      8 CL   UNL     1       7.236   5.637  19.390  0.00  0.00    +0.000 Cl
ENDBRANCH   1   2
BRANCH   1   9
ATOM      9  S   UNL     1       3.249   5.388  19.340  0.00  0.00    +0.000 S 
BRANCH   9  10
ATOM     10  C   UNL     1       1.673   4.499  19.150  0.00  0.00    +0.000 C 
BRANCH  10  11
ATOM     11  C   UNL     1       0.920   4.335  20.471  0.00  0.00    +0.000 C 
BRANCH  11  12
ATOM     12  N   UNL     1       0.761   2.922  20.810  0.00  0.00    +0.000 NA
ATOM     13  H   UNL     1      -0.158   2.771  21.222  0.00  0.00    +0.000 HD
ATOM     14  H   UNL     1       1.446   2.642  21.510  0.00  0.00    +0.000 HD
ENDBRANCH  11  12
ENDBRANCH  10  11
ENDBRANCH   9  10
ENDBRANCH   1   9
BRANCH   1  15
ATOM     15  C   UNL     1       4.043   2.599  19.273  0.00  0.00    +0.000 C 
BRANCH  15  16
ATOM     16  N   UNL     1       4.336   2.053  20.631  0.00  0.00    +0.000 N 
ATOM     17  O   UNL     1       3.531   2.326  21.534  0.00  0.00    +0.000 OA
ATOM     18  O   UNL     1       5.389   1.419  20.772  0.00  0.00    +0.000 OA
ENDBRANCH  15  16
ENDBRANCH   1  15
TORSDOF 7
ENDMDL
MODEL 5
REMARK VINA RESULT:      -5.6      2.162      3.410
REMARK  Name = 
REMARK  7 active torsions:
REMARK  status: ('A' for Active; 'I' for Inactive)
REMARK    1  A    between atoms: N_1  and  C_2
REMARK    2  A    between atoms: C_2  and  C_3
REMARK    3  A    between atoms: C_3  and  S_4
REMARK    4  A    between atoms: S_4  and  C_5
REMARK    5  A    between atoms: C_5  and  C_6
REMARK    6  A    between atoms: C_5  and  C_10
REMARK    7  A    between atoms: C_6  and  N_7
REMARK                            x       y       z     vdW  Elec       q    Type
REMARK                         _______ _______ _______ _____ _____    ______ ____
ROOT
ATOM      1  C   UNL     1       4.515   4.867  16.925  0.00  0.00    +0.000 C 
ENDROOT
BRANCH   1   2
ATOM      2  C   UNL     1       3.382   4.038  17.547  0.00  0.00    +0.000 A 
ATOM      3  C   UNL     1       3.471   2.630  17.607  0.00  0.00    +0.000 A 
ATOM      4  C   UNL     1       2.472   1.860  18.199  0.00  0.00    +0.000 A 
ATOM      5  C   UNL     1       1.339   2.469  18.718  0.00  0.00    +0.000 A 
ATOM      6  C   UNL     1       1.199   3.854  18.631  0.00  0.00    +0.000 A 
ATOM      7  C   UNL     1       2.207   4.632  18.050  0.00  0.00    +0.000 A 
ATOM      8 CL   UNL     1       1.937   6.339  17.972  0.00  0.00    +0.000 Cl
ENDBRANCH   1   2
BRANCH   1   9
ATOM      9  S   UNL     1       5.132   6.165  18.124  0.00  0.00    +0.000 S 
BRANCH   9  10
ATOM     10  C   UNL     1       6.180   5.216  19.271  0.00  0.00    +0.000 C 
BRANCH  10  11
ATOM     11  C   UNL     1       7.602   5.768  19.370  0.00  0.00    +0.000 C 
BRANCH  11  12
ATOM     12  N   UNL     1       8.248   5.329  20.605  0.00  0.00    +0.000 NA
ATOM     13  H   UNL     1       8.289   4.311  20.627  0.00  0.00    +0.000 HD
ATOM     14  H   UNL     1       7.703   5.617  21.417  0.00  0.00    +0.000 HD
ENDBRANCH  11  12
ENDBRANCH  10  11
ENDBRANCH   9  10
ENDBRANCH   1   9
BRANCH   1  15
ATOM     15  C   UNL     1       5.579   4.015  16.230  0.00  0.00    +0.000 C 
BRANCH  15  16
ATOM     16  N   UNL     1       6.622   4.868  15.586  0.00  0.00    +0.000 N 
ATOM     17  O   UNL     1       6.228   5.747  14.806  0.00  0.00    +0.000 OA
ATOM     18  O   UNL     1       7.805   4.598  15.830  0.00  0.00    +0.000 OA
ENDBRANCH  15  16
ENDBRANCH   1  15
TORSDOF 7
ENDMDL
MODEL 6
REMARK VINA RESULT:      -5.6      2.158      3.409
REMARK  Name = 
REMARK  7 active torsions:
REMARK  status: ('A' for Active; 'I' for Inactive)
REMARK    1  A    between atoms: N_1  and  C_2
REMARK    2  A    between atoms: C_2  and  C_3
REMARK    3  A    between atoms: C_3  and  S_4
REMARK    4  A    between atoms: S_4  and  C_5
REMARK    5  A    between atoms: C_5  and  C_6
REMARK    6  A    between atoms: C_5  and  C_10
REMARK    7  A    between atoms: C_6  and  N_7
REMARK                            x       y       z     vdW  Elec       q    Type
REMARK                         _______ _______ _______ _____ _____    ______ ____
ROOT
ATOM      1  C   UNL     1       4.895   5.298  16.446  0.00  0.00    +0.000 C 
ENDROOT
BRANCH   1   2
ATOM      2  C   UNL     1       3.894   4.556  17.344  0.00  0.00    +0.000 A 
ATOM      3  C   UNL     1       3.966   3.154  17.497  0.00  0.00    +0.000 A 
ATOM      4  C   UNL     1       3.092   2.465  18.335  0.00  0.00    +0.000 A 
ATOM      5  C   UNL     1       2.097   3.150  19.017  0.00  0.00    +0.000 A 
ATOM      6  C   UNL     1       1.969   4.529  18.849  0.00  0.00    +0.000 A 
ATOM      7  C   UNL     1       2.855   5.226  18.020  0.00  0.00    +0.000 A 
ATOM      8 CL   UNL     1       2.607   6.931  17.861  0.00  0.00    +0.000 Cl
ENDBRANCH   1   2
BRANCH   1   9
ATOM      9  S   UNL     1       5.906   6.522  17.438  0.00  0.00    +0.000 S 
BRANCH   9  10
ATOM     10  C   UNL     1       6.410   5.566  18.902  0.00  0.00    +0.000 C 
BRANCH  10  11
ATOM     11  C   UNL     1       7.866   5.809  19.298  0.00  0.00    +0.000 C 
BRANCH  11  12
ATOM     12  N   UNL     1       8.123   5.339  20.658  0.00  0.00    +0.000 NA
ATOM     13  H   UNL     1       8.265   4.330  20.650  0.00  0.00    +0.000 HD
ATOM     14  H   UNL     1       7.318   5.517  21.257  0.00  0.00    +0.000 HD
ENDBRANCH  11  12
ENDBRANCH  10  11
ENDBRANCH   9  10
ENDBRANCH   1   9
BRANCH   1  15
ATOM     15  C   UNL     1       5.670   4.371  15.507  0.00  0.00    +0.000 C 
BRANCH  15  16
ATOM     16  N   UNL     1       7.110   4.758  15.428  0.00  0.00    +0.000 N 
ATOM     17  O   UNL     1       7.874   4.257  16.266  0.00  0.00    +0.000 OA
ATOM     18  O   UNL     1       7.426   5.593  14.572  0.00  0.00    +0.000 OA
ENDBRANCH  15  16
ENDBRANCH   1  15
TORSDOF 7
ENDMDL
MODEL 7
REMARK VINA RESULT:      -5.6      2.694      3.536
REMARK  Name = 
REMARK  7 active torsions:
REMARK  status: ('A' for Active; 'I' for Inactive)
REMARK    1  A    between atoms: N_1  and  C_2
REMARK    2  A    between atoms: C_2  and  C_3
REMARK    3  A    between atoms: C_3  and  S_4
REMARK    4  A    between atoms: S_4  and  C_5
REMARK    5  A    between atoms: C_5  and  C_6
REMARK    6  A    between atoms: C_5  and  C_10
REMARK    7  A    between atoms: C_6  and  N_7
REMARK                            x       y       z     vdW  Elec       q    Type
REMARK                         _______ _______ _______ _____ _____    ______ ____
ROOT
ATOM      1  C   UNL     1       5.358   5.512  16.932  0.00  0.00    +0.000 C 
ENDROOT
BRANCH   1   2
ATOM      2  C   UNL     1       4.090   4.758  17.356  0.00  0.00    +0.000 A 
ATOM      3  C   UNL     1       4.012   3.354  17.231  0.00  0.00    +0.000 A 
ATOM      4  C   UNL     1       2.885   2.645  17.644  0.00  0.00    +0.000 A 
ATOM      5  C   UNL     1       1.788   3.321  18.159  0.00  0.00    +0.000 A 
ATOM      6  C   UNL     1       1.815   4.712  18.250  0.00  0.00    +0.000 A 
ATOM      7  C   UNL     1       2.951   5.426  17.851  0.00  0.00    +0.000 A 
ATOM      8 CL   UNL     1       2.885   7.149  17.985  0.00  0.00    +0.000 Cl
ENDBRANCH   1   2
BRANCH   1   9
ATOM      9  S   UNL     1       6.866   4.836  17.812  0.00  0.00    +0.000 S 
BRANCH   9  10
ATOM     10  C   UNL     1       7.673   6.327  18.473  0.00  0.00    +0.000 C 
BRANCH  10  11
ATOM     11  C   UNL     1       7.584   7.522  17.523  0.00  0.00    +0.000 C 
BRANCH  11  12
ATOM     12  N   UNL     1       8.234   8.697  18.099  0.00  0.00    +0.000 NA
ATOM     13  H   UNL     1       9.019   8.976  17.513  0.00  0.00    +0.000 HD
ATOM     14  H   UNL     1       8.617   8.480  19.018  0.00  0.00    +0.000 HD
ENDBRANCH  11  12
ENDBRANCH  10  11
ENDBRANCH   9  10
ENDBRANCH   1   9
BRANCH   1  15
ATOM     15  C   UNL     1       5.476   5.698  15.417  0.00  0.00    +0.000 C 
BRANCH  15  16
ATOM     16  N   UNL     1       6.567   4.853  14.849  0.00  0.00    +0.000 N 
ATOM     17  O   UNL     1       6.320   3.648  14.688  0.00  0.00    +0.000 OA
ATOM     18  O   UNL     1       7.656   5.400  14.636  0.00  0.00    +0.000 OA
ENDBRANCH  15  16
ENDBRANCH   1  15
TORSDOF 7
ENDMDL
MODEL 8
REMARK VINA RESULT:      -5.6      2.471      3.524
REMARK  Name = 
REMARK  7 active torsions:
REMARK  status: ('A' for Active; 'I' for Inactive)
REMARK    1  A    between atoms: N_1  and  C_2
REMARK    2  A    between atoms: C_2  and  C_3
REMARK    3  A    between atoms: C_3  and  S_4
REMARK    4  A    between atoms: S_4  and  C_5
REMARK    5  A    between atoms: C_5  and  C_6
REMARK    6  A    between atoms: C_5  and  C_10
REMARK    7  A    between atoms: C_6  and  N_7
REMARK                            x       y       z     vdW  Elec       q    Type
REMARK                         _______ _______ _______ _____ _____    ______ ____
ROOT
ATOM      1  C   UNL     1       4.845   4.679  17.149  0.00  0.00    +0.000 C 
ENDROOT
BRANCH   1   2
ATOM      2  C   UNL     1       3.562   3.994  17.641  0.00  0.00    +0.000 A 
ATOM      3  C   UNL     1       3.454   2.586  17.645  0.00  0.00    +0.000 A 
ATOM      4  C   UNL     1       2.314   1.943  18.122  0.00  0.00    +0.000 A 
ATOM      5  C   UNL     1       1.233   2.685  18.574  0.00  0.00    +0.000 A 
ATOM      6  C   UNL     1       1.290   4.079  18.537  0.00  0.00    +0.000 A 
ATOM      7  C   UNL     1       2.439   4.728  18.074  0.00  0.00    +0.000 A 
ATOM      8 CL   UNL     1       2.410   6.458  18.050  0.00  0.00    +0.000 Cl
ENDBRANCH   1   2
BRANCH   1   9
ATOM      9  S   UNL     1       6.231   4.478  18.391  0.00  0.00    +0.000 S 
BRANCH   9  10
ATOM     10  C   UNL     1       7.384   5.818  17.958  0.00  0.00    +0.000 C 
BRANCH  10  11
ATOM     11  C   UNL     1       8.126   6.379  19.171  0.00  0.00    +0.000 C 
BRANCH  11  12
ATOM     12  N   UNL     1       8.019   5.474  20.314  0.00  0.00    +0.000 NA
ATOM     13  H   UNL     1       7.119   4.997  20.289  0.00  0.00    +0.000 HD
ATOM     14  H   UNL     1       8.049   5.996  21.189  0.00  0.00    +0.000 HD
ENDBRANCH  11  12
ENDBRANCH  10  11
ENDBRANCH   9  10
ENDBRANCH   1   9
BRANCH   1  15
ATOM     15  C   UNL     1       5.181   4.361  15.690  0.00  0.00    +0.000 C 
BRANCH  15  16
ATOM     16  N   UNL     1       5.764   5.546  14.996  0.00  0.00    +0.000 N 
ATOM     17  O   UNL     1       6.809   5.366  14.354  0.00  0.00    +0.000 OA
ATOM     18  O   UNL     1       5.197   6.634  15.159  0.00  0.00    +0.000 OA
ENDBRANCH  15  16
ENDBRANCH   1  15
TORSDOF 7
ENDMDL
MODEL 9
REMARK VINA RESULT:      -5.5      1.524      1.794
REMARK  Name = 
REMARK  7 active torsions:
REMARK  status: ('A' for Active; 'I' for Inactive)
REMARK    1  A    between atoms: N_1  and  C_2
REMARK    2  A    between atoms: C_2  and  C_3
REMARK    3  A    between atoms: C_3  and  S_4
REMARK    4  A    between atoms: S_4  and  C_5
REMARK    5  A    between atoms: C_5  and  C_6
REMARK    6  A    between atoms: C_5  and  C_10
REMARK    7  A    between atoms: C_6  and  N_7
REMARK                            x       y       z     vdW  Elec       q    Type
REMARK                         _______ _______ _______ _____ _____    ______ ____
ROOT
ATOM      1  C   UNL     1       5.152   4.253  17.908  0.00  0.00    +0.000 C 
ENDROOT
BRANCH   1   2
ATOM      2  C   UNL     1       3.729   3.816  18.287  0.00  0.00    +0.000 A 
ATOM      3  C   UNL     1       2.606   4.426  17.686  0.00  0.00    +0.000 A 
ATOM      4  C   UNL     1       1.307   4.021  17.987  0.00  0.00    +0.000 A 
ATOM      5  C   UNL     1       1.089   3.021  18.924  0.00  0.00    +0.000 A 
ATOM      6  C   UNL     1       2.176   2.433  19.571  0.00  0.00    +0.000 A 
ATOM      7  C   UNL     1       3.483   2.827  19.259  0.00  0.00    +0.000 A 
ATOM      8 CL   UNL     1       4.765   2.053  20.125  0.00  0.00    +0.000 Cl
ENDBRANCH   1   2
BRANCH   1   9
ATOM      9  S   UNL     1       5.192   4.981  16.183  0.00  0.00    +0.000 S 
BRANCH   9  10
ATOM     10  C   UNL     1       6.145   3.757  15.231  0.00  0.00    +0.000 C 
BRANCH  10  11
ATOM     11  C   UNL     1       6.466   4.228  13.812  0.00  0.00    +0.000 C 
BRANCH  11  12
ATOM     12  N   UNL     1       6.261   3.151  12.846  0.00  0.00    +0.000 NA
ATOM     13  H   UNL     1       5.504   3.401  12.210  0.00  0.00    +0.000 HD
ATOM     14  H   UNL     1       5.975   2.295  13.318  0.00  0.00    +0.000 HD
ENDBRANCH  11  12
ENDBRANCH  10  11
ENDBRANCH   9  10
ENDBRANCH   1   9
BRANCH   1  15
ATOM     15  C   UNL     1       5.853   5.054  19.007  0.00  0.00    +0.000 C 
BRANCH  15  16
ATOM     16  N   UNL     1       7.267   5.360  18.637  0.00  0.00    +0.000 N 
ATOM     17  O   UNL     1       7.589   6.556  18.585  0.00  0.00    +0.000 OA
ATOM     18  O   UNL     1       7.998   4.403  18.352  0.00  0.00    +0.000 OA
ENDBRANCH  15  16
ENDBRANCH   1  15
TORSDOF 7
ENDMDL
