MODEL 1
REMARK VINA RESULT:      -6.7      0.000      0.000
REMARK  Name = 
REMARK  6 active torsions:
REMARK  status: ('A' for Active; 'I' for Inactive)
REMARK    1  A    between atoms: C_1  and  C_2
REMARK    2  A    between atoms: C_2  and  O_3
REMARK    3  A    between atoms: O_3  and  C_4
REMARK    4  A    between atoms: C_7  and  N_8
REMARK    5  A    between atoms: N_8  and  C_9
REMARK    6  A    between atoms: C_9  and  C_11
REMARK                            x       y       z     vdW  Elec       q    Type
REMARK                         _______ _______ _______ _____ _____    ______ ____
ROOT
ATOM      1  N   UNL     1       5.525   3.236  16.501  0.00  0.00    +0.000 N 
ATOM      2  H   UNL     1       5.852   2.286  16.350  0.00  0.00    +0.000 HD
ENDROOT
BRANCH   1   6
ATOM      3  C   UNL     1       1.980   3.547  18.794  0.00  0.00    +0.000 A 
ATOM      4  C   UNL     1       2.626   2.320  18.628  0.00  0.00    +0.000 A 
ATOM      5  C   UNL     1       3.807   2.226  17.879  0.00  0.00    +0.000 A 
ATOM      6  C   UNL     1       4.323   3.355  17.240  0.00  0.00    +0.000 A 
ATOM      7  C   UNL     1       3.675   4.581  17.415  0.00  0.00    +0.000 A 
ATOM      8  C   UNL     1       2.503   4.676  18.173  0.00  0.00    +0.000 A 
BRANCH   3   9
ATOM      9  O   UNL     1       0.859   3.521  19.576  0.00  0.00    +0.000 OA
BRANCH   9  11
ATOM     10  C   UNL     1       2.099   3.751  21.600  0.00  0.00    +0.000 C 
ATOM     11  C   UNL     1       1.016   2.966  20.883  0.00  0.00    +0.000 C 
ENDBRANCH   9  11
ENDBRANCH   3   9
ENDBRANCH   1   6
BRANCH   1  12
ATOM     12  C   UNL     1       6.248   4.257  15.881  0.00  0.00    +0.000 C 
ATOM     13  S   UNL     1       6.414   4.441  14.209  0.00  0.00    +0.000 S 
BRANCH  12  14
ATOM     14  C   UNL     1       6.955   5.179  16.830  0.00  0.00    +0.000 A 
ATOM     15  C   UNL     1       7.010   6.558  16.601  0.00  0.00    +0.000 A 
ATOM     16  C   UNL     1       7.557   7.366  17.580  0.00  0.00    +0.000 A 
ATOM     17  N   UNL     1       8.059   6.900  18.743  0.00  0.00    +0.000 NA
ATOM     18  C   UNL     1       8.012   5.564  18.937  0.00  0.00    +0.000 A 
ATOM     19  C   UNL     1       7.477   4.670  18.021  0.00  0.00    +0.000 A 
ENDBRANCH  12  14
ENDBRANCH   1  12
TORSDOF 5
ENDMDL
MODEL 2
REMARK VINA RESULT:      -6.7      0.398      1.191
REMARK  Name = 
REMARK  6 active torsions:
REMARK  status: ('A' for Active; 'I' for Inactive)
REMARK    1  A    between atoms: C_1  and  C_2
REMARK    2  A    between atoms: C_2  and  O_3
REMARK    3  A    between atoms: O_3  and  C_4
REMARK    4  A    between atoms: C_7  and  N_8
REMARK    5  A    between atoms: N_8  and  C_9
REMARK    6  A    between atoms: C_9  and  C_11
REMARK                            x       y       z     vdW  Elec       q    Type
REMARK                         _______ _______ _______ _____ _____    ______ ____
ROOT
ATOM      1  N   UNL     1       5.629   3.348  16.331  0.00  0.00    +0.000 N 
ATOM      2  H   UNL     1       5.948   2.416  16.086  0.00  0.00    +0.000 HD
ENDROOT
BRANCH   1   6
ATOM      3  C   UNL     1       2.006   3.478  18.516  0.00  0.00    +0.000 A 
ATOM      4  C   UNL     1       2.716   2.285  18.369  0.00  0.00    +0.000 A 
ATOM      5  C   UNL     1       3.922   2.252  17.656  0.00  0.00    +0.000 A 
ATOM      6  C   UNL     1       4.401   3.406  17.034  0.00  0.00    +0.000 A 
ATOM      7  C   UNL     1       3.689   4.598  17.191  0.00  0.00    +0.000 A 
ATOM      8  C   UNL     1       2.491   4.634  17.914  0.00  0.00    +0.000 A 
BRANCH   3   9
ATOM      9  O   UNL     1       0.864   3.395  19.264  0.00  0.00    +0.000 OA
BRANCH   9  11
ATOM     10  C   UNL     1       1.380   2.842  21.526  0.00  0.00    +0.000 C 
ATOM     11  C   UNL     1       0.935   3.943  20.582  0.00  0.00    +0.000 C 
ENDBRANCH   9  11
ENDBRANCH   3   9
ENDBRANCH   1   6
BRANCH   1  12
ATOM     12  C   UNL     1       6.391   4.419  15.858  0.00  0.00    +0.000 C 
ATOM     13  S   UNL     1       6.769   4.688  14.233  0.00  0.00    +0.000 S 
BRANCH  12  14
ATOM     14  C   UNL     1       6.933   5.315  16.933  0.00  0.00    +0.000 A 
ATOM     15  C   UNL     1       7.463   4.794  18.117  0.00  0.00    +0.000 A 
ATOM     16  C   UNL     1       8.068   5.664  19.006  0.00  0.00    +0.000 A 
ATOM     17  N   UNL     1       8.162   6.995  18.805  0.00  0.00    +0.000 NA
ATOM     18  C   UNL     1       7.627   7.480  17.663  0.00  0.00    +0.000 A 
ATOM     19  C   UNL     1       7.008   6.691  16.706  0.00  0.00    +0.000 A 
ENDBRANCH  12  14
ENDBRANCH   1  12
TORSDOF 5
ENDMDL
MODEL 3
REMARK VINA RESULT:      -6.7      3.262      4.031
REMARK  Name = 
REMARK  6 active torsions:
REMARK  status: ('A' for Active; 'I' for Inactive)
REMARK    1  A    between atoms: C_1  and  C_2
REMARK    2  A    between atoms: C_2  and  O_3
REMARK    3  A    between atoms: O_3  and  C_4
REMARK    4  A    between atoms: C_7  and  N_8
REMARK    5  A    between atoms: N_8  and  C_9
REMARK    6  A    between atoms: C_9  and  C_11
REMARK                            x       y       z     vdW  Elec       q    Type
REMARK                         _______ _______ _______ _____ _____    ______ ____
ROOT
ATOM      1  N   UNL     1       2.724   4.584  17.534  0.00  0.00    +0.000 N 
ATOM      2  H   UNL     1       2.220   4.592  16.653  0.00  0.00    +0.000 HD
ENDROOT
BRANCH   1   6
ATOM      3  C   UNL     1       1.795   7.652  20.299  0.00  0.00    +0.000 A 
ATOM      4  C   UNL     1       1.671   6.307  20.648  0.00  0.00    +0.000 A 
ATOM      5  C   UNL     1       1.993   5.296  19.733  0.00  0.00    +0.000 A 
ATOM      6  C   UNL     1       2.390   5.625  18.435  0.00  0.00    +0.000 A 
ATOM      7  C   UNL     1       2.519   6.974  18.094  0.00  0.00    +0.000 A 
ATOM      8  C   UNL     1       2.210   7.983  19.013  0.00  0.00    +0.000 A 
BRANCH   3   9
ATOM      9  O   UNL     1       1.489   8.548  21.286  0.00  0.00    +0.000 OA
BRANCH   9  11
ATOM     10  C   UNL     1      -0.000   9.442  22.920  0.00  0.00    +0.000 C 
ATOM     11  C   UNL     1       0.105   8.667  21.621  0.00  0.00    +0.000 C 
ENDBRANCH   9  11
ENDBRANCH   3   9
ENDBRANCH   1   6
BRANCH   1  12
ATOM     12  C   UNL     1       3.724   3.621  17.679  0.00  0.00    +0.000 C 
ATOM     13  S   UNL     1       3.492   2.083  18.341  0.00  0.00    +0.000 S 
BRANCH  12  14
ATOM     14  C   UNL     1       5.089   4.078  17.255  0.00  0.00    +0.000 A 
ATOM     15  C   UNL     1       6.061   4.440  18.194  0.00  0.00    +0.000 A 
ATOM     16  C   UNL     1       7.338   4.721  17.744  0.00  0.00    +0.000 A 
ATOM     17  N   UNL     1       7.700   4.684  16.445  0.00  0.00    +0.000 NA
ATOM     18  C   UNL     1       6.742   4.349  15.553  0.00  0.00    +0.000 A 
ATOM     19  C   UNL     1       5.436   4.042  15.902  0.00  0.00    +0.000 A 
ENDBRANCH  12  14
ENDBRANCH   1  12
TORSDOF 5
ENDMDL
MODEL 4
REMARK VINA RESULT:      -6.6      3.407      6.488
REMARK  Name = 
REMARK  6 active torsions:
REMARK  status: ('A' for Active; 'I' for Inactive)
REMARK    1  A    between atoms: C_1  and  C_2
REMARK    2  A    between atoms: C_2  and  O_3
REMARK    3  A    between atoms: O_3  and  C_4
REMARK    4  A    between atoms: C_7  and  N_8
REMARK    5  A    between atoms: N_8  and  C_9
REMARK    6  A    between atoms: C_9  and  C_11
REMARK                            x       y       z     vdW  Elec       q    Type
REMARK                         _______ _______ _______ _____ _____    ______ ____
ROOT
ATOM      1  N   UNL     1       4.334   5.964  19.540  0.00  0.00    +0.000 N 
ATOM      2  H   UNL     1       4.841   6.143  20.401  0.00  0.00    +0.000 HD
ENDROOT
BRANCH   1   6
ATOM      3  C   UNL     1       6.723   5.210  16.128  0.00  0.00    +0.000 A 
ATOM      4  C   UNL     1       7.004   4.602  17.352  0.00  0.00    +0.000 A 
ATOM      5  C   UNL     1       6.202   4.845  18.475  0.00  0.00    +0.000 A 
ATOM      6  C   UNL     1       5.139   5.747  18.395  0.00  0.00    +0.000 A 
ATOM      7  C   UNL     1       4.859   6.347  17.164  0.00  0.00    +0.000 A 
ATOM      8  C   UNL     1       5.653   6.094  16.041  0.00  0.00    +0.000 A 
BRANCH   3   9
ATOM      9  O   UNL     1       7.552   4.868  15.096  0.00  0.00    +0.000 OA
BRANCH   9  11
ATOM     10  C   UNL     1       6.215   3.675  13.522  0.00  0.00    +0.000 C 
ATOM     11  C   UNL     1       6.992   4.952  13.784  0.00  0.00    +0.000 C 
ENDBRANCH   9  11
ENDBRANCH   3   9
ENDBRANCH   1   6
BRANCH   1  12
ATOM     12  C   UNL     1       2.942   6.055  19.598  0.00  0.00    +0.000 C 
ATOM     13  S   UNL     1       2.075   7.503  19.705  0.00  0.00    +0.000 S 
BRANCH  12  14
ATOM     14  C   UNL     1       2.236   4.731  19.629  0.00  0.00    +0.000 A 
ATOM     15  C   UNL     1       1.862   4.134  20.837  0.00  0.00    +0.000 A 
ATOM     16  C   UNL     1       1.096   2.983  20.792  0.00  0.00    +0.000 A 
ATOM     17  N   UNL     1       0.701   2.390  19.647  0.00  0.00    +0.000 NA
ATOM     18  C   UNL     1       1.088   2.974  18.491  0.00  0.00    +0.000 A 
ATOM     19  C   UNL     1       1.848   4.132  18.429  0.00  0.00    +0.000 A 
ENDBRANCH  12  14
ENDBRANCH   1  12
TORSDOF 5
ENDMDL
MODEL 5
REMARK VINA RESULT:      -6.6      3.450      6.626
REMARK  Name = 
REMARK  6 active torsions:
REMARK  status: ('A' for Active; 'I' for Inactive)
REMARK    1  A    between atoms: C_1  and  C_2
REMARK    2  A    between atoms: C_2  and  O_3
REMARK    3  A    between atoms: O_3  and  C_4
REMARK    4  A    between atoms: C_7  and  N_8
REMARK    5  A    between atoms: N_8  and  C_9
REMARK    6  A    between atoms: C_9  and  C_11
REMARK                            x       y       z     vdW  Elec       q    Type
REMARK                         _______ _______ _______ _____ _____    ______ ____
ROOT
ATOM      1  N   UNL     1       4.441   5.842  19.229  0.00  0.00    +0.000 N 
ATOM      2  H   UNL     1       5.035   6.032  20.030  0.00  0.00    +0.000 HD
ENDROOT
BRANCH   1   6
ATOM      3  C   UNL     1       6.484   5.162  15.585  0.00  0.00    +0.000 A 
ATOM      4  C   UNL     1       5.315   5.923  15.624  0.00  0.00    +0.000 A 
ATOM      5  C   UNL     1       4.650   6.156  16.835  0.00  0.00    +0.000 A 
ATOM      6  C   UNL     1       5.123   5.579  18.016  0.00  0.00    +0.000 A 
ATOM      7  C   UNL     1       6.298   4.824  17.971  0.00  0.00    +0.000 A 
ATOM      8  C   UNL     1       6.967   4.602  16.762  0.00  0.00    +0.000 A 
BRANCH   3   9
ATOM      9  O   UNL     1       7.064   5.035  14.353  0.00  0.00    +0.000 OA
BRANCH   9  11
ATOM     10  C   UNL     1       7.136   4.187  12.124  0.00  0.00    +0.000 C 
ATOM     11  C   UNL     1       6.512   4.030  13.498  0.00  0.00    +0.000 C 
ENDBRANCH   9  11
ENDBRANCH   3   9
ENDBRANCH   1   6
BRANCH   1  12
ATOM     12  C   UNL     1       3.063   5.966  19.422  0.00  0.00    +0.000 C 
ATOM     13  S   UNL     1       2.244   7.433  19.605  0.00  0.00    +0.000 S 
BRANCH  12  14
ATOM     14  C   UNL     1       2.334   4.659  19.531  0.00  0.00    +0.000 A 
ATOM     15  C   UNL     1       2.055   4.081  20.773  0.00  0.00    +0.000 A 
ATOM     16  C   UNL     1       1.263   2.948  20.810  0.00  0.00    +0.000 A 
ATOM     17  N   UNL     1       0.756   2.353  19.710  0.00  0.00    +0.000 NA
ATOM     18  C   UNL     1       1.053   2.917  18.518  0.00  0.00    +0.000 A 
ATOM     19  C   UNL     1       1.830   4.056  18.376  0.00  0.00    +0.000 A 
ENDBRANCH  12  14
ENDBRANCH   1  12
TORSDOF 5
ENDMDL
MODEL 6
REMARK VINA RESULT:      -6.6      3.399      6.428
REMARK  Name = 
REMARK  6 active torsions:
REMARK  status: ('A' for Active; 'I' for Inactive)
REMARK    1  A    between atoms: C_1  and  C_2
REMARK    2  A    between atoms: C_2  and  O_3
REMARK    3  A    between atoms: O_3  and  C_4
REMARK    4  A    between atoms: C_7  and  N_8
REMARK    5  A    between atoms: N_8  and  C_9
REMARK    6  A    between atoms: C_9  and  C_11
REMARK                            x       y       z     vdW  Elec       q    Type
REMARK                         _______ _______ _______ _____ _____    ______ ____
ROOT
ATOM      1  N   UNL     1       4.321   5.891  19.488  0.00  0.00    +0.000 N 
ATOM      2  H   UNL     1       4.828   5.964  20.365  0.00  0.00    +0.000 HD
ENDROOT
BRANCH   1   6
ATOM      3  C   UNL     1       6.709   5.235  16.055  0.00  0.00    +0.000 A 
ATOM      4  C   UNL     1       7.026   4.640  17.277  0.00  0.00    +0.000 A 
ATOM      5  C   UNL     1       6.224   4.850  18.407  0.00  0.00    +0.000 A 
ATOM      6  C   UNL     1       5.124   5.707  18.335  0.00  0.00    +0.000 A 
ATOM      7  C   UNL     1       4.808   6.294  17.107  0.00  0.00    +0.000 A 
ATOM      8  C   UNL     1       5.602   6.073  15.976  0.00  0.00    +0.000 A 
BRANCH   3   9
ATOM      9  O   UNL     1       7.542   4.926  15.015  0.00  0.00    +0.000 OA
BRANCH   9  11
ATOM     10  C   UNL     1       6.188   3.734  13.455  0.00  0.00    +0.000 C 
ATOM     11  C   UNL     1       6.973   5.008  13.707  0.00  0.00    +0.000 C 
ENDBRANCH   9  11
ENDBRANCH   3   9
ENDBRANCH   1   6
BRANCH   1  12
ATOM     12  C   UNL     1       2.938   6.080  19.541  0.00  0.00    +0.000 C 
ATOM     13  S   UNL     1       2.177   7.581  19.694  0.00  0.00    +0.000 S 
BRANCH  12  14
ATOM     14  C   UNL     1       2.139   4.810  19.522  0.00  0.00    +0.000 A 
ATOM     15  C   UNL     1       2.010   4.048  18.357  0.00  0.00    +0.000 A 
ATOM     16  C   UNL     1       1.375   2.822  18.439  0.00  0.00    +0.000 A 
ATOM     17  N   UNL     1       0.855   2.323  19.580  0.00  0.00    +0.000 NA
ATOM     18  C   UNL     1       0.975   3.083  20.690  0.00  0.00    +0.000 A 
ATOM     19  C   UNL     1       1.600   4.320  20.714  0.00  0.00    +0.000 A 
ENDBRANCH  12  14
ENDBRANCH   1  12
TORSDOF 5
ENDMDL
MODEL 7
REMARK VINA RESULT:      -6.5      3.861      4.873
REMARK  Name = 
REMARK  6 active torsions:
REMARK  status: ('A' for Active; 'I' for Inactive)
REMARK    1  A    between atoms: C_1  and  C_2
REMARK    2  A    between atoms: C_2  and  O_3
REMARK    3  A    between atoms: O_3  and  C_4
REMARK    4  A    between atoms: C_7  and  N_8
REMARK    5  A    between atoms: N_8  and  C_9
REMARK    6  A    between atoms: C_9  and  C_11
REMARK                            x       y       z     vdW  Elec       q    Type
REMARK                         _______ _______ _______ _____ _____    ______ ____
ROOT
ATOM      1  N   UNL     1       3.494   5.355  19.091  0.00  0.00    +0.000 N 
ATOM      2  H   UNL     1       3.746   5.009  20.012  0.00  0.00    +0.000 HD
ENDROOT
BRANCH   1   6
ATOM      3  C   UNL     1       1.496   9.084  18.940  0.00  0.00    +0.000 A 
ATOM      4  C   UNL     1       2.247   8.625  17.857  0.00  0.00    +0.000 A 
ATOM      5  C   UNL     1       2.895   7.383  17.908  0.00  0.00    +0.000 A 
ATOM      6  C   UNL     1       2.843   6.612  19.071  0.00  0.00    +0.000 A 
ATOM      7  C   UNL     1       2.083   7.074  20.149  0.00  0.00    +0.000 A 
ATOM      8  C   UNL     1       1.426   8.308  20.093  0.00  0.00    +0.000 A 
BRANCH   3   9
ATOM      9  O   UNL     1       0.879  10.290  18.760  0.00  0.00    +0.000 OA
BRANCH   9  11
ATOM     10  C   UNL     1      -1.470  10.435  18.373  0.00  0.00    +0.000 C 
ATOM     11  C   UNL     1      -0.376  10.461  19.423  0.00  0.00    +0.000 C 
ENDBRANCH   9  11
ENDBRANCH   3   9
ENDBRANCH   1   6
BRANCH   1  12
ATOM     12  C   UNL     1       3.737   4.504  18.011  0.00  0.00    +0.000 C 
ATOM     13  S   UNL     1       2.626   3.389  17.394  0.00  0.00    +0.000 S 
BRANCH  12  14
ATOM     14  C   UNL     1       5.126   4.596  17.450  0.00  0.00    +0.000 A 
ATOM     15  C   UNL     1       6.236   4.774  18.282  0.00  0.00    +0.000 A 
ATOM     16  C   UNL     1       7.497   4.715  17.717  0.00  0.00    +0.000 A 
ATOM     17  N   UNL     1       7.720   4.513  16.402  0.00  0.00    +0.000 NA
ATOM     18  C   UNL     1       6.634   4.361  15.614  0.00  0.00    +0.000 A 
ATOM     19  C   UNL     1       5.329   4.396  16.083  0.00  0.00    +0.000 A 
ENDBRANCH  12  14
ENDBRANCH   1  12
TORSDOF 5
ENDMDL
MODEL 8
REMARK VINA RESULT:      -6.5      3.400      6.478
REMARK  Name = 
REMARK  6 active torsions:
REMARK  status: ('A' for Active; 'I' for Inactive)
REMARK    1  A    between atoms: C_1  and  C_2
REMARK    2  A    between atoms: C_2  and  O_3
REMARK    3  A    between atoms: O_3  and  C_4
REMARK    4  A    between atoms: C_7  and  N_8
REMARK    5  A    between atoms: N_8  and  C_9
REMARK    6  A    between atoms: C_9  and  C_11
REMARK                            x       y       z     vdW  Elec       q    Type
REMARK                         _______ _______ _______ _____ _____    ______ ____
ROOT
ATOM      1  N   UNL     1       4.141   5.936  19.689  0.00  0.00    +0.000 N 
ATOM      2  H   UNL     1       4.579   6.013  20.601  0.00  0.00    +0.000 HD
ENDROOT
BRANCH   1   6
ATOM      3  C   UNL     1       6.809   5.462  16.437  0.00  0.00    +0.000 A 
ATOM      4  C   UNL     1       5.715   6.325  16.352  0.00  0.00    +0.000 A 
ATOM      5  C   UNL     1       4.843   6.488  17.437  0.00  0.00    +0.000 A 
ATOM      6  C   UNL     1       5.028   5.741  18.602  0.00  0.00    +0.000 A 
ATOM      7  C   UNL     1       6.128   4.884  18.684  0.00  0.00    +0.000 A 
ATOM      8  C   UNL     1       7.006   4.732  17.605  0.00  0.00    +0.000 A 
BRANCH   3   9
ATOM      9  O   UNL     1       7.610   5.415  15.330  0.00  0.00    +0.000 OA
BRANCH   9  11
ATOM     10  C   UNL     1       6.072   3.776  14.531  0.00  0.00    +0.000 C 
ATOM     11  C   UNL     1       7.008   4.904  14.139  0.00  0.00    +0.000 C 
ENDBRANCH   9  11
ENDBRANCH   3   9
ENDBRANCH   1   6
BRANCH   1  12
ATOM     12  C   UNL     1       2.758   6.129  19.636  0.00  0.00    +0.000 C 
ATOM     13  S   UNL     1       1.993   7.635  19.715  0.00  0.00    +0.000 S 
BRANCH  12  14
ATOM     14  C   UNL     1       1.958   4.861  19.571  0.00  0.00    +0.000 A 
ATOM     15  C   UNL     1       1.681   4.237  18.351  0.00  0.00    +0.000 A 
ATOM     16  C   UNL     1       1.057   3.003  18.371  0.00  0.00    +0.000 A 
ATOM     17  N   UNL     1       0.682   2.371  19.502  0.00  0.00    +0.000 NA
ATOM     18  C   UNL     1       0.943   3.000  20.669  0.00  0.00    +0.000 A 
ATOM     19  C   UNL     1       1.571   4.233  20.757  0.00  0.00    +0.000 A 
ENDBRANCH  12  14
ENDBRANCH   1  12
TORSDOF 5
ENDMDL
MODEL 9
REMARK VINA RESULT:      -6.5      3.457      6.476
REMARK  Name = 
REMARK  6 active torsions:
REMARK  status: ('A' for Active; 'I' for Inactive)
REMARK    1  A    between atoms: C_1  and  C_2
REMARK    2  A    between atoms: C_2  and  O_3
REMARK    3  A    between atoms: O_3  and  C_4
REMARK    4  A    between atoms: C_7  and  N_8
REMARK    5  A    between atoms: N_8  and  C_9
REMARK    6  A    between atoms: C_9  and  C_11
REMARK                            x       y       z     vdW  Elec       q    Type
REMARK                         _______ _______ _______ _____ _____    ______ ____
ROOT
ATOM      1  N   UNL     1       4.364   5.847  18.540  0.00  0.00    +0.000 N 
ATOM      2  H   UNL     1       5.060   6.056  19.249  0.00  0.00    +0.000 HD
ENDROOT
BRANCH   1   6
ATOM      3  C   UNL     1       5.971   4.592  14.830  0.00  0.00    +0.000 A 
ATOM      4  C   UNL     1       5.595   5.920  15.040  0.00  0.00    +0.000 A 
ATOM      5  C   UNL     1       5.077   6.332  16.275  0.00  0.00    +0.000 A 
ATOM      6  C   UNL     1       4.876   5.402  17.297  0.00  0.00    +0.000 A 
ATOM      7  C   UNL     1       5.260   4.075  17.082  0.00  0.00    +0.000 A 
ATOM      8  C   UNL     1       5.790   3.667  15.853  0.00  0.00    +0.000 A 
BRANCH   3   9
ATOM      9  O   UNL     1       6.499   4.317  13.600  0.00  0.00    +0.000 OA
BRANCH   9  11
ATOM     10  C   UNL     1       6.646   2.731  11.824  0.00  0.00    +0.000 C 
ATOM     11  C   UNL     1       5.708   3.486  12.747  0.00  0.00    +0.000 C 
ENDBRANCH   9  11
ENDBRANCH   3   9
ENDBRANCH   1   6
BRANCH   1  12
ATOM     12  C   UNL     1       3.033   6.123  18.863  0.00  0.00    +0.000 C 
ATOM     13  S   UNL     1       2.301   7.640  18.719  0.00  0.00    +0.000 S 
BRANCH  12  14
ATOM     14  C   UNL     1       2.281   4.956  19.434  0.00  0.00    +0.000 A 
ATOM     15  C   UNL     1       1.585   4.065  18.611  0.00  0.00    +0.000 A 
ATOM     16  C   UNL     1       1.027   2.938  19.186  0.00  0.00    +0.000 A 
ATOM     17  N   UNL     1       1.100   2.654  20.503  0.00  0.00    +0.000 NA
ATOM     18  C   UNL     1       1.761   3.537  21.283  0.00  0.00    +0.000 A 
ATOM     19  C   UNL     1       2.362   4.691  20.803  0.00  0.00    +0.000 A 
ENDBRANCH  12  14
ENDBRANCH   1  12
TORSDOF 5
ENDMDL
