MODEL 1
REMARK VINA RESULT:      -8.6      0.000      0.000
REMARK  Name = 
REMARK  6 active torsions:
REMARK  status: ('A' for Active; 'I' for Inactive)
REMARK    1  A    between atoms: C_2  and  C_14
REMARK    2  A    between atoms: N_3  and  C_4
REMARK    3  A    between atoms: C_10  and  C_11
REMARK    4  A    between atoms: C_11  and  O_13
REMARK    5  A    between atoms: C_17  and  C_18
REMARK    6  A    between atoms: C_18  and  N_19
REMARK                            x       y       z     vdW  Elec       q    Type
REMARK                         _______ _______ _______ _____ _____    ______ ____
ROOT
ATOM      1  C   UNL     1       2.301   8.197  18.409  0.00  0.00    +0.000 A 
ATOM      2  C   UNL     1       2.351   7.170  19.353  0.00  0.00    +0.000 A 
ATOM      3  C   UNL     1       3.347   6.185  19.259  0.00  0.00    +0.000 A 
ATOM      4  C   UNL     1       4.308   6.220  18.236  0.00  0.00    +0.000 A 
ATOM      5  C   UNL     1       4.252   7.253  17.293  0.00  0.00    +0.000 A 
ATOM      6  C   UNL     1       3.263   8.232  17.383  0.00  0.00    +0.000 A 
ENDROOT
BRANCH   1   8
ATOM      7  O   UNL     1       1.431  10.177  17.574  0.00  0.00    +0.000 OA
ATOM      8  C   UNL     1       1.307   9.308  18.434  0.00  0.00    +0.000 C 
ATOM      9  N   UNL     1       0.324   9.296  19.416  0.00  0.00    +0.000 N 
ATOM     10  H   UNL     1       0.440   8.666  20.208  0.00  0.00    +0.000 HD
BRANCH   9  11
ATOM     11  C   UNL     1      -0.719  10.263  19.538  0.00  0.00    +0.000 A 
ATOM     12  C   UNL     1      -1.707  10.390  18.548  0.00  0.00    +0.000 A 
ATOM     13  C   UNL     1      -2.669  11.396  18.608  0.00  0.00    +0.000 A 
ATOM     14 CL   UNL     1      -3.831  11.542  17.348  0.00  0.00    +0.000 Cl
ATOM     15  C   UNL     1      -2.682  12.293  19.667  0.00  0.00    +0.000 A 
ATOM     16  C   UNL     1      -1.748  12.156  20.695  0.00  0.00    +0.000 A 
ATOM     17  C   UNL     1      -0.790  11.123  20.658  0.00  0.00    +0.000 A 
BRANCH  17  18
ATOM     18  C   UNL     1       0.179  10.992  21.777  0.00  0.00    +0.000 C 
ATOM     19  O   UNL     1      -0.162  10.723  22.919  0.00  0.00    +0.000 OA
BRANCH  18  20
ATOM     20  O   UNL     1       1.458  11.265  21.444  0.00  0.00    +0.000 OA
ATOM     21  H   UNL     1       1.616  11.489  20.507  0.00  0.00    +0.000 HD
ENDBRANCH  18  20
ENDBRANCH  17  18
ENDBRANCH   9  11
ENDBRANCH   1   8
BRANCH   4  22
ATOM     22  C   UNL     1       5.396   5.172  18.158  0.00  0.00    +0.000 C 
BRANCH  22  23
ATOM     23  N   UNL     1       5.788   4.871  16.798  0.00  0.00    +0.000 N 
ATOM     24  C   UNL     1       5.072   4.057  15.969  0.00  0.00    +0.000 C 
ATOM     25  O   UNL     1       4.060   3.421  16.196  0.00  0.00    +0.000 OA
ATOM     26  C   UNL     1       5.736   4.095  14.670  0.00  0.00    +0.000 A 
ATOM     27  C   UNL     1       5.407   3.469  13.484  0.00  0.00    +0.000 A 
ATOM     28  C   UNL     1       6.247   3.689  12.390  0.00  0.00    +0.000 A 
ATOM     29  C   UNL     1       7.384   4.514  12.510  0.00  0.00    +0.000 A 
ATOM     30  C   UNL     1       7.690   5.149  13.721  0.00  0.00    +0.000 A 
ATOM     31  C   UNL     1       6.841   4.922  14.787  0.00  0.00    +0.000 A 
ATOM     32  C   UNL     1       6.842   5.454  16.152  0.00  0.00    +0.000 C 
ATOM     33  O   UNL     1       7.629   6.288  16.556  0.00  0.00    +0.000 OA
ENDBRANCH  22  23
ENDBRANCH   4  22
TORSDOF 6
ENDMDL
MODEL 2
REMARK VINA RESULT:      -8.6      1.350      2.257
REMARK  Name = 
REMARK  6 active torsions:
REMARK  status: ('A' for Active; 'I' for Inactive)
REMARK    1  A    between atoms: C_2  and  C_14
REMARK    2  A    between atoms: N_3  and  C_4
REMARK    3  A    between atoms: C_10  and  C_11
REMARK    4  A    between atoms: C_11  and  O_13
REMARK    5  A    between atoms: C_17  and  C_18
REMARK    6  A    between atoms: C_18  and  N_19
REMARK                            x       y       z     vdW  Elec       q    Type
REMARK                         _______ _______ _______ _____ _____    ______ ____
ROOT
ATOM      1  C   UNL     1       2.424   7.637  18.943  0.00  0.00    +0.000 A 
ATOM      2  C   UNL     1       2.675   6.516  19.737  0.00  0.00    +0.000 A 
ATOM      3  C   UNL     1       3.740   5.660  19.418  0.00  0.00    +0.000 A 
ATOM      4  C   UNL     1       4.574   5.917  18.317  0.00  0.00    +0.000 A 
ATOM      5  C   UNL     1       4.318   7.042  17.526  0.00  0.00    +0.000 A 
ATOM      6  C   UNL     1       3.258   7.893  17.839  0.00  0.00    +0.000 A 
ENDROOT
BRANCH   1   8
ATOM      7  O   UNL     1       0.957   8.721  20.373  0.00  0.00    +0.000 OA
ATOM      8  C   UNL     1       1.341   8.626  19.209  0.00  0.00    +0.000 C 
ATOM      9  N   UNL     1       0.837   9.360  18.143  0.00  0.00    +0.000 N 
ATOM     10  H   UNL     1       1.057   9.052  17.197  0.00  0.00    +0.000 HD
BRANCH   9  11
ATOM     11  C   UNL     1      -0.165  10.372  18.250  0.00  0.00    +0.000 A 
ATOM     12  C   UNL     1      -1.527  10.056  18.123  0.00  0.00    +0.000 A 
ATOM     13  C   UNL     1      -2.504  11.049  18.125  0.00  0.00    +0.000 A 
ATOM     14 CL   UNL     1      -4.157  10.619  17.919  0.00  0.00    +0.000 Cl
ATOM     15  C   UNL     1      -2.151  12.383  18.272  0.00  0.00    +0.000 A 
ATOM     16  C   UNL     1      -0.810  12.722  18.459  0.00  0.00    +0.000 A 
ATOM     17  C   UNL     1       0.183  11.722  18.487  0.00  0.00    +0.000 A 
BRANCH  17  18
ATOM     18  C   UNL     1       1.600  12.113  18.707  0.00  0.00    +0.000 C 
ATOM     19  O   UNL     1       2.018  12.507  19.786  0.00  0.00    +0.000 OA
BRANCH  18  20
ATOM     20  O   UNL     1       2.370  12.065  17.600  0.00  0.00    +0.000 OA
ATOM     21  H   UNL     1       2.740  11.190  17.375  0.00  0.00    +0.000 HD
ENDBRANCH  18  20
ENDBRANCH  17  18
ENDBRANCH   9  11
ENDBRANCH   1   8
BRANCH   4  22
ATOM     22  C   UNL     1       5.738   5.006  17.999  0.00  0.00    +0.000 C 
BRANCH  22  23
ATOM     23  N   UNL     1       5.937   4.828  16.576  0.00  0.00    +0.000 N 
ATOM     24  C   UNL     1       6.946   5.423  15.876  0.00  0.00    +0.000 C 
ATOM     25  O   UNL     1       7.794   6.207  16.258  0.00  0.00    +0.000 OA
ATOM     26  C   UNL     1       6.864   4.914  14.510  0.00  0.00    +0.000 A 
ATOM     27  C   UNL     1       7.660   5.177  13.413  0.00  0.00    +0.000 A 
ATOM     28  C   UNL     1       7.329   4.539  12.215  0.00  0.00    +0.000 A 
ATOM     29  C   UNL     1       6.222   3.669  12.144  0.00  0.00    +0.000 A 
ATOM     30  C   UNL     1       5.437   3.407  13.276  0.00  0.00    +0.000 A 
ATOM     31  C   UNL     1       5.787   4.044  14.450  0.00  0.00    +0.000 A 
ATOM     32  C   UNL     1       5.221   3.961  15.799  0.00  0.00    +0.000 C 
ATOM     33  O   UNL     1       4.319   3.209  16.113  0.00  0.00    +0.000 OA
ENDBRANCH  22  23
ENDBRANCH   4  22
TORSDOF 6
ENDMDL
MODEL 3
REMARK VINA RESULT:      -8.5      2.324      3.103
REMARK  Name = 
REMARK  6 active torsions:
REMARK  status: ('A' for Active; 'I' for Inactive)
REMARK    1  A    between atoms: C_2  and  C_14
REMARK    2  A    between atoms: N_3  and  C_4
REMARK    3  A    between atoms: C_10  and  C_11
REMARK    4  A    between atoms: C_11  and  O_13
REMARK    5  A    between atoms: C_17  and  C_18
REMARK    6  A    between atoms: C_18  and  N_19
REMARK                            x       y       z     vdW  Elec       q    Type
REMARK                         _______ _______ _______ _____ _____    ______ ____
ROOT
ATOM      1  C   UNL     1       1.282   8.942  19.757  0.00  0.00    +0.000 A 
ATOM      2  C   UNL     1       1.975   8.472  18.639  0.00  0.00    +0.000 A 
ATOM      3  C   UNL     1       2.543   7.189  18.661  0.00  0.00    +0.000 A 
ATOM      4  C   UNL     1       2.416   6.356  19.785  0.00  0.00    +0.000 A 
ATOM      5  C   UNL     1       1.720   6.834  20.901  0.00  0.00    +0.000 A 
ATOM      6  C   UNL     1       1.156   8.110  20.884  0.00  0.00    +0.000 A 
ENDROOT
BRANCH   1   8
ATOM      7  O   UNL     1      -0.201  10.528  18.946  0.00  0.00    +0.000 OA
ATOM      8  C   UNL     1       0.616  10.274  19.828  0.00  0.00    +0.000 C 
ATOM      9  N   UNL     1       0.958  11.131  20.866  0.00  0.00    +0.000 N 
ATOM     10  H   UNL     1       1.797  10.925  21.407  0.00  0.00    +0.000 HD
BRANCH   9  11
ATOM     11  C   UNL     1       0.373  12.414  21.091  0.00  0.00    +0.000 A 
ATOM     12  C   UNL     1       0.710  13.513  20.284  0.00  0.00    +0.000 A 
ATOM     13  C   UNL     1       0.224  14.790  20.558  0.00  0.00    +0.000 A 
ATOM     14 CL   UNL     1       0.701  16.115  19.570  0.00  0.00    +0.000 Cl
ATOM     15  C   UNL     1      -0.627  15.002  21.634  0.00  0.00    +0.000 A 
ATOM     16  C   UNL     1      -1.026  13.918  22.419  0.00  0.00    +0.000 A 
ATOM     17  C   UNL     1      -0.561  12.619  22.132  0.00  0.00    +0.000 A 
BRANCH  17  18
ATOM     18  C   UNL     1      -1.019  11.483  22.975  0.00  0.00    +0.000 C 
ATOM     19  O   UNL     1      -0.279  10.572  23.316  0.00  0.00    +0.000 OA
BRANCH  18  20
ATOM     20  O   UNL     1      -2.334  11.504  23.272  0.00  0.00    +0.000 OA
ATOM     21  H   UNL     1      -2.700  10.682  23.650  0.00  0.00    +0.000 HD
ENDBRANCH  18  20
ENDBRANCH  17  18
ENDBRANCH   9  11
ENDBRANCH   1   8
BRANCH   4  22
ATOM     22  C   UNL     1       3.005   4.964  19.788  0.00  0.00    +0.000 C 
BRANCH  22  23
ATOM     23  N   UNL     1       3.949   4.752  18.712  0.00  0.00    +0.000 N 
ATOM     24  C   UNL     1       3.590   4.325  17.466  0.00  0.00    +0.000 C 
ATOM     25  O   UNL     1       2.494   4.007  17.046  0.00  0.00    +0.000 OA
ATOM     26  C   UNL     1       4.802   4.339  16.654  0.00  0.00    +0.000 A 
ATOM     27  C   UNL     1       4.985   4.021  15.323  0.00  0.00    +0.000 A 
ATOM     28  C   UNL     1       6.281   4.123  14.812  0.00  0.00    +0.000 A 
ATOM     29  C   UNL     1       7.349   4.531  15.637  0.00  0.00    +0.000 A 
ATOM     30  C   UNL     1       7.136   4.863  16.982  0.00  0.00    +0.000 A 
ATOM     31  C   UNL     1       5.845   4.760  17.462  0.00  0.00    +0.000 A 
ATOM     32  C   UNL     1       5.278   5.066  18.778  0.00  0.00    +0.000 C 
ATOM     33  O   UNL     1       5.911   5.552  19.696  0.00  0.00    +0.000 OA
ENDBRANCH  22  23
ENDBRANCH   4  22
TORSDOF 6
ENDMDL
MODEL 4
REMARK VINA RESULT:      -8.5      1.423      1.681
REMARK  Name = 
REMARK  6 active torsions:
REMARK  status: ('A' for Active; 'I' for Inactive)
REMARK    1  A    between atoms: C_2  and  C_14
REMARK    2  A    between atoms: N_3  and  C_4
REMARK    3  A    between atoms: C_10  and  C_11
REMARK    4  A    between atoms: C_11  and  O_13
REMARK    5  A    between atoms: C_17  and  C_18
REMARK    6  A    between atoms: C_18  and  N_19
REMARK                            x       y       z     vdW  Elec       q    Type
REMARK                         _______ _______ _______ _____ _____    ______ ____
ROOT
ATOM      1  C   UNL     1       2.536   7.519  18.929  0.00  0.00    +0.000 A 
ATOM      2  C   UNL     1       2.775   6.399  19.729  0.00  0.00    +0.000 A 
ATOM      3  C   UNL     1       3.869   5.565  19.452  0.00  0.00    +0.000 A 
ATOM      4  C   UNL     1       4.744   5.843  18.389  0.00  0.00    +0.000 A 
ATOM      5  C   UNL     1       4.500   6.967  17.592  0.00  0.00    +0.000 A 
ATOM      6  C   UNL     1       3.411   7.796  17.863  0.00  0.00    +0.000 A 
ENDROOT
BRANCH   1   8
ATOM      7  O   UNL     1       0.940   8.515  20.283  0.00  0.00    +0.000 OA
ATOM      8  C   UNL     1       1.424   8.485  19.153  0.00  0.00    +0.000 C 
ATOM      9  N   UNL     1       1.006   9.273  18.088  0.00  0.00    +0.000 N 
ATOM     10  H   UNL     1       1.309   9.017  17.150  0.00  0.00    +0.000 HD
BRANCH   9  11
ATOM     11  C   UNL     1      -0.013  10.271  18.162  0.00  0.00    +0.000 A 
ATOM     12  C   UNL     1      -1.366   9.938  17.990  0.00  0.00    +0.000 A 
ATOM     13  C   UNL     1      -2.356  10.917  17.959  0.00  0.00    +0.000 A 
ATOM     14 CL   UNL     1      -3.995  10.466  17.698  0.00  0.00    +0.000 Cl
ATOM     15  C   UNL     1      -2.025  12.256  18.118  0.00  0.00    +0.000 A 
ATOM     16  C   UNL     1      -0.695  12.612  18.350  0.00  0.00    +0.000 A 
ATOM     17  C   UNL     1       0.309  11.625  18.411  0.00  0.00    +0.000 A 
BRANCH  17  18
ATOM     18  C   UNL     1       1.713  12.035  18.678  0.00  0.00    +0.000 C 
ATOM     19  O   UNL     1       2.059  12.569  19.721  0.00  0.00    +0.000 OA
BRANCH  18  20
ATOM     20  O   UNL     1       2.559  11.833  17.646  0.00  0.00    +0.000 OA
ATOM     21  H   UNL     1       3.491  12.071  17.806  0.00  0.00    +0.000 HD
ENDBRANCH  18  20
ENDBRANCH  17  18
ENDBRANCH   9  11
ENDBRANCH   1   8
BRANCH   4  22
ATOM     22  C   UNL     1       5.939   4.957  18.117  0.00  0.00    +0.000 C 
BRANCH  22  23
ATOM     23  N   UNL     1       6.144   4.713  16.705  0.00  0.00    +0.000 N 
ATOM     24  C   UNL     1       5.372   3.863  15.967  0.00  0.00    +0.000 C 
ATOM     25  O   UNL     1       4.454   3.148  16.321  0.00  0.00    +0.000 OA
ATOM     26  C   UNL     1       5.830   3.975  14.585  0.00  0.00    +0.000 A 
ATOM     27  C   UNL     1       5.373   3.349  13.443  0.00  0.00    +0.000 A 
ATOM     28  C   UNL     1       6.022   3.652  12.244  0.00  0.00    +0.000 A 
ATOM     29  C   UNL     1       7.102   4.558  12.219  0.00  0.00    +0.000 A 
ATOM     30  C   UNL     1       7.539   5.191  13.391  0.00  0.00    +0.000 A 
ATOM     31  C   UNL     1       6.878   4.881  14.563  0.00  0.00    +0.000 A 
ATOM     32  C   UNL     1       7.045   5.385  15.928  0.00  0.00    +0.000 C 
ATOM     33  O   UNL     1       7.822   6.268  16.237  0.00  0.00    +0.000 OA
ENDBRANCH  22  23
ENDBRANCH   4  22
TORSDOF 6
ENDMDL
MODEL 5
REMARK VINA RESULT:      -8.4      1.433      1.526
REMARK  Name = 
REMARK  6 active torsions:
REMARK  status: ('A' for Active; 'I' for Inactive)
REMARK    1  A    between atoms: C_2  and  C_14
REMARK    2  A    between atoms: N_3  and  C_4
REMARK    3  A    between atoms: C_10  and  C_11
REMARK    4  A    between atoms: C_11  and  O_13
REMARK    5  A    between atoms: C_17  and  C_18
REMARK    6  A    between atoms: C_18  and  N_19
REMARK                            x       y       z     vdW  Elec       q    Type
REMARK                         _______ _______ _______ _____ _____    ______ ____
ROOT
ATOM      1  C   UNL     1       2.432   7.915  18.624  0.00  0.00    +0.000 A 
ATOM      2  C   UNL     1       2.531   6.849  19.520  0.00  0.00    +0.000 A 
ATOM      3  C   UNL     1       3.526   5.876  19.339  0.00  0.00    +0.000 A 
ATOM      4  C   UNL     1       4.441   5.962  18.277  0.00  0.00    +0.000 A 
ATOM      5  C   UNL     1       4.337   7.033  17.382  0.00  0.00    +0.000 A 
ATOM      6  C   UNL     1       3.346   8.000  17.558  0.00  0.00    +0.000 A 
ENDROOT
BRANCH   1   8
ATOM      7  O   UNL     1       0.734   9.232  17.753  0.00  0.00    +0.000 OA
ATOM      8  C   UNL     1       1.434   9.016  18.741  0.00  0.00    +0.000 C 
ATOM      9  N   UNL     1       1.362   9.721  19.935  0.00  0.00    +0.000 N 
ATOM     10  H   UNL     1       2.125   9.620  20.603  0.00  0.00    +0.000 HD
BRANCH   9  11
ATOM     11  C   UNL     1       0.429  10.768  20.210  0.00  0.00    +0.000 A 
ATOM     12  C   UNL     1       0.391  11.928  19.420  0.00  0.00    +0.000 A 
ATOM     13  C   UNL     1      -0.444  12.996  19.741  0.00  0.00    +0.000 A 
ATOM     14 CL   UNL     1      -0.423  14.416  18.771  0.00  0.00    +0.000 Cl
ATOM     15  C   UNL     1      -1.277  12.929  20.849  0.00  0.00    +0.000 A 
ATOM     16  C   UNL     1      -1.303  11.765  21.619  0.00  0.00    +0.000 A 
ATOM     17  C   UNL     1      -0.483  10.668  21.286  0.00  0.00    +0.000 A 
BRANCH  17  18
ATOM     18  C   UNL     1      -0.547   9.436  22.115  0.00  0.00    +0.000 C 
ATOM     19  O   UNL     1      -0.478   8.313  21.638  0.00  0.00    +0.000 OA
BRANCH  18  20
ATOM     20  O   UNL     1      -0.758   9.658  23.429  0.00  0.00    +0.000 OA
ATOM     21  H   UNL     1       0.010   9.980  23.937  0.00  0.00    +0.000 HD
ENDBRANCH  18  20
ENDBRANCH  17  18
ENDBRANCH   9  11
ENDBRANCH   1   8
BRANCH   4  22
ATOM     22  C   UNL     1       5.530   4.927  18.106  0.00  0.00    +0.000 C 
BRANCH  22  23
ATOM     23  N   UNL     1       5.892   4.718  16.721  0.00  0.00    +0.000 N 
ATOM     24  C   UNL     1       5.181   3.926  15.866  0.00  0.00    +0.000 C 
ATOM     25  O   UNL     1       4.199   3.241  16.084  0.00  0.00    +0.000 OA
ATOM     26  C   UNL     1       5.805   4.061  14.554  0.00  0.00    +0.000 A 
ATOM     27  C   UNL     1       5.463   3.492  13.343  0.00  0.00    +0.000 A 
ATOM     28  C   UNL     1       6.262   3.804  12.241  0.00  0.00    +0.000 A 
ATOM     29  C   UNL     1       7.373   4.662  12.377  0.00  0.00    +0.000 A 
ATOM     30  C   UNL     1       7.691   5.239  13.614  0.00  0.00    +0.000 A 
ATOM     31  C   UNL     1       6.883   4.921  14.688  0.00  0.00    +0.000 A 
ATOM     32  C   UNL     1       6.906   5.374  16.081  0.00  0.00    +0.000 C 
ATOM     33  O   UNL     1       7.674   6.213  16.511  0.00  0.00    +0.000 OA
ENDBRANCH  22  23
ENDBRANCH   4  22
TORSDOF 6
ENDMDL
MODEL 6
REMARK VINA RESULT:      -8.4      3.449      9.615
REMARK  Name = 
REMARK  6 active torsions:
REMARK  status: ('A' for Active; 'I' for Inactive)
REMARK    1  A    between atoms: C_2  and  C_14
REMARK    2  A    between atoms: N_3  and  C_4
REMARK    3  A    between atoms: C_10  and  C_11
REMARK    4  A    between atoms: C_11  and  O_13
REMARK    5  A    between atoms: C_17  and  C_18
REMARK    6  A    between atoms: C_18  and  N_19
REMARK                            x       y       z     vdW  Elec       q    Type
REMARK                         _______ _______ _______ _____ _____    ______ ____
ROOT
ATOM      1  C   UNL     1       2.486   7.442  18.704  0.00  0.00    +0.000 A 
ATOM      2  C   UNL     1       2.079   7.416  20.039  0.00  0.00    +0.000 A 
ATOM      3  C   UNL     1       1.240   8.427  20.533  0.00  0.00    +0.000 A 
ATOM      4  C   UNL     1       0.786   9.465  19.701  0.00  0.00    +0.000 A 
ATOM      5  C   UNL     1       1.198   9.485  18.364  0.00  0.00    +0.000 A 
ATOM      6  C   UNL     1       2.034   8.482  17.872  0.00  0.00    +0.000 A 
ENDROOT
BRANCH   1   8
ATOM      7  O   UNL     1       2.984   5.237  18.194  0.00  0.00    +0.000 OA
ATOM      8  C   UNL     1       3.349   6.404  18.072  0.00  0.00    +0.000 C 
ATOM      9  N   UNL     1       4.495   6.813  17.403  0.00  0.00    +0.000 N 
ATOM     10  H   UNL     1       4.827   7.765  17.550  0.00  0.00    +0.000 HD
BRANCH   9  11
ATOM     11  C   UNL     1       5.391   5.941  16.712  0.00  0.00    +0.000 A 
ATOM     12  C   UNL     1       5.104   5.490  15.413  0.00  0.00    +0.000 A 
ATOM     13  C   UNL     1       5.920   4.561  14.772  0.00  0.00    +0.000 A 
ATOM     14 CL   UNL     1       5.503   4.001  13.199  0.00  0.00    +0.000 Cl
ATOM     15  C   UNL     1       7.055   4.070  15.400  0.00  0.00    +0.000 A 
ATOM     16  C   UNL     1       7.398   4.544  16.668  0.00  0.00    +0.000 A 
ATOM     17  C   UNL     1       6.594   5.505  17.314  0.00  0.00    +0.000 A 
BRANCH  17  18
ATOM     18  C   UNL     1       6.996   6.004  18.654  0.00  0.00    +0.000 C 
ATOM     19  O   UNL     1       6.459   5.633  19.687  0.00  0.00    +0.000 OA
BRANCH  18  20
ATOM     20  O   UNL     1       7.955   6.953  18.632  0.00  0.00    +0.000 OA
ATOM     21  H   UNL     1       7.641   7.877  18.639  0.00  0.00    +0.000 HD
ENDBRANCH  18  20
ENDBRANCH  17  18
ENDBRANCH   9  11
ENDBRANCH   1   8
BRANCH   4  22
ATOM     22  C   UNL     1      -0.142  10.534  20.232  0.00  0.00    +0.000 C 
BRANCH  22  23
ATOM     23  N   UNL     1       0.284  11.871  19.880  0.00  0.00    +0.000 N 
ATOM     24  C   UNL     1      -0.421  12.694  19.051  0.00  0.00    +0.000 C 
ATOM     25  O   UNL     1      -1.450  12.476  18.439  0.00  0.00    +0.000 OA
ATOM     26  C   UNL     1       0.281  13.973  19.034  0.00  0.00    +0.000 A 
ATOM     27  C   UNL     1      -0.025  15.148  18.375  0.00  0.00    +0.000 A 
ATOM     28  C   UNL     1       0.851  16.223  18.545  0.00  0.00    +0.000 A 
ATOM     29  C   UNL     1       1.998  16.096  19.355  0.00  0.00    +0.000 A 
ATOM     30  C   UNL     1       2.279  14.898  20.025  0.00  0.00    +0.000 A 
ATOM     31  C   UNL     1       1.396  13.851  19.847  0.00  0.00    +0.000 A 
ATOM     32  C   UNL     1       1.367  12.504  20.424  0.00  0.00    +0.000 C 
ATOM     33  O   UNL     1       2.156  12.104  21.259  0.00  0.00    +0.000 OA
ENDBRANCH  22  23
ENDBRANCH   4  22
TORSDOF 6
ENDMDL
MODEL 7
REMARK VINA RESULT:      -8.4      1.435      2.170
REMARK  Name = 
REMARK  6 active torsions:
REMARK  status: ('A' for Active; 'I' for Inactive)
REMARK    1  A    between atoms: C_2  and  C_14
REMARK    2  A    between atoms: N_3  and  C_4
REMARK    3  A    between atoms: C_10  and  C_11
REMARK    4  A    between atoms: C_11  and  O_13
REMARK    5  A    between atoms: C_17  and  C_18
REMARK    6  A    between atoms: C_18  and  N_19
REMARK                            x       y       z     vdW  Elec       q    Type
REMARK                         _______ _______ _______ _____ _____    ______ ____
ROOT
ATOM      1  C   UNL     1       2.300   8.035  18.722  0.00  0.00    +0.000 A 
ATOM      2  C   UNL     1       2.410   6.933  19.572  0.00  0.00    +0.000 A 
ATOM      3  C   UNL     1       3.395   5.963  19.332  0.00  0.00    +0.000 A 
ATOM      4  C   UNL     1       4.289   6.086  18.255  0.00  0.00    +0.000 A 
ATOM      5  C   UNL     1       4.174   7.194  17.407  0.00  0.00    +0.000 A 
ATOM      6  C   UNL     1       3.194   8.158  17.642  0.00  0.00    +0.000 A 
ENDROOT
BRANCH   1   8
ATOM      7  O   UNL     1       0.510   9.312  17.988  0.00  0.00    +0.000 OA
ATOM      8  C   UNL     1       1.311   9.136  18.903  0.00  0.00    +0.000 C 
ATOM      9  N   UNL     1       1.360   9.884  20.072  0.00  0.00    +0.000 N 
ATOM     10  H   UNL     1       2.190   9.811  20.658  0.00  0.00    +0.000 HD
BRANCH   9  11
ATOM     11  C   UNL     1       0.454  10.936  20.406  0.00  0.00    +0.000 A 
ATOM     12  C   UNL     1       0.293  12.047  19.562  0.00  0.00    +0.000 A 
ATOM     13  C   UNL     1      -0.511  13.125  19.927  0.00  0.00    +0.000 A 
ATOM     14 CL   UNL     1      -0.640  14.485  18.882  0.00  0.00    +0.000 Cl
ATOM     15  C   UNL     1      -1.192  13.116  21.136  0.00  0.00    +0.000 A 
ATOM     16  C   UNL     1      -1.097  12.000  21.969  0.00  0.00    +0.000 A 
ATOM     17  C   UNL     1      -0.309  10.892  21.595  0.00  0.00    +0.000 A 
BRANCH  17  18
ATOM     18  C   UNL     1      -0.244   9.712  22.495  0.00  0.00    +0.000 C 
ATOM     19  O   UNL     1       0.157   9.779  23.648  0.00  0.00    +0.000 OA
BRANCH  18  20
ATOM     20  O   UNL     1      -0.598   8.547  21.914  0.00  0.00    +0.000 OA
ATOM     21  H   UNL     1      -0.212   7.740  22.304  0.00  0.00    +0.000 HD
ENDBRANCH  18  20
ENDBRANCH  17  18
ENDBRANCH   9  11
ENDBRANCH   1   8
BRANCH   4  22
ATOM     22  C   UNL     1       5.368   5.053  18.022  0.00  0.00    +0.000 C 
BRANCH  22  23
ATOM     23  N   UNL     1       5.682   4.879  16.620  0.00  0.00    +0.000 N 
ATOM     24  C   UNL     1       6.763   5.451  16.012  0.00  0.00    +0.000 C 
ATOM     25  O   UNL     1       7.595   6.210  16.471  0.00  0.00    +0.000 OA
ATOM     26  C   UNL     1       6.784   4.953  14.640  0.00  0.00    +0.000 A 
ATOM     27  C   UNL     1       7.677   5.202  13.617  0.00  0.00    +0.000 A 
ATOM     28  C   UNL     1       7.433   4.580  12.390  0.00  0.00    +0.000 A 
ATOM     29  C   UNL     1       6.313   3.741  12.218  0.00  0.00    +0.000 A 
ATOM     30  C   UNL     1       5.429   3.492  13.277  0.00  0.00    +0.000 A 
ATOM     31  C   UNL     1       5.694   4.112  14.482  0.00  0.00    +0.000 A 
ATOM     32  C   UNL     1       5.013   4.036  15.777  0.00  0.00    +0.000 C 
ATOM     33  O   UNL     1       4.068   3.306  16.007  0.00  0.00    +0.000 OA
ENDBRANCH  22  23
ENDBRANCH   4  22
TORSDOF 6
ENDMDL
MODEL 8
REMARK VINA RESULT:      -8.4      0.859      1.102
REMARK  Name = 
REMARK  6 active torsions:
REMARK  status: ('A' for Active; 'I' for Inactive)
REMARK    1  A    between atoms: C_2  and  C_14
REMARK    2  A    between atoms: N_3  and  C_4
REMARK    3  A    between atoms: C_10  and  C_11
REMARK    4  A    between atoms: C_11  and  O_13
REMARK    5  A    between atoms: C_17  and  C_18
REMARK    6  A    between atoms: C_18  and  N_19
REMARK                            x       y       z     vdW  Elec       q    Type
REMARK                         _______ _______ _______ _____ _____    ______ ____
ROOT
ATOM      1  C   UNL     1       2.580   7.670  18.594  0.00  0.00    +0.000 A 
ATOM      2  C   UNL     1       2.756   6.613  19.489  0.00  0.00    +0.000 A 
ATOM      3  C   UNL     1       3.795   5.691  19.283  0.00  0.00    +0.000 A 
ATOM      4  C   UNL     1       4.674   5.819  18.196  0.00  0.00    +0.000 A 
ATOM      5  C   UNL     1       4.492   6.880  17.302  0.00  0.00    +0.000 A 
ATOM      6  C   UNL     1       3.460   7.797  17.503  0.00  0.00    +0.000 A 
ENDROOT
BRANCH   1   8
ATOM      7  O   UNL     1       1.174   9.283  17.704  0.00  0.00    +0.000 OA
ATOM      8  C   UNL     1       1.531   8.720  18.736  0.00  0.00    +0.000 C 
ATOM      9  N   UNL     1       1.037   8.995  20.004  0.00  0.00    +0.000 N 
ATOM     10  H   UNL     1       1.551   8.643  20.810  0.00  0.00    +0.000 HD
BRANCH   9  11
ATOM     11  C   UNL     1       0.003   9.938  20.290  0.00  0.00    +0.000 A 
ATOM     12  C   UNL     1      -0.813  10.448  19.267  0.00  0.00    +0.000 A 
ATOM     13  C   UNL     1      -1.755  11.442  19.520  0.00  0.00    +0.000 A 
ATOM     14 CL   UNL     1      -2.701  12.070  18.227  0.00  0.00    +0.000 Cl
ATOM     15  C   UNL     1      -1.923  11.943  20.803  0.00  0.00    +0.000 A 
ATOM     16  C   UNL     1      -1.166  11.414  21.851  0.00  0.00    +0.000 A 
ATOM     17  C   UNL     1      -0.230  10.388  21.610  0.00  0.00    +0.000 A 
BRANCH  17  18
ATOM     18  C   UNL     1       0.546   9.833  22.749  0.00  0.00    +0.000 C 
ATOM     19  O   UNL     1       1.750   9.631  22.693  0.00  0.00    +0.000 OA
BRANCH  18  20
ATOM     20  O   UNL     1      -0.199   9.504  23.825  0.00  0.00    +0.000 OA
ATOM     21  H   UNL     1      -0.089   8.594  24.158  0.00  0.00    +0.000 HD
ENDBRANCH  18  20
ENDBRANCH  17  18
ENDBRANCH   9  11
ENDBRANCH   1   8
BRANCH   4  22
ATOM     22  C   UNL     1       5.809   4.839  17.998  0.00  0.00    +0.000 C 
BRANCH  22  23
ATOM     23  N   UNL     1       6.120   4.617  16.602  0.00  0.00    +0.000 N 
ATOM     24  C   UNL     1       5.404   3.783  15.793  0.00  0.00    +0.000 C 
ATOM     25  O   UNL     1       4.459   3.066  16.065  0.00  0.00    +0.000 OA
ATOM     26  C   UNL     1       5.966   3.916  14.452  0.00  0.00    +0.000 A 
ATOM     27  C   UNL     1       5.595   3.311  13.268  0.00  0.00    +0.000 A 
ATOM     28  C   UNL     1       6.334   3.631  12.127  0.00  0.00    +0.000 A 
ATOM     29  C   UNL     1       7.416   4.532  12.200  0.00  0.00    +0.000 A 
ATOM     30  C   UNL     1       7.765   5.144  13.412  0.00  0.00    +0.000 A 
ATOM     31  C   UNL     1       7.015   4.817  14.525  0.00  0.00    +0.000 A 
ATOM     32  C   UNL     1       7.080   5.298  15.907  0.00  0.00    +0.000 C 
ATOM     33  O   UNL     1       7.833   6.173  16.289  0.00  0.00    +0.000 OA
ENDBRANCH  22  23
ENDBRANCH   4  22
TORSDOF 6
ENDMDL
MODEL 9
REMARK VINA RESULT:      -8.3      5.909      8.323
REMARK  Name = 
REMARK  6 active torsions:
REMARK  status: ('A' for Active; 'I' for Inactive)
REMARK    1  A    between atoms: C_2  and  C_14
REMARK    2  A    between atoms: N_3  and  C_4
REMARK    3  A    between atoms: C_10  and  C_11
REMARK    4  A    between atoms: C_11  and  O_13
REMARK    5  A    between atoms: C_17  and  C_18
REMARK    6  A    between atoms: C_18  and  N_19
REMARK                            x       y       z     vdW  Elec       q    Type
REMARK                         _______ _______ _______ _____ _____    ______ ____
ROOT
ATOM      1  C   UNL     1       8.420   8.958  18.456  0.00  0.00    +0.000 A 
ATOM      2  C   UNL     1       7.687   8.733  17.289  0.00  0.00    +0.000 A 
ATOM      3  C   UNL     1       7.285   7.429  16.959  0.00  0.00    +0.000 A 
ATOM      4  C   UNL     1       7.595   6.341  17.792  0.00  0.00    +0.000 A 
ATOM      5  C   UNL     1       8.329   6.574  18.961  0.00  0.00    +0.000 A 
ATOM      6  C   UNL     1       8.731   7.869  19.289  0.00  0.00    +0.000 A 
ENDROOT
BRANCH   1   8
ATOM      7  O   UNL     1       9.126  10.420  20.110  0.00  0.00    +0.000 OA
ATOM      8  C   UNL     1       8.869  10.304  18.914  0.00  0.00    +0.000 C 
ATOM      9  N   UNL     1       8.961  11.326  17.979  0.00  0.00    +0.000 N 
ATOM     10  H   UNL     1       8.515  11.193  17.072  0.00  0.00    +0.000 HD
BRANCH   9  11
ATOM     11  C   UNL     1       9.417  12.650  18.259  0.00  0.00    +0.000 A 
ATOM     12  C   UNL     1       8.525  13.735  18.275  0.00  0.00    +0.000 A 
ATOM     13  C   UNL     1       8.975  15.041  18.446  0.00  0.00    +0.000 A 
ATOM     14 CL   UNL     1       7.851  16.343  18.411  0.00  0.00    +0.000 Cl
ATOM     15  C   UNL     1      10.327  15.301  18.626  0.00  0.00    +0.000 A 
ATOM     16  C   UNL     1      11.230  14.238  18.673  0.00  0.00    +0.000 A 
ATOM     17  C   UNL     1      10.781  12.910  18.529  0.00  0.00    +0.000 A 
BRANCH  17  18
ATOM     18  C   UNL     1      11.765  11.799  18.603  0.00  0.00    +0.000 C 
ATOM     19  O   UNL     1      12.333  11.486  19.639  0.00  0.00    +0.000 OA
BRANCH  18  20
ATOM     20  O   UNL     1      12.032  11.211  17.418  0.00  0.00    +0.000 OA
ATOM     21  H   UNL     1      12.681  10.482  17.441  0.00  0.00    +0.000 HD
ENDBRANCH  18  20
ENDBRANCH  17  18
ENDBRANCH   9  11
ENDBRANCH   1   8
BRANCH   4  22
ATOM     22  C   UNL     1       7.132   4.944  17.445  0.00  0.00    +0.000 C 
BRANCH  22  23
ATOM     23  N   UNL     1       5.753   4.703  17.814  0.00  0.00    +0.000 N 
ATOM     24  C   UNL     1       4.760   4.467  16.907  0.00  0.00    +0.000 C 
ATOM     25  O   UNL     1       4.810   4.461  15.692  0.00  0.00    +0.000 OA
ATOM     26  C   UNL     1       3.554   4.172  17.675  0.00  0.00    +0.000 A 
ATOM     27  C   UNL     1       2.284   3.845  17.245  0.00  0.00    +0.000 A 
ATOM     28  C   UNL     1       1.314   3.621  18.225  0.00  0.00    +0.000 A 
ATOM     29  C   UNL     1       1.635   3.735  19.593  0.00  0.00    +0.000 A 
ATOM     30  C   UNL     1       2.936   4.055  20.005  0.00  0.00    +0.000 A 
ATOM     31  C   UNL     1       3.879   4.265  19.019  0.00  0.00    +0.000 A 
ATOM     32  C   UNL     1       5.310   4.565  19.099  0.00  0.00    +0.000 C 
ATOM     33  O   UNL     1       5.936   4.619  20.141  0.00  0.00    +0.000 OA
ENDBRANCH  22  23
ENDBRANCH   4  22
TORSDOF 6
ENDMDL
