MODEL 1
REMARK VINA RESULT:      -9.0      0.000      0.000
REMARK  Name = 
REMARK  7 active torsions:
REMARK  status: ('A' for Active; 'I' for Inactive)
REMARK    1  A    between atoms: C_1  and  N_2
REMARK    2  A    between atoms: C_5  and  O_6
REMARK    3  A    between atoms: O_6  and  C_7
REMARK    4  A    between atoms: C_14  and  C_15
REMARK    5  A    between atoms: C_19  and  N_20
REMARK    6  A    between atoms: N_20  and  S_21
REMARK    7  A    between atoms: S_21  and  C_24
REMARK                            x       y       z     vdW  Elec       q    Type
REMARK                         _______ _______ _______ _____ _____    ______ ____
ROOT
ATOM      1  C   UNL     1      -1.682  11.932  20.813  0.00  0.00    +0.000 A 
ATOM      2  N   UNL     1      -2.564  12.571  21.617  0.00  0.00    +0.000 NA
ATOM      3  C   UNL     1      -2.572  12.175  22.888  0.00  0.00    +0.000 A 
ATOM      4  N   UNL     1      -1.779  11.238  23.417  0.00  0.00    +0.000 NA
ATOM      5  C   UNL     1      -0.925  10.631  22.578  0.00  0.00    +0.000 A 
ATOM      6  C   UNL     1      -0.097   9.645  23.083  0.00  0.00    +0.000 A 
ATOM      7  C   UNL     1       0.776   8.943  22.256  0.00  0.00    +0.000 A 
ATOM      8  C   UNL     1       0.809   9.249  20.903  0.00  0.00    +0.000 A 
ATOM      9  N   UNL     1       0.049  10.242  20.387  0.00  0.00    +0.000 NA
ATOM     10  C   UNL     1      -0.815  10.912  21.211  0.00  0.00    +0.000 A 
ENDROOT
BRANCH   8  11
ATOM     11  C   UNL     1       1.601   8.477  19.939  0.00  0.00    +0.000 A 
ATOM     12  C   UNL     1       1.827   8.919  18.636  0.00  0.00    +0.000 A 
ATOM     13  N   UNL     1       2.542   8.241  17.700  0.00  0.00    +0.000 NA
ATOM     14  C   UNL     1       3.046   7.040  18.070  0.00  0.00    +0.000 A 
ATOM     15  C   UNL     1       2.859   6.492  19.331  0.00  0.00    +0.000 A 
ATOM     16  C   UNL     1       2.137   7.223  20.268  0.00  0.00    +0.000 A 
BRANCH  15  17
ATOM     17  N   UNL     1       3.353   5.215  19.702  0.00  0.00    +0.000 N 
ATOM     18  H   UNL     1       3.299   4.919  20.675  0.00  0.00    +0.000 HD
BRANCH  17  19
ATOM     19  S   UNL     1       3.282   3.957  18.591  0.00  0.00    +0.000 S 
ATOM     20  O   UNL     1       3.423   2.736  19.357  0.00  0.00    +0.000 OA
ATOM     21  O   UNL     1       2.153   4.165  17.710  0.00  0.00    +0.000 OA
BRANCH  19  22
ATOM     22  C   UNL     1       4.780   4.191  17.668  0.00  0.00    +0.000 A 
ATOM     23  C   UNL     1       4.768   4.053  16.275  0.00  0.00    +0.000 A 
ATOM     24  C   UNL     1       5.951   4.232  15.557  0.00  0.00    +0.000 A 
ATOM     25  C   UNL     1       7.133   4.554  16.226  0.00  0.00    +0.000 A 
ATOM     26  C   UNL     1       7.141   4.704  17.613  0.00  0.00    +0.000 A 
ATOM     27  C   UNL     1       5.963   4.534  18.337  0.00  0.00    +0.000 A 
ENDBRANCH  19  22
ENDBRANCH  17  19
ENDBRANCH  15  17
ENDBRANCH   8  11
BRANCH   1  28
ATOM     28  O   UNL     1      -1.680  12.266  19.466  0.00  0.00    +0.000 OA
BRANCH  28  33
ATOM     29  C   UNL     1      -3.989   9.935  14.889  0.00  0.00    +0.000 C 
ATOM     30  N   UNL     1      -3.304  10.738  15.903  0.00  0.00    +0.000 NA
ATOM     31  C   UNL     1      -4.239  11.155  16.953  0.00  0.00    +0.000 C 
ATOM     32  C   UNL     1      -3.542  12.034  17.990  0.00  0.00    +0.000 C 
ATOM     33  C   UNL     1      -2.334  11.321  18.604  0.00  0.00    +0.000 C 
ATOM     34  C   UNL     1      -1.406  10.849  17.482  0.00  0.00    +0.000 C 
ATOM     35  C   UNL     1      -2.164  10.001  16.462  0.00  0.00    +0.000 C 
ENDBRANCH  28  33
ENDBRANCH   1  28
TORSDOF 6
ENDMDL
MODEL 2
REMARK VINA RESULT:      -8.7      1.047      1.094
REMARK  Name = 
REMARK  7 active torsions:
REMARK  status: ('A' for Active; 'I' for Inactive)
REMARK    1  A    between atoms: C_1  and  N_2
REMARK    2  A    between atoms: C_5  and  O_6
REMARK    3  A    between atoms: O_6  and  C_7
REMARK    4  A    between atoms: C_14  and  C_15
REMARK    5  A    between atoms: C_19  and  N_20
REMARK    6  A    between atoms: N_20  and  S_21
REMARK    7  A    between atoms: S_21  and  C_24
REMARK                            x       y       z     vdW  Elec       q    Type
REMARK                         _______ _______ _______ _____ _____    ______ ____
ROOT
ATOM      1  C   UNL     1      -2.415  12.518  20.985  0.00  0.00    +0.000 A 
ATOM      2  N   UNL     1      -3.333  13.134  21.766  0.00  0.00    +0.000 NA
ATOM      3  C   UNL     1      -3.360  12.742  23.038  0.00  0.00    +0.000 A 
ATOM      4  N   UNL     1      -2.553  11.830  23.589  0.00  0.00    +0.000 NA
ATOM      5  C   UNL     1      -1.663  11.245  22.772  0.00  0.00    +0.000 A 
ATOM      6  C   UNL     1      -0.819  10.284  23.301  0.00  0.00    +0.000 A 
ATOM      7  C   UNL     1       0.093   9.604  22.497  0.00  0.00    +0.000 A 
ATOM      8  C   UNL     1       0.149   9.907  21.143  0.00  0.00    +0.000 A 
ATOM      9  N   UNL     1      -0.627  10.877  20.606  0.00  0.00    +0.000 NA
ATOM     10  C   UNL     1      -1.529  11.524  21.408  0.00  0.00    +0.000 A 
ENDROOT
BRANCH   8  11
ATOM     11  C   UNL     1       0.985   9.155  20.201  0.00  0.00    +0.000 A 
ATOM     12  C   UNL     1       1.173   9.564  18.881  0.00  0.00    +0.000 A 
ATOM     13  N   UNL     1       1.927   8.901  17.965  0.00  0.00    +0.000 NA
ATOM     14  C   UNL     1       2.512   7.751  18.373  0.00  0.00    +0.000 A 
ATOM     15  C   UNL     1       2.368   7.237  19.654  0.00  0.00    +0.000 A 
ATOM     16  C   UNL     1       1.605   7.953  20.571  0.00  0.00    +0.000 A 
BRANCH  15  17
ATOM     17  N   UNL     1       2.949   6.011  20.066  0.00  0.00    +0.000 N 
ATOM     18  H   UNL     1       2.722   5.631  20.984  0.00  0.00    +0.000 HD
BRANCH  17  19
ATOM     19  S   UNL     1       3.315   4.850  18.908  0.00  0.00    +0.000 S 
ATOM     20  O   UNL     1       3.463   3.601  19.625  0.00  0.00    +0.000 OA
ATOM     21  O   UNL     1       2.391   4.976  17.802  0.00  0.00    +0.000 OA
BRANCH  19  22
ATOM     22  C   UNL     1       4.928   5.359  18.369  0.00  0.00    +0.000 A 
ATOM     23  C   UNL     1       5.107   5.833  17.064  0.00  0.00    +0.000 A 
ATOM     24  C   UNL     1       6.380   6.225  16.646  0.00  0.00    +0.000 A 
ATOM     25  C   UNL     1       7.460   6.149  17.527  0.00  0.00    +0.000 A 
ATOM     26  C   UNL     1       7.277   5.688  18.831  0.00  0.00    +0.000 A 
ATOM     27  C   UNL     1       6.009   5.302  19.259  0.00  0.00    +0.000 A 
ENDBRANCH  19  22
ENDBRANCH  17  19
ENDBRANCH  15  17
ENDBRANCH   8  11
BRANCH   1  28
ATOM     28  O   UNL     1      -2.391  12.848  19.638  0.00  0.00    +0.000 OA
BRANCH  28  33
ATOM     29  C   UNL     1      -3.907  10.047  14.993  0.00  0.00    +0.000 C 
ATOM     30  N   UNL     1      -3.507  10.997  16.033  0.00  0.00    +0.000 NA
ATOM     31  C   UNL     1      -4.493  11.022  17.119  0.00  0.00    +0.000 C 
ATOM     32  C   UNL     1      -4.107  12.046  18.185  0.00  0.00    +0.000 C 
ATOM     33  C   UNL     1      -2.707  11.770  18.742  0.00  0.00    +0.000 C 
ATOM     34  C   UNL     1      -1.712  11.694  17.582  0.00  0.00    +0.000 C 
ATOM     35  C   UNL     1      -2.165  10.677  16.535  0.00  0.00    +0.000 C 
ENDBRANCH  28  33
ENDBRANCH   1  28
TORSDOF 6
ENDMDL
MODEL 3
REMARK VINA RESULT:      -8.6      2.907      4.081
REMARK  Name = 
REMARK  7 active torsions:
REMARK  status: ('A' for Active; 'I' for Inactive)
REMARK    1  A    between atoms: C_1  and  N_2
REMARK    2  A    between atoms: C_5  and  O_6
REMARK    3  A    between atoms: O_6  and  C_7
REMARK    4  A    between atoms: C_14  and  C_15
REMARK    5  A    between atoms: C_19  and  N_20
REMARK    6  A    between atoms: N_20  and  S_21
REMARK    7  A    between atoms: S_21  and  C_24
REMARK                            x       y       z     vdW  Elec       q    Type
REMARK                         _______ _______ _______ _____ _____    ______ ____
ROOT
ATOM      1  C   UNL     1      -0.045  12.445  21.176  0.00  0.00    +0.000 A 
ATOM      2  N   UNL     1      -0.840  13.135  22.026  0.00  0.00    +0.000 NA
ATOM      3  C   UNL     1      -1.372  12.424  23.018  0.00  0.00    +0.000 A 
ATOM      4  N   UNL     1      -1.164  11.124  23.243  0.00  0.00    +0.000 NA
ATOM      5  C   UNL     1      -0.372  10.483  22.369  0.00  0.00    +0.000 A 
ATOM      6  C   UNL     1      -0.144   9.132  22.557  0.00  0.00    +0.000 A 
ATOM      7  C   UNL     1       0.628   8.398  21.660  0.00  0.00    +0.000 A 
ATOM      8  C   UNL     1       1.175   9.047  20.561  0.00  0.00    +0.000 A 
ATOM      9  N   UNL     1       1.013  10.377  20.376  0.00  0.00    +0.000 NA
ATOM     10  C   UNL     1       0.238  11.080  21.260  0.00  0.00    +0.000 A 
ENDROOT
BRANCH   8  11
ATOM     11  C   UNL     1       1.892   8.331  19.499  0.00  0.00    +0.000 A 
ATOM     12  C   UNL     1       2.170   8.915  18.264  0.00  0.00    +0.000 A 
ATOM     13  N   UNL     1       2.820   8.296  17.243  0.00  0.00    +0.000 NA
ATOM     14  C   UNL     1       3.197   7.012  17.450  0.00  0.00    +0.000 A 
ATOM     15  C   UNL     1       2.946   6.326  18.629  0.00  0.00    +0.000 A 
ATOM     16  C   UNL     1       2.295   6.998  19.658  0.00  0.00    +0.000 A 
BRANCH  15  17
ATOM     17  N   UNL     1       3.306   4.968  18.826  0.00  0.00    +0.000 N 
ATOM     18  H   UNL     1       2.751   4.233  18.391  0.00  0.00    +0.000 HD
BRANCH  17  19
ATOM     19  S   UNL     1       4.925   4.576  19.044  0.00  0.00    +0.000 S 
ATOM     20  O   UNL     1       5.524   5.705  19.723  0.00  0.00    +0.000 OA
ATOM     21  O   UNL     1       5.020   3.238  19.585  0.00  0.00    +0.000 OA
BRANCH  19  22
ATOM     22  C   UNL     1       5.532   4.564  17.376  0.00  0.00    +0.000 A 
ATOM     23  C   UNL     1       4.771   3.968  16.363  0.00  0.00    +0.000 A 
ATOM     24  C   UNL     1       5.259   3.957  15.056  0.00  0.00    +0.000 A 
ATOM     25  C   UNL     1       6.491   4.544  14.763  0.00  0.00    +0.000 A 
ATOM     26  C   UNL     1       7.242   5.149  15.772  0.00  0.00    +0.000 A 
ATOM     27  C   UNL     1       6.760   5.171  17.079  0.00  0.00    +0.000 A 
ENDBRANCH  19  22
ENDBRANCH  17  19
ENDBRANCH  15  17
ENDBRANCH   8  11
BRANCH   1  28
ATOM     28  O   UNL     1       0.483  13.129  20.090  0.00  0.00    +0.000 OA
BRANCH  28  33
ATOM     29  C   UNL     1       4.632  16.932  19.901  0.00  0.00    +0.000 C 
ATOM     30  N   UNL     1       3.649  15.866  19.700  0.00  0.00    +0.000 NA
ATOM     31  C   UNL     1       3.739  14.869  20.773  0.00  0.00    +0.000 C 
ATOM     32  C   UNL     1       2.748  13.729  20.545  0.00  0.00    +0.000 C 
ATOM     33  C   UNL     1       1.314  14.252  20.423  0.00  0.00    +0.000 C 
ATOM     34  C   UNL     1       1.264  15.329  19.336  0.00  0.00    +0.000 C 
ATOM     35  C   UNL     1       2.295  16.425  19.602  0.00  0.00    +0.000 C 
ENDBRANCH  28  33
ENDBRANCH   1  28
TORSDOF 6
ENDMDL
MODEL 4
REMARK VINA RESULT:      -8.6      2.732      3.844
REMARK  Name = 
REMARK  7 active torsions:
REMARK  status: ('A' for Active; 'I' for Inactive)
REMARK    1  A    between atoms: C_1  and  N_2
REMARK    2  A    between atoms: C_5  and  O_6
REMARK    3  A    between atoms: O_6  and  C_7
REMARK    4  A    between atoms: C_14  and  C_15
REMARK    5  A    between atoms: C_19  and  N_20
REMARK    6  A    between atoms: N_20  and  S_21
REMARK    7  A    between atoms: S_21  and  C_24
REMARK                            x       y       z     vdW  Elec       q    Type
REMARK                         _______ _______ _______ _____ _____    ______ ____
ROOT
ATOM      1  C   UNL     1      -0.229  12.697  21.126  0.00  0.00    +0.000 A 
ATOM      2  N   UNL     1      -1.009  13.489  21.898  0.00  0.00    +0.000 NA
ATOM      3  C   UNL     1      -1.525  12.907  22.979  0.00  0.00    +0.000 A 
ATOM      4  N   UNL     1      -1.314  11.644  23.359  0.00  0.00    +0.000 NA
ATOM      5  C   UNL     1      -0.537  10.898  22.557  0.00  0.00    +0.000 A 
ATOM      6  C   UNL     1      -0.306   9.580  22.907  0.00  0.00    +0.000 A 
ATOM      7  C   UNL     1       0.450   8.739  22.094  0.00  0.00    +0.000 A 
ATOM      8  C   UNL     1       0.979   9.246  20.914  0.00  0.00    +0.000 A 
ATOM      9  N   UNL     1       0.814  10.544  20.570  0.00  0.00    +0.000 NA
ATOM     10  C   UNL     1       0.055  11.352  21.373  0.00  0.00    +0.000 A 
ENDROOT
BRANCH   8  11
ATOM     11  C   UNL     1       1.677   8.403  19.938  0.00  0.00    +0.000 A 
ATOM     12  C   UNL     1       1.901   8.815  18.624  0.00  0.00    +0.000 A 
ATOM     13  N   UNL     1       2.532   8.072  17.677  0.00  0.00    +0.000 NA
ATOM     14  C   UNL     1       2.946   6.837  18.046  0.00  0.00    +0.000 A 
ATOM     15  C   UNL     1       2.749   6.316  19.317  0.00  0.00    +0.000 A 
ATOM     16  C   UNL     1       2.117   7.113  20.266  0.00  0.00    +0.000 A 
BRANCH  15  17
ATOM     17  N   UNL     1       3.147   5.007  19.687  0.00  0.00    +0.000 N 
ATOM     18  H   UNL     1       2.939   4.665  20.624  0.00  0.00    +0.000 HD
BRANCH  17  19
ATOM     19  S   UNL     1       3.209   3.808  18.512  0.00  0.00    +0.000 S 
ATOM     20  O   UNL     1       3.352   2.555  19.223  0.00  0.00    +0.000 OA
ATOM     21  O   UNL     1       2.134   4.015  17.566  0.00  0.00    +0.000 OA
BRANCH  19  22
ATOM     22  C   UNL     1       4.754   4.153  17.709  0.00  0.00    +0.000 A 
ATOM     23  C   UNL     1       5.861   4.545  18.471  0.00  0.00    +0.000 A 
ATOM     24  C   UNL     1       7.070   4.822  17.831  0.00  0.00    +0.000 A 
ATOM     25  C   UNL     1       7.173   4.700  16.445  0.00  0.00    +0.000 A 
ATOM     26  C   UNL     1       6.071   4.297  15.689  0.00  0.00    +0.000 A 
ATOM     27  C   UNL     1       4.862   4.012  16.319  0.00  0.00    +0.000 A 
ENDBRANCH  19  22
ENDBRANCH  17  19
ENDBRANCH  15  17
ENDBRANCH   8  11
BRANCH   1  28
ATOM     28  O   UNL     1       0.280  13.241  19.956  0.00  0.00    +0.000 OA
BRANCH  28  33
ATOM     29  C   UNL     1       4.760  16.446  18.784  0.00  0.00    +0.000 C 
ATOM     30  N   UNL     1       3.501  15.701  18.843  0.00  0.00    +0.000 NA
ATOM     31  C   UNL     1       3.755  14.261  18.967  0.00  0.00    +0.000 C 
ATOM     32  C   UNL     1       2.447  13.474  18.981  0.00  0.00    +0.000 C 
ATOM     33  C   UNL     1       1.520  13.950  20.103  0.00  0.00    +0.000 C 
ATOM     34  C   UNL     1       1.320  15.463  19.979  0.00  0.00    +0.000 C 
ATOM     35  C   UNL     1       2.661  16.193  19.941  0.00  0.00    +0.000 C 
ENDBRANCH  28  33
ENDBRANCH   1  28
TORSDOF 6
ENDMDL
MODEL 5
REMARK VINA RESULT:      -8.6      3.045      9.694
REMARK  Name = 
REMARK  7 active torsions:
REMARK  status: ('A' for Active; 'I' for Inactive)
REMARK    1  A    between atoms: C_1  and  N_2
REMARK    2  A    between atoms: C_5  and  O_6
REMARK    3  A    between atoms: O_6  and  C_7
REMARK    4  A    between atoms: C_14  and  C_15
REMARK    5  A    between atoms: C_19  and  N_20
REMARK    6  A    between atoms: N_20  and  S_21
REMARK    7  A    between atoms: S_21  and  C_24
REMARK                            x       y       z     vdW  Elec       q    Type
REMARK                         _______ _______ _______ _____ _____    ______ ____
ROOT
ATOM      1  C   UNL     1       4.869   4.272  19.369  0.00  0.00    +0.000 A 
ATOM      2  N   UNL     1       5.226   3.045  19.816  0.00  0.00    +0.000 NA
ATOM      3  C   UNL     1       4.310   2.412  20.545  0.00  0.00    +0.000 A 
ATOM      4  N   UNL     1       3.092   2.875  20.839  0.00  0.00    +0.000 NA
ATOM      5  C   UNL     1       2.788   4.099  20.377  0.00  0.00    +0.000 A 
ATOM      6  C   UNL     1       1.541   4.621  20.672  0.00  0.00    +0.000 A 
ATOM      7  C   UNL     1       1.181   5.903  20.265  0.00  0.00    +0.000 A 
ATOM      8  C   UNL     1       2.098   6.661  19.548  0.00  0.00    +0.000 A 
ATOM      9  N   UNL     1       3.306   6.160  19.200  0.00  0.00    +0.000 NA
ATOM     10  C   UNL     1       3.649   4.902  19.622  0.00  0.00    +0.000 A 
ENDROOT
BRANCH   8  11
ATOM     11  C   UNL     1       1.855   8.062  19.190  0.00  0.00    +0.000 A 
ATOM     12  C   UNL     1       2.417   8.650  18.057  0.00  0.00    +0.000 A 
ATOM     13  N   UNL     1       2.233   9.944  17.684  0.00  0.00    +0.000 NA
ATOM     14  C   UNL     1       1.466  10.710  18.496  0.00  0.00    +0.000 A 
ATOM     15  C   UNL     1       0.883  10.236  19.662  0.00  0.00    +0.000 A 
ATOM     16  C   UNL     1       1.077   8.901  20.001  0.00  0.00    +0.000 A 
BRANCH  15  17
ATOM     17  N   UNL     1       0.114  11.051  20.530  0.00  0.00    +0.000 N 
ATOM     18  H   UNL     1       0.528  11.393  21.397  0.00  0.00    +0.000 HD
BRANCH  17  19
ATOM     19  S   UNL     1      -1.056  12.065  19.877  0.00  0.00    +0.000 S 
ATOM     20  O   UNL     1      -0.398  13.331  19.631  0.00  0.00    +0.000 OA
ATOM     21  O   UNL     1      -1.754  11.365  18.821  0.00  0.00    +0.000 OA
BRANCH  19  22
ATOM     22  C   UNL     1      -2.162  12.288  21.247  0.00  0.00    +0.000 A 
ATOM     23  C   UNL     1      -1.765  11.898  22.532  0.00  0.00    +0.000 A 
ATOM     24  C   UNL     1      -2.643  12.071  23.602  0.00  0.00    +0.000 A 
ATOM     25  C   UNL     1      -3.903  12.633  23.391  0.00  0.00    +0.000 A 
ATOM     26  C   UNL     1      -4.292  13.032  22.111  0.00  0.00    +0.000 A 
ATOM     27  C   UNL     1      -3.419  12.871  21.038  0.00  0.00    +0.000 A 
ENDBRANCH  19  22
ENDBRANCH  17  19
ENDBRANCH  15  17
ENDBRANCH   8  11
BRANCH   1  28
ATOM     28  O   UNL     1       5.814   4.998  18.657  0.00  0.00    +0.000 OA
BRANCH  28  33
ATOM     29  C   UNL     1       6.372   3.997  13.144  0.00  0.00    +0.000 C 
ATOM     30  N   UNL     1       6.097   4.488  14.494  0.00  0.00    +0.000 NA
ATOM     31  C   UNL     1       5.294   3.517  15.246  0.00  0.00    +0.000 C 
ATOM     32  C   UNL     1       4.962   4.044  16.641  0.00  0.00    +0.000 C 
ATOM     33  C   UNL     1       6.232   4.402  17.419  0.00  0.00    +0.000 C 
ATOM     34  C   UNL     1       7.074   5.372  16.585  0.00  0.00    +0.000 C 
ATOM     35  C   UNL     1       7.348   4.804  15.194  0.00  0.00    +0.000 C 
ENDBRANCH  28  33
ENDBRANCH   1  28
TORSDOF 6
ENDMDL
MODEL 6
REMARK VINA RESULT:      -8.4      2.710      9.254
REMARK  Name = 
REMARK  7 active torsions:
REMARK  status: ('A' for Active; 'I' for Inactive)
REMARK    1  A    between atoms: C_1  and  N_2
REMARK    2  A    between atoms: C_5  and  O_6
REMARK    3  A    between atoms: O_6  and  C_7
REMARK    4  A    between atoms: C_14  and  C_15
REMARK    5  A    between atoms: C_19  and  N_20
REMARK    6  A    between atoms: N_20  and  S_21
REMARK    7  A    between atoms: S_21  and  C_24
REMARK                            x       y       z     vdW  Elec       q    Type
REMARK                         _______ _______ _______ _____ _____    ______ ____
ROOT
ATOM      1  C   UNL     1       4.791   4.704  19.342  0.00  0.00    +0.000 A 
ATOM      2  N   UNL     1       5.236   3.426  19.304  0.00  0.00    +0.000 NA
ATOM      3  C   UNL     1       4.367   2.504  19.713  0.00  0.00    +0.000 A 
ATOM      4  N   UNL     1       3.117   2.739  20.122  0.00  0.00    +0.000 NA
ATOM      5  C   UNL     1       2.725   4.023  20.146  0.00  0.00    +0.000 A 
ATOM      6  C   UNL     1       1.442   4.310  20.579  0.00  0.00    +0.000 A 
ATOM      7  C   UNL     1       0.991   5.624  20.674  0.00  0.00    +0.000 A 
ATOM      8  C   UNL     1       1.851   6.655  20.324  0.00  0.00    +0.000 A 
ATOM      9  N   UNL     1       3.093   6.406  19.850  0.00  0.00    +0.000 NA
ATOM     10  C   UNL     1       3.527   5.108  19.777  0.00  0.00    +0.000 A 
ENDROOT
BRANCH   8  11
ATOM     11  C   UNL     1       1.506   8.068  20.514  0.00  0.00    +0.000 A 
ATOM     12  C   UNL     1       1.519   8.677  21.769  0.00  0.00    +0.000 A 
ATOM     13  N   UNL     1       1.198   9.976  22.003  0.00  0.00    +0.000 NA
ATOM     14  C   UNL     1       0.819  10.714  20.932  0.00  0.00    +0.000 A 
ATOM     15  C   UNL     1       0.743  10.202  19.645  0.00  0.00    +0.000 A 
ATOM     16  C   UNL     1       1.097   8.873  19.441  0.00  0.00    +0.000 A 
BRANCH  15  17
ATOM     17  N   UNL     1       0.306  10.966  18.533  0.00  0.00    +0.000 N 
ATOM     18  H   UNL     1       0.260  10.532  17.612  0.00  0.00    +0.000 HD
BRANCH  17  19
ATOM     19  S   UNL     1      -0.816  12.194  18.775  0.00  0.00    +0.000 S 
ATOM     20  O   UNL     1      -1.168  12.146  20.179  0.00  0.00    +0.000 OA
ATOM     21  O   UNL     1      -0.325  13.411  18.166  0.00  0.00    +0.000 OA
BRANCH  19  22
ATOM     22  C   UNL     1      -2.212  11.611  17.847  0.00  0.00    +0.000 A 
ATOM     23  C   UNL     1      -3.501  11.742  18.374  0.00  0.00    +0.000 A 
ATOM     24  C   UNL     1      -4.593  11.275  17.641  0.00  0.00    +0.000 A 
ATOM     25  C   UNL     1      -4.396  10.688  16.390  0.00  0.00    +0.000 A 
ATOM     26  C   UNL     1      -3.110  10.570  15.860  0.00  0.00    +0.000 A 
ATOM     27  C   UNL     1      -2.015  11.040  16.582  0.00  0.00    +0.000 A 
ENDBRANCH  19  22
ENDBRANCH  17  19
ENDBRANCH  15  17
ENDBRANCH   8  11
BRANCH   1  28
ATOM     28  O   UNL     1       5.681   5.706  18.985  0.00  0.00    +0.000 OA
BRANCH  28  33
ATOM     29  C   UNL     1       6.525   4.147  13.640  0.00  0.00    +0.000 C 
ATOM     30  N   UNL     1       6.198   4.298  15.058  0.00  0.00    +0.000 NA
ATOM     31  C   UNL     1       7.404   4.591  15.841  0.00  0.00    +0.000 C 
ATOM     32  C   UNL     1       7.077   4.703  17.329  0.00  0.00    +0.000 C 
ATOM     33  C   UNL     1       6.004   5.764  17.586  0.00  0.00    +0.000 C 
ATOM     34  C   UNL     1       4.781   5.462  16.715  0.00  0.00    +0.000 C 
ATOM     35  C   UNL     1       5.174   5.333  15.245  0.00  0.00    +0.000 C 
ENDBRANCH  28  33
ENDBRANCH   1  28
TORSDOF 6
ENDMDL
MODEL 7
REMARK VINA RESULT:      -8.4      3.340      9.263
REMARK  Name = 
REMARK  7 active torsions:
REMARK  status: ('A' for Active; 'I' for Inactive)
REMARK    1  A    between atoms: C_1  and  N_2
REMARK    2  A    between atoms: C_5  and  O_6
REMARK    3  A    between atoms: O_6  and  C_7
REMARK    4  A    between atoms: C_14  and  C_15
REMARK    5  A    between atoms: C_19  and  N_20
REMARK    6  A    between atoms: N_20  and  S_21
REMARK    7  A    between atoms: S_21  and  C_24
REMARK                            x       y       z     vdW  Elec       q    Type
REMARK                         _______ _______ _______ _____ _____    ______ ____
ROOT
ATOM      1  C   UNL     1       4.747   4.596  19.377  0.00  0.00    +0.000 A 
ATOM      2  N   UNL     1       5.164   3.309  19.345  0.00  0.00    +0.000 NA
ATOM      3  C   UNL     1       4.272   2.408  19.751  0.00  0.00    +0.000 A 
ATOM      4  N   UNL     1       3.025   2.671  20.152  0.00  0.00    +0.000 NA
ATOM      5  C   UNL     1       2.661   3.964  20.170  0.00  0.00    +0.000 A 
ATOM      6  C   UNL     1       1.383   4.280  20.593  0.00  0.00    +0.000 A 
ATOM      7  C   UNL     1       0.959   5.604  20.682  0.00  0.00    +0.000 A 
ATOM      8  C   UNL     1       1.845   6.615  20.335  0.00  0.00    +0.000 A 
ATOM      9  N   UNL     1       3.084   6.337  19.869  0.00  0.00    +0.000 NA
ATOM     10  C   UNL     1       3.489   5.030  19.803  0.00  0.00    +0.000 A 
ENDROOT
BRANCH   8  11
ATOM     11  C   UNL     1       1.530   8.036  20.518  0.00  0.00    +0.000 A 
ATOM     12  C   UNL     1       1.497   8.636  21.778  0.00  0.00    +0.000 A 
ATOM     13  N   UNL     1       1.201   9.942  22.006  0.00  0.00    +0.000 NA
ATOM     14  C   UNL     1       0.896  10.697  20.924  0.00  0.00    +0.000 A 
ATOM     15  C   UNL     1       0.870  10.196  19.630  0.00  0.00    +0.000 A 
ATOM     16  C   UNL     1       1.197   8.859  19.433  0.00  0.00    +0.000 A 
BRANCH  15  17
ATOM     17  N   UNL     1       0.510  10.980  18.504  0.00  0.00    +0.000 N 
ATOM     18  H   UNL     1       0.557  10.571  17.572  0.00  0.00    +0.000 HD
BRANCH  17  19
ATOM     19  S   UNL     1      -0.662  12.171  18.678  0.00  0.00    +0.000 S 
ATOM     20  O   UNL     1      -1.444  12.146  17.460  0.00  0.00    +0.000 OA
ATOM     21  O   UNL     1      -1.289  12.034  19.974  0.00  0.00    +0.000 OA
BRANCH  19  22
ATOM     22  C   UNL     1       0.311  13.655  18.665  0.00  0.00    +0.000 A 
ATOM     23  C   UNL     1       1.690  13.580  18.432  0.00  0.00    +0.000 A 
ATOM     24  C   UNL     1       2.449  14.751  18.430  0.00  0.00    +0.000 A 
ATOM     25  C   UNL     1       1.834  15.985  18.652  0.00  0.00    +0.000 A 
ATOM     26  C   UNL     1       0.458  16.058  18.871  0.00  0.00    +0.000 A 
ATOM     27  C   UNL     1      -0.309  14.895  18.868  0.00  0.00    +0.000 A 
ENDBRANCH  19  22
ENDBRANCH  17  19
ENDBRANCH  15  17
ENDBRANCH   8  11
BRANCH   1  28
ATOM     28  O   UNL     1       5.662   5.578  19.023  0.00  0.00    +0.000 OA
BRANCH  28  33
ATOM     29  C   UNL     1       6.500   4.110  13.651  0.00  0.00    +0.000 C 
ATOM     30  N   UNL     1       6.194   4.229  15.078  0.00  0.00    +0.000 NA
ATOM     31  C   UNL     1       7.392   4.611  15.835  0.00  0.00    +0.000 C 
ATOM     32  C   UNL     1       7.092   4.692  17.330  0.00  0.00    +0.000 C 
ATOM     33  C   UNL     1       5.946   5.666  17.618  0.00  0.00    +0.000 C 
ATOM     34  C   UNL     1       4.731   5.275  16.773  0.00  0.00    +0.000 C 
ATOM     35  C   UNL     1       5.099   5.182  15.293  0.00  0.00    +0.000 C 
ENDBRANCH  28  33
ENDBRANCH   1  28
TORSDOF 6
ENDMDL
MODEL 8
REMARK VINA RESULT:      -8.3      3.030      9.730
REMARK  Name = 
REMARK  7 active torsions:
REMARK  status: ('A' for Active; 'I' for Inactive)
REMARK    1  A    between atoms: C_1  and  N_2
REMARK    2  A    between atoms: C_5  and  O_6
REMARK    3  A    between atoms: O_6  and  C_7
REMARK    4  A    between atoms: C_14  and  C_15
REMARK    5  A    between atoms: C_19  and  N_20
REMARK    6  A    between atoms: N_20  and  S_21
REMARK    7  A    between atoms: S_21  and  C_24
REMARK                            x       y       z     vdW  Elec       q    Type
REMARK                         _______ _______ _______ _____ _____    ______ ____
ROOT
ATOM      1  C   UNL     1       3.480   3.627  17.723  0.00  0.00    +0.000 A 
ATOM      2  N   UNL     1       3.879   2.365  18.003  0.00  0.00    +0.000 NA
ATOM      3  C   UNL     1       3.747   1.990  19.273  0.00  0.00    +0.000 A 
ATOM      4  N   UNL     1       3.241   2.738  20.258  0.00  0.00    +0.000 NA
ATOM      5  C   UNL     1       2.863   3.984  19.930  0.00  0.00    +0.000 A 
ATOM      6  C   UNL     1       2.348   4.797  20.924  0.00  0.00    +0.000 A 
ATOM      7  C   UNL     1       1.984   6.115  20.662  0.00  0.00    +0.000 A 
ATOM      8  C   UNL     1       2.143   6.611  19.374  0.00  0.00    +0.000 A 
ATOM      9  N   UNL     1       2.596   5.827  18.369  0.00  0.00    +0.000 NA
ATOM     10  C   UNL     1       2.964   4.537  18.649  0.00  0.00    +0.000 A 
ENDROOT
BRANCH   8  11
ATOM     11  C   UNL     1       1.907   8.019  19.037  0.00  0.00    +0.000 A 
ATOM     12  C   UNL     1       2.476   8.621  17.915  0.00  0.00    +0.000 A 
ATOM     13  N   UNL     1       2.301   9.922  17.562  0.00  0.00    +0.000 NA
ATOM     14  C   UNL     1       1.533  10.679  18.382  0.00  0.00    +0.000 A 
ATOM     15  C   UNL     1       0.943  10.189  19.538  0.00  0.00    +0.000 A 
ATOM     16  C   UNL     1       1.130   8.848  19.858  0.00  0.00    +0.000 A 
BRANCH  15  17
ATOM     17  N   UNL     1       0.174  10.995  20.416  0.00  0.00    +0.000 N 
ATOM     18  H   UNL     1       0.609  11.383  21.252  0.00  0.00    +0.000 HD
BRANCH  17  19
ATOM     19  S   UNL     1      -1.071  11.931  19.786  0.00  0.00    +0.000 S 
ATOM     20  O   UNL     1      -0.475  13.200  19.423  0.00  0.00    +0.000 OA
ATOM     21  O   UNL     1      -1.812  11.148  18.822  0.00  0.00    +0.000 OA
BRANCH  19  22
ATOM     22  C   UNL     1      -2.091  12.201  21.213  0.00  0.00    +0.000 A 
ATOM     23  C   UNL     1      -1.671  11.740  22.466  0.00  0.00    +0.000 A 
ATOM     24  C   UNL     1      -2.482  11.950  23.581  0.00  0.00    +0.000 A 
ATOM     25  C   UNL     1      -3.698  12.621  23.446  0.00  0.00    +0.000 A 
ATOM     26  C   UNL     1      -4.110  13.091  22.198  0.00  0.00    +0.000 A 
ATOM     27  C   UNL     1      -3.303  12.892  21.080  0.00  0.00    +0.000 A 
ENDBRANCH  19  22
ENDBRANCH  17  19
ENDBRANCH  15  17
ENDBRANCH   8  11
BRANCH   1  28
ATOM     28  O   UNL     1       3.656   4.085  16.425  0.00  0.00    +0.000 OA
BRANCH  28  33
ATOM     29  C   UNL     1       8.299   5.417  13.531  0.00  0.00    +0.000 C 
ATOM     30  N   UNL     1       6.985   5.298  14.163  0.00  0.00    +0.000 NA
ATOM     31  C   UNL     1       6.359   4.015  13.821  0.00  0.00    +0.000 C 
ATOM     32  C   UNL     1       4.967   3.903  14.439  0.00  0.00    +0.000 C 
ATOM     33  C   UNL     1       5.015   4.084  15.959  0.00  0.00    +0.000 C 
ATOM     34  C   UNL     1       5.721   5.403  16.284  0.00  0.00    +0.000 C 
ATOM     35  C   UNL     1       7.094   5.469  15.617  0.00  0.00    +0.000 C 
ENDBRANCH  28  33
ENDBRANCH   1  28
TORSDOF 6
ENDMDL
MODEL 9
REMARK VINA RESULT:      -8.3      2.984      9.549
REMARK  Name = 
REMARK  7 active torsions:
REMARK  status: ('A' for Active; 'I' for Inactive)
REMARK    1  A    between atoms: C_1  and  N_2
REMARK    2  A    between atoms: C_5  and  O_6
REMARK    3  A    between atoms: O_6  and  C_7
REMARK    4  A    between atoms: C_14  and  C_15
REMARK    5  A    between atoms: C_19  and  N_20
REMARK    6  A    between atoms: N_20  and  S_21
REMARK    7  A    between atoms: S_21  and  C_24
REMARK                            x       y       z     vdW  Elec       q    Type
REMARK                         _______ _______ _______ _____ _____    ______ ____
ROOT
ATOM      1  C   UNL     1       3.882   3.531  18.093  0.00  0.00    +0.000 A 
ATOM      2  N   UNL     1       4.257   2.280  18.448  0.00  0.00    +0.000 NA
ATOM      3  C   UNL     1       3.884   1.894  19.667  0.00  0.00    +0.000 A 
ATOM      4  N   UNL     1       3.166   2.619  20.528  0.00  0.00    +0.000 NA
ATOM      5  C   UNL     1       2.822   3.855  20.131  0.00  0.00    +0.000 A 
ATOM      6  C   UNL     1       2.091   4.645  21.000  0.00  0.00    +0.000 A 
ATOM      7  C   UNL     1       1.746   5.953  20.669  0.00  0.00    +0.000 A 
ATOM      8  C   UNL     1       2.145   6.461  19.441  0.00  0.00    +0.000 A 
ATOM      9  N   UNL     1       2.816   5.697  18.548  0.00  0.00    +0.000 NA
ATOM     10  C   UNL     1       3.161   4.418  18.896  0.00  0.00    +0.000 A 
ENDROOT
BRANCH   8  11
ATOM     11  C   UNL     1       1.937   7.863  19.062  0.00  0.00    +0.000 A 
ATOM     12  C   UNL     1       2.500   8.415  17.911  0.00  0.00    +0.000 A 
ATOM     13  N   UNL     1       2.349   9.708  17.519  0.00  0.00    +0.000 NA
ATOM     14  C   UNL     1       1.615  10.509  18.328  0.00  0.00    +0.000 A 
ATOM     15  C   UNL     1       1.035  10.071  19.509  0.00  0.00    +0.000 A 
ATOM     16  C   UNL     1       1.195   8.737  19.869  0.00  0.00    +0.000 A 
BRANCH  15  17
ATOM     17  N   UNL     1       0.301  10.923  20.374  0.00  0.00    +0.000 N 
ATOM     18  H   UNL     1       0.733  11.258  21.234  0.00  0.00    +0.000 HD
BRANCH  17  19
ATOM     19  S   UNL     1      -0.835  11.972  19.717  0.00  0.00    +0.000 S 
ATOM     20  O   UNL     1      -0.145  13.226  19.499  0.00  0.00    +0.000 OA
ATOM     21  O   UNL     1      -1.531  11.303  18.640  0.00  0.00    +0.000 OA
BRANCH  19  22
ATOM     22  C   UNL     1      -1.958  12.200  21.072  0.00  0.00    +0.000 A 
ATOM     23  C   UNL     1      -3.203  12.800  20.850  0.00  0.00    +0.000 A 
ATOM     24  C   UNL     1      -4.077  12.981  21.923  0.00  0.00    +0.000 A 
ATOM     25  C   UNL     1      -3.712  12.560  23.203  0.00  0.00    +0.000 A 
ATOM     26  C   UNL     1      -2.475  11.951  23.419  0.00  0.00    +0.000 A 
ATOM     27  C   UNL     1      -1.599  11.760  22.353  0.00  0.00    +0.000 A 
ENDBRANCH  19  22
ENDBRANCH  17  19
ENDBRANCH  15  17
ENDBRANCH   8  11
BRANCH   1  28
ATOM     28  O   UNL     1       4.301   4.002  16.858  0.00  0.00    +0.000 OA
BRANCH  28  33
ATOM     29  C   UNL     1       8.170   7.932  17.994  0.00  0.00    +0.000 C 
ATOM     30  N   UNL     1       7.014   7.040  17.893  0.00  0.00    +0.000 NA
ATOM     31  C   UNL     1       6.469   7.049  16.531  0.00  0.00    +0.000 C 
ATOM     32  C   UNL     1       5.234   6.157  16.430  0.00  0.00    +0.000 C 
ATOM     33  C   UNL     1       5.543   4.724  16.871  0.00  0.00    +0.000 C 
ATOM     34  C   UNL     1       6.161   4.752  18.271  0.00  0.00    +0.000 C 
ATOM     35  C   UNL     1       7.372   5.681  18.318  0.00  0.00    +0.000 C 
ENDBRANCH  28  33
ENDBRANCH   1  28
TORSDOF 6
ENDMDL
