MODEL 1
REMARK VINA RESULT:      -9.4      0.000      0.000
REMARK  Name = 
REMARK  4 active torsions:
REMARK  status: ('A' for Active; 'I' for Inactive)
REMARK    1  A    between atoms: C_2  and  C_3
REMARK    2  A    between atoms: C_3  and  N_4
REMARK    3  A    between atoms: C_9  and  O_10
REMARK    4  A    between atoms: C_13  and  C_14
REMARK                            x       y       z     vdW  Elec       q    Type
REMARK                         _______ _______ _______ _____ _____    ______ ____
ROOT
ATOM      1  N   UNL     1       5.539   3.760  12.403  0.00  0.00    +0.000 NA
ATOM      2  C   UNL     1       7.007   3.813  12.382  0.00  0.00    +0.000 C 
ATOM      3  C   UNL     1       7.496   4.963  13.262  0.00  0.00    +0.000 C 
ATOM      4  C   UNL     1       6.859   4.972  14.629  0.00  0.00    +0.000 A 
ATOM      5  N   UNL     1       7.533   5.754  15.559  0.00  0.00    +0.000 NA
ATOM      6  C   UNL     1       7.018   5.779  16.738  0.00  0.00    +0.000 A 
ATOM      7  N   UNL     1       5.883   5.085  17.109  0.00  0.00    +0.000 N 
ATOM      8  C   UNL     1       5.223   5.011  18.306  0.00  0.00    +0.000 A 
ATOM      9  C   UNL     1       4.165   4.157  18.084  0.00  0.00    +0.000 A 
ATOM     10  N   UNL     1       4.188   3.687  16.783  0.00  0.00    +0.000 NA
ATOM     11  C   UNL     1       5.216   4.286  16.210  0.00  0.00    +0.000 A 
ATOM     12  C   UNL     1       5.736   4.245  14.877  0.00  0.00    +0.000 A 
ATOM     13  C   UNL     1       5.077   3.435  13.770  0.00  0.00    +0.000 C 
ENDROOT
BRANCH   9  14
ATOM     14  C   UNL     1       3.180   3.764  19.074  0.00  0.00    +0.000 A 
ATOM     15  C   UNL     1       3.582   3.056  20.215  0.00  0.00    +0.000 A 
ATOM     16  C   UNL     1       2.651   2.695  21.196  0.00  0.00    +0.000 A 
ATOM     17  C   UNL     1       1.306   3.027  21.042  0.00  0.00    +0.000 A 
ATOM     18  C   UNL     1       0.889   3.715  19.907  0.00  0.00    +0.000 A 
ATOM     19  C   UNL     1       1.821   4.078  18.935  0.00  0.00    +0.000 A 
ATOM     20  F   UNL     1       1.369   4.730  17.853  0.00  0.00    +0.000 F 
ENDBRANCH   9  14
BRANCH   6  21
ATOM     21  O   UNL     1       7.560   6.494  17.739  0.00  0.00    +0.000 OA
ATOM     22  H   UNL     1       7.429   7.434  17.526  0.00  0.00    +0.000 HD
ENDBRANCH   6  21
BRANCH   1  23
ATOM     23  C   UNL     1       5.009   2.780  11.445  0.00  0.00    +0.000 C 
BRANCH  23  25
ATOM     24  C   UNL     1       3.281   3.869   9.978  0.00  0.00    +0.000 C 
ATOM     25  C   UNL     1       3.601   3.108  11.034  0.00  0.00    +0.000 C 
ENDBRANCH  23  25
ENDBRANCH   1  23
TORSDOF 4
ENDMDL
MODEL 2
REMARK VINA RESULT:      -9.2      0.984      1.379
REMARK  Name = 
REMARK  4 active torsions:
REMARK  status: ('A' for Active; 'I' for Inactive)
REMARK    1  A    between atoms: C_2  and  C_3
REMARK    2  A    between atoms: C_3  and  N_4
REMARK    3  A    between atoms: C_9  and  O_10
REMARK    4  A    between atoms: C_13  and  C_14
REMARK                            x       y       z     vdW  Elec       q    Type
REMARK                         _______ _______ _______ _____ _____    ______ ____
ROOT
ATOM      1  N   UNL     1       5.482   3.808  12.469  0.00  0.00    +0.000 NA
ATOM      2  C   UNL     1       6.950   3.843  12.427  0.00  0.00    +0.000 C 
ATOM      3  C   UNL     1       7.466   4.989  13.298  0.00  0.00    +0.000 C 
ATOM      4  C   UNL     1       6.848   5.009  14.673  0.00  0.00    +0.000 A 
ATOM      5  N   UNL     1       7.546   5.785  15.592  0.00  0.00    +0.000 NA
ATOM      6  C   UNL     1       7.047   5.819  16.778  0.00  0.00    +0.000 A 
ATOM      7  N   UNL     1       5.909   5.140  17.167  0.00  0.00    +0.000 N 
ATOM      8  C   UNL     1       5.265   5.077  18.373  0.00  0.00    +0.000 A 
ATOM      9  C   UNL     1       4.194   4.236  18.168  0.00  0.00    +0.000 A 
ATOM     10  N   UNL     1       4.193   3.763  16.868  0.00  0.00    +0.000 NA
ATOM     11  C   UNL     1       5.219   4.348  16.279  0.00  0.00    +0.000 A 
ATOM     12  C   UNL     1       5.720   4.297  14.938  0.00  0.00    +0.000 A 
ATOM     13  C   UNL     1       5.035   3.492  13.844  0.00  0.00    +0.000 C 
ENDROOT
BRANCH   9  14
ATOM     14  C   UNL     1       3.218   3.857  19.173  0.00  0.00    +0.000 A 
ATOM     15  C   UNL     1       1.946   4.448  19.167  0.00  0.00    +0.000 A 
ATOM     16  C   UNL     1       0.981   4.072  20.109  0.00  0.00    +0.000 A 
ATOM     17  C   UNL     1       1.280   3.112  21.075  0.00  0.00    +0.000 A 
ATOM     18  C   UNL     1       2.543   2.531  21.104  0.00  0.00    +0.000 A 
ATOM     19  C   UNL     1       3.500   2.903  20.159  0.00  0.00    +0.000 A 
ATOM     20  F   UNL     1       4.707   2.322  20.235  0.00  0.00    +0.000 F 
ENDBRANCH   9  14
BRANCH   6  21
ATOM     21  O   UNL     1       7.613   6.529  17.768  0.00  0.00    +0.000 OA
ATOM     22  H   UNL     1       7.739   5.926  18.521  0.00  0.00    +0.000 HD
ENDBRANCH   6  21
BRANCH   1  23
ATOM     23  C   UNL     1       4.926   2.833  11.521  0.00  0.00    +0.000 C 
BRANCH  23  25
ATOM     24  C   UNL     1       3.254   3.869   9.955  0.00  0.00    +0.000 C 
ATOM     25  C   UNL     1       3.537   3.208  11.086  0.00  0.00    +0.000 C 
ENDBRANCH  23  25
ENDBRANCH   1  23
TORSDOF 4
ENDMDL
MODEL 3
REMARK VINA RESULT:      -8.8      0.686      1.166
REMARK  Name = 
REMARK  4 active torsions:
REMARK  status: ('A' for Active; 'I' for Inactive)
REMARK    1  A    between atoms: C_2  and  C_3
REMARK    2  A    between atoms: C_3  and  N_4
REMARK    3  A    between atoms: C_9  and  O_10
REMARK    4  A    between atoms: C_13  and  C_14
REMARK                            x       y       z     vdW  Elec       q    Type
REMARK                         _______ _______ _______ _____ _____    ______ ____
ROOT
ATOM      1  N   UNL     1       5.699   3.660  12.438  0.00  0.00    +0.000 NA
ATOM      2  C   UNL     1       7.162   3.788  12.458  0.00  0.00    +0.000 C 
ATOM      3  C   UNL     1       7.566   4.990  13.312  0.00  0.00    +0.000 C 
ATOM      4  C   UNL     1       6.888   5.011  14.659  0.00  0.00    +0.000 A 
ATOM      5  N   UNL     1       7.493   5.856  15.581  0.00  0.00    +0.000 NA
ATOM      6  C   UNL     1       6.942   5.892  16.743  0.00  0.00    +0.000 A 
ATOM      7  N   UNL     1       5.833   5.153  17.105  0.00  0.00    +0.000 N 
ATOM      8  C   UNL     1       5.142   5.083  18.284  0.00  0.00    +0.000 A 
ATOM      9  C   UNL     1       4.136   4.169  18.061  0.00  0.00    +0.000 A 
ATOM     10  N   UNL     1       4.222   3.659  16.779  0.00  0.00    +0.000 NA
ATOM     11  C   UNL     1       5.235   4.292  16.215  0.00  0.00    +0.000 A 
ATOM     12  C   UNL     1       5.797   4.234  14.899  0.00  0.00    +0.000 A 
ATOM     13  C   UNL     1       5.213   3.356  13.802  0.00  0.00    +0.000 C 
ENDROOT
BRANCH   9  14
ATOM     14  C   UNL     1       3.143   3.757  19.036  0.00  0.00    +0.000 A 
ATOM     15  C   UNL     1       3.544   3.088  20.201  0.00  0.00    +0.000 A 
ATOM     16  C   UNL     1       2.604   2.712  21.167  0.00  0.00    +0.000 A 
ATOM     17  C   UNL     1       1.251   2.986  20.974  0.00  0.00    +0.000 A 
ATOM     18  C   UNL     1       0.836   3.634  19.815  0.00  0.00    +0.000 A 
ATOM     19  C   UNL     1       1.777   4.014  18.857  0.00  0.00    +0.000 A 
ATOM     20  F   UNL     1       1.326   4.626  17.752  0.00  0.00    +0.000 F 
ENDBRANCH   9  14
BRANCH   6  21
ATOM     21  O   UNL     1       7.417   6.666  17.734  0.00  0.00    +0.000 OA
ATOM     22  H   UNL     1       7.457   7.577  17.395  0.00  0.00    +0.000 HD
ENDBRANCH   6  21
BRANCH   1  23
ATOM     23  C   UNL     1       5.249   2.624  11.500  0.00  0.00    +0.000 C 
BRANCH  23  25
ATOM     24  C   UNL     1       6.124   0.281  11.228  0.00  0.00    +0.000 C 
ATOM     25  C   UNL     1       6.324   1.606  11.236  0.00  0.00    +0.000 C 
ENDBRANCH  23  25
ENDBRANCH   1  23
TORSDOF 4
ENDMDL
MODEL 4
REMARK VINA RESULT:      -8.8      1.190      1.791
REMARK  Name = 
REMARK  4 active torsions:
REMARK  status: ('A' for Active; 'I' for Inactive)
REMARK    1  A    between atoms: C_2  and  C_3
REMARK    2  A    between atoms: C_3  and  N_4
REMARK    3  A    between atoms: C_9  and  O_10
REMARK    4  A    between atoms: C_13  and  C_14
REMARK                            x       y       z     vdW  Elec       q    Type
REMARK                         _______ _______ _______ _____ _____    ______ ____
ROOT
ATOM      1  N   UNL     1       5.632   3.680  12.510  0.00  0.00    +0.000 NA
ATOM      2  C   UNL     1       7.097   3.787  12.494  0.00  0.00    +0.000 C 
ATOM      3  C   UNL     1       7.537   4.991  13.328  0.00  0.00    +0.000 C 
ATOM      4  C   UNL     1       6.892   5.032  14.690  0.00  0.00    +0.000 A 
ATOM      5  N   UNL     1       7.531   5.876  15.590  0.00  0.00    +0.000 NA
ATOM      6  C   UNL     1       7.007   5.930  16.765  0.00  0.00    +0.000 A 
ATOM      7  N   UNL     1       5.898   5.210  17.159  0.00  0.00    +0.000 N 
ATOM      8  C   UNL     1       5.233   5.160  18.355  0.00  0.00    +0.000 A 
ATOM      9  C   UNL     1       4.210   4.259  18.163  0.00  0.00    +0.000 A 
ATOM     10  N   UNL     1       4.258   3.737  16.884  0.00  0.00    +0.000 NA
ATOM     11  C   UNL     1       5.266   4.350  16.290  0.00  0.00    +0.000 A 
ATOM     12  C   UNL     1       5.795   4.274  14.962  0.00  0.00    +0.000 A 
ATOM     13  C   UNL     1       5.174   3.394  13.888  0.00  0.00    +0.000 C 
ENDROOT
BRANCH   9  14
ATOM     14  C   UNL     1       3.234   3.870  19.165  0.00  0.00    +0.000 A 
ATOM     15  C   UNL     1       1.948   4.428  19.139  0.00  0.00    +0.000 A 
ATOM     16  C   UNL     1       0.984   4.041  20.076  0.00  0.00    +0.000 A 
ATOM     17  C   UNL     1       1.296   3.102  21.059  0.00  0.00    +0.000 A 
ATOM     18  C   UNL     1       2.573   2.552  21.107  0.00  0.00    +0.000 A 
ATOM     19  C   UNL     1       3.530   2.936  20.166  0.00  0.00    +0.000 A 
ATOM     20  F   UNL     1       4.750   2.385  20.261  0.00  0.00    +0.000 F 
ENDBRANCH   9  14
BRANCH   6  21
ATOM     21  O   UNL     1       7.517   6.705  17.737  0.00  0.00    +0.000 OA
ATOM     22  H   UNL     1       7.047   6.484  18.559  0.00  0.00    +0.000 HD
ENDBRANCH   6  21
BRANCH   1  23
ATOM     23  C   UNL     1       5.145   2.642  11.591  0.00  0.00    +0.000 C 
BRANCH  23  25
ATOM     24  C   UNL     1       6.143   0.366  11.209  0.00  0.00    +0.000 C 
ATOM     25  C   UNL     1       6.244   1.702  11.182  0.00  0.00    +0.000 C 
ENDBRANCH  23  25
ENDBRANCH   1  23
TORSDOF 4
ENDMDL
MODEL 5
REMARK VINA RESULT:      -7.6      3.482      7.470
REMARK  Name = 
REMARK  4 active torsions:
REMARK  status: ('A' for Active; 'I' for Inactive)
REMARK    1  A    between atoms: C_2  and  C_3
REMARK    2  A    between atoms: C_3  and  N_4
REMARK    3  A    between atoms: C_9  and  O_10
REMARK    4  A    between atoms: C_13  and  C_14
REMARK                            x       y       z     vdW  Elec       q    Type
REMARK                         _______ _______ _______ _____ _____    ______ ____
ROOT
ATOM      1  N   UNL     1       1.660   8.190  18.958  0.00  0.00    +0.000 NA
ATOM      2  C   UNL     1       1.913   7.822  20.357  0.00  0.00    +0.000 C 
ATOM      3  C   UNL     1       1.834   6.304  20.516  0.00  0.00    +0.000 C 
ATOM      4  C   UNL     1       2.646   5.560  19.485  0.00  0.00    +0.000 A 
ATOM      5  N   UNL     1       2.894   4.233  19.815  0.00  0.00    +0.000 NA
ATOM      6  C   UNL     1       3.590   3.571  18.958  0.00  0.00    +0.000 A 
ATOM      7  N   UNL     1       4.091   4.098  17.785  0.00  0.00    +0.000 N 
ATOM      8  C   UNL     1       4.838   3.531  16.788  0.00  0.00    +0.000 A 
ATOM      9  C   UNL     1       5.053   4.540  15.877  0.00  0.00    +0.000 A 
ATOM     10  N   UNL     1       4.477   5.719  16.316  0.00  0.00    +0.000 NA
ATOM     11  C   UNL     1       3.878   5.416  17.453  0.00  0.00    +0.000 A 
ATOM     12  C   UNL     1       3.087   6.189  18.363  0.00  0.00    +0.000 A 
ATOM     13  C   UNL     1       2.740   7.647  18.103  0.00  0.00    +0.000 C 
ENDROOT
BRANCH   9  14
ATOM     14  C   UNL     1       5.809   4.414  14.644  0.00  0.00    +0.000 A 
ATOM     15  C   UNL     1       5.292   3.655  13.585  0.00  0.00    +0.000 A 
ATOM     16  C   UNL     1       5.991   3.548  12.377  0.00  0.00    +0.000 A 
ATOM     17  C   UNL     1       7.221   4.186  12.219  0.00  0.00    +0.000 A 
ATOM     18  C   UNL     1       7.754   4.928  13.268  0.00  0.00    +0.000 A 
ATOM     19  C   UNL     1       7.051   5.038  14.468  0.00  0.00    +0.000 A 
ATOM     20  F   UNL     1       7.611   5.755  15.454  0.00  0.00    +0.000 F 
ENDBRANCH   9  14
BRANCH   6  21
ATOM     21  O   UNL     1       3.905   2.278  19.143  0.00  0.00    +0.000 OA
ATOM     22  H   UNL     1       4.875   2.210  19.117  0.00  0.00    +0.000 HD
ENDBRANCH   6  21
BRANCH   1  23
ATOM     23  C   UNL     1       1.560   9.645  18.780  0.00  0.00    +0.000 C 
BRANCH  23  25
ATOM     24  C   UNL     1      -0.770  10.274  19.488  0.00  0.00    +0.000 C 
ATOM     25  C   UNL     1       0.143  10.078  18.527  0.00  0.00    +0.000 C 
ENDBRANCH  23  25
ENDBRANCH   1  23
TORSDOF 4
ENDMDL
MODEL 6
REMARK VINA RESULT:      -7.3      3.113      7.359
REMARK  Name = 
REMARK  4 active torsions:
REMARK  status: ('A' for Active; 'I' for Inactive)
REMARK    1  A    between atoms: C_2  and  C_3
REMARK    2  A    between atoms: C_3  and  N_4
REMARK    3  A    between atoms: C_9  and  O_10
REMARK    4  A    between atoms: C_13  and  C_14
REMARK                            x       y       z     vdW  Elec       q    Type
REMARK                         _______ _______ _______ _____ _____    ______ ____
ROOT
ATOM      1  N   UNL     1       1.787   6.909  19.615  0.00  0.00    +0.000 NA
ATOM      2  C   UNL     1       2.030   6.226  20.893  0.00  0.00    +0.000 C 
ATOM      3  C   UNL     1       1.948   4.712  20.694  0.00  0.00    +0.000 C 
ATOM      4  C   UNL     1       2.765   4.225  19.524  0.00  0.00    +0.000 A 
ATOM      5  N   UNL     1       3.009   2.857  19.539  0.00  0.00    +0.000 NA
ATOM      6  C   UNL     1       3.709   2.410  18.556  0.00  0.00    +0.000 A 
ATOM      7  N   UNL     1       4.218   3.193  17.539  0.00  0.00    +0.000 N 
ATOM      8  C   UNL     1       4.970   2.871  16.442  0.00  0.00    +0.000 A 
ATOM      9  C   UNL     1       5.192   4.063  15.791  0.00  0.00    +0.000 A 
ATOM     10  N   UNL     1       4.616   5.109  16.488  0.00  0.00    +0.000 NA
ATOM     11  C   UNL     1       4.009   4.553  17.521  0.00  0.00    +0.000 A 
ATOM     12  C   UNL     1       3.214   5.096  18.580  0.00  0.00    +0.000 A 
ATOM     13  C   UNL     1       2.871   6.576  18.664  0.00  0.00    +0.000 C 
ENDROOT
BRANCH   9  14
ATOM     14  C   UNL     1       5.955   4.224  14.567  0.00  0.00    +0.000 A 
ATOM     15  C   UNL     1       5.550   3.560  13.401  0.00  0.00    +0.000 A 
ATOM     16  C   UNL     1       6.254   3.728  12.203  0.00  0.00    +0.000 A 
ATOM     17  C   UNL     1       7.380   4.549  12.160  0.00  0.00    +0.000 A 
ATOM     18  C   UNL     1       7.804   5.201  13.313  0.00  0.00    +0.000 A 
ATOM     19  C   UNL     1       7.095   5.036  14.504  0.00  0.00    +0.000 A 
ATOM     20  F   UNL     1       7.549   5.677  15.592  0.00  0.00    +0.000 F 
ENDBRANCH   9  14
BRANCH   6  21
ATOM     21  O   UNL     1       4.021   1.108  18.437  0.00  0.00    +0.000 OA
ATOM     22  H   UNL     1       3.914   0.870  17.500  0.00  0.00    +0.000 HD
ENDBRANCH   6  21
BRANCH   1  23
ATOM     23  C   UNL     1       1.690   8.366  19.779  0.00  0.00    +0.000 C 
BRANCH  23  25
ATOM     24  C   UNL     1       0.683   9.987  18.142  0.00  0.00    +0.000 C 
ATOM     25  C   UNL     1       1.609   9.071  18.454  0.00  0.00    +0.000 C 
ENDBRANCH  23  25
ENDBRANCH   1  23
TORSDOF 4
ENDMDL
MODEL 7
REMARK VINA RESULT:      -7.2      3.987      7.620
REMARK  Name = 
REMARK  4 active torsions:
REMARK  status: ('A' for Active; 'I' for Inactive)
REMARK    1  A    between atoms: C_2  and  C_3
REMARK    2  A    between atoms: C_3  and  N_4
REMARK    3  A    between atoms: C_9  and  O_10
REMARK    4  A    between atoms: C_13  and  C_14
REMARK                            x       y       z     vdW  Elec       q    Type
REMARK                         _______ _______ _______ _____ _____    ______ ____
ROOT
ATOM      1  N   UNL     1       1.053   9.063  19.454  0.00  0.00    +0.000 NA
ATOM      2  C   UNL     1       1.189   8.824  20.897  0.00  0.00    +0.000 C 
ATOM      3  C   UNL     1       1.069   7.328  21.187  0.00  0.00    +0.000 C 
ATOM      4  C   UNL     1       1.946   6.482  20.297  0.00  0.00    +0.000 A 
ATOM      5  N   UNL     1       2.142   5.189  20.766  0.00  0.00    +0.000 NA
ATOM      6  C   UNL     1       2.890   4.442  20.032  0.00  0.00    +0.000 A 
ATOM      7  N   UNL     1       3.491   4.852  18.858  0.00  0.00    +0.000 N 
ATOM      8  C   UNL     1       4.302   4.187  17.980  0.00  0.00    +0.000 A 
ATOM      9  C   UNL     1       4.606   5.104  17.000  0.00  0.00    +0.000 A 
ATOM     10  N   UNL     1       4.020   6.325  17.282  0.00  0.00    +0.000 NA
ATOM     11  C   UNL     1       3.329   6.136  18.391  0.00  0.00    +0.000 A 
ATOM     12  C   UNL     1       2.484   6.999  19.160  0.00  0.00    +0.000 A 
ATOM     13  C   UNL     1       2.185   8.431  18.741  0.00  0.00    +0.000 C 
ENDROOT
BRANCH   9  14
ATOM     14  C   UNL     1       5.453   4.855  15.848  0.00  0.00    +0.000 A 
ATOM     15  C   UNL     1       4.958   4.113  14.766  0.00  0.00    +0.000 A 
ATOM     16  C   UNL     1       5.749   3.890  13.633  0.00  0.00    +0.000 A 
ATOM     17  C   UNL     1       7.048   4.393  13.573  0.00  0.00    +0.000 A 
ATOM     18  C   UNL     1       7.558   5.117  14.646  0.00  0.00    +0.000 A 
ATOM     19  C   UNL     1       6.765   5.343  15.771  0.00  0.00    +0.000 A 
ATOM     20  F   UNL     1       7.305   6.036  16.784  0.00  0.00    +0.000 F 
ENDBRANCH   9  14
BRANCH   6  21
ATOM     21  O   UNL     1       3.166   3.168  20.359  0.00  0.00    +0.000 OA
ATOM     22  H   UNL     1       4.134   3.073  20.359  0.00  0.00    +0.000 HD
ENDBRANCH   6  21
BRANCH   1  23
ATOM     23  C   UNL     1       0.994  10.496  19.136  0.00  0.00    +0.000 C 
BRANCH  23  25
ATOM     24  C   UNL     1      -1.185  10.040  17.965  0.00  0.00    +0.000 C 
ATOM     25  C   UNL     1      -0.345  10.887  18.576  0.00  0.00    +0.000 C 
ENDBRANCH  23  25
ENDBRANCH   1  23
TORSDOF 4
ENDMDL
MODEL 8
REMARK VINA RESULT:      -7.1      4.875      6.161
REMARK  Name = 
REMARK  4 active torsions:
REMARK  status: ('A' for Active; 'I' for Inactive)
REMARK    1  A    between atoms: C_2  and  C_3
REMARK    2  A    between atoms: C_3  and  N_4
REMARK    3  A    between atoms: C_9  and  O_10
REMARK    4  A    between atoms: C_13  and  C_14
REMARK                            x       y       z     vdW  Elec       q    Type
REMARK                         _______ _______ _______ _____ _____    ______ ____
ROOT
ATOM      1  N   UNL     1       5.555   5.320  16.179  0.00  0.00    +0.000 NA
ATOM      2  C   UNL     1       4.988   4.001  16.487  0.00  0.00    +0.000 C 
ATOM      3  C   UNL     1       4.631   3.924  17.971  0.00  0.00    +0.000 C 
ATOM      4  C   UNL     1       3.829   5.110  18.447  0.00  0.00    +0.000 A 
ATOM      5  N   UNL     1       3.185   4.903  19.661  0.00  0.00    +0.000 NA
ATOM      6  C   UNL     1       2.488   5.895  20.093  0.00  0.00    +0.000 A 
ATOM      7  N   UNL     1       2.346   7.098  19.429  0.00  0.00    +0.000 N 
ATOM      8  C   UNL     1       1.649   8.230  19.754  0.00  0.00    +0.000 A 
ATOM      9  C   UNL     1       1.864   9.101  18.709  0.00  0.00    +0.000 A 
ATOM     10  N   UNL     1       2.654   8.508  17.741  0.00  0.00    +0.000 NA
ATOM     11  C   UNL     1       2.955   7.312  18.214  0.00  0.00    +0.000 A 
ATOM     12  C   UNL     1       3.763   6.247  17.703  0.00  0.00    +0.000 A 
ATOM     13  C   UNL     1       4.526   6.361  16.391  0.00  0.00    +0.000 C 
ENDROOT
BRANCH   9  14
ATOM     14  C   UNL     1       1.315  10.440  18.603  0.00  0.00    +0.000 A 
ATOM     15  C   UNL     1       2.176  11.538  18.473  0.00  0.00    +0.000 A 
ATOM     16  C   UNL     1       1.665  12.834  18.337  0.00  0.00    +0.000 A 
ATOM     17  C   UNL     1       0.287  13.049  18.345  0.00  0.00    +0.000 A 
ATOM     18  C   UNL     1      -0.579  11.970  18.491  0.00  0.00    +0.000 A 
ATOM     19  C   UNL     1      -0.066  10.679  18.619  0.00  0.00    +0.000 A 
ATOM     20  F   UNL     1      -0.941   9.674  18.769  0.00  0.00    +0.000 F 
ENDBRANCH   9  14
BRANCH   6  21
ATOM     21  O   UNL     1       1.813   5.840  21.253  0.00  0.00    +0.000 OA
ATOM     22  H   UNL     1       1.333   4.994  21.268  0.00  0.00    +0.000 HD
ENDBRANCH   6  21
BRANCH   1  23
ATOM     23  C   UNL     1       6.069   5.392  14.804  0.00  0.00    +0.000 C 
BRANCH  23  25
ATOM     24  C   UNL     1       5.998   3.658  12.984  0.00  0.00    +0.000 C 
ATOM     25  C   UNL     1       6.320   4.025  14.232  0.00  0.00    +0.000 C 
ENDBRANCH  23  25
ENDBRANCH   1  23
TORSDOF 4
ENDMDL
MODEL 9
REMARK VINA RESULT:      -7.1      4.425      6.498
REMARK  Name = 
REMARK  4 active torsions:
REMARK  status: ('A' for Active; 'I' for Inactive)
REMARK    1  A    between atoms: C_2  and  C_3
REMARK    2  A    between atoms: C_3  and  N_4
REMARK    3  A    between atoms: C_9  and  O_10
REMARK    4  A    between atoms: C_13  and  C_14
REMARK                            x       y       z     vdW  Elec       q    Type
REMARK                         _______ _______ _______ _____ _____    ______ ____
ROOT
ATOM      1  N   UNL     1       5.788   5.685  17.581  0.00  0.00    +0.000 NA
ATOM      2  C   UNL     1       5.305   4.460  16.929  0.00  0.00    +0.000 C 
ATOM      3  C   UNL     1       4.583   3.581  17.950  0.00  0.00    +0.000 C 
ATOM      4  C   UNL     1       3.562   4.337  18.763  0.00  0.00    +0.000 A 
ATOM      5  N   UNL     1       2.650   3.521  19.420  0.00  0.00    +0.000 NA
ATOM      6  C   UNL     1       1.761   4.137  20.119  0.00  0.00    +0.000 A 
ATOM      7  N   UNL     1       1.668   5.510  20.230  0.00  0.00    +0.000 N 
ATOM      8  C   UNL     1       0.793   6.301  20.924  0.00  0.00    +0.000 A 
ATOM      9  C   UNL     1       1.179   7.594  20.651  0.00  0.00    +0.000 A 
ATOM     10  N   UNL     1       2.253   7.605  19.780  0.00  0.00    +0.000 NA
ATOM     11  C   UNL     1       2.547   6.335  19.568  0.00  0.00    +0.000 A 
ATOM     12  C   UNL     1       3.571   5.697  18.796  0.00  0.00    +0.000 A 
ATOM     13  C   UNL     1       4.633   6.485  18.044  0.00  0.00    +0.000 C 
ENDROOT
BRANCH   9  14
ATOM     14  C   UNL     1       0.536   8.790  21.164  0.00  0.00    +0.000 A 
ATOM     15  C   UNL     1       0.329   8.933  22.543  0.00  0.00    +0.000 A 
ATOM     16  C   UNL     1      -0.261  10.093  23.059  0.00  0.00    +0.000 A 
ATOM     17  C   UNL     1      -0.663  11.117  22.203  0.00  0.00    +0.000 A 
ATOM     18  C   UNL     1      -0.480  10.981  20.830  0.00  0.00    +0.000 A 
ATOM     19  C   UNL     1       0.114   9.826  20.320  0.00  0.00    +0.000 A 
ATOM     20  F   UNL     1       0.259   9.737  18.990  0.00  0.00    +0.000 F 
ENDBRANCH   9  14
BRANCH   6  21
ATOM     21  O   UNL     1       0.816   3.477  20.810  0.00  0.00    +0.000 OA
ATOM     22  H   UNL     1       0.691   3.949  21.651  0.00  0.00    +0.000 HD
ENDBRANCH   6  21
BRANCH   1  23
ATOM     23  C   UNL     1       6.633   6.489  16.686  0.00  0.00    +0.000 C 
BRANCH  23  25
ATOM     24  C   UNL     1       7.769   8.507  17.666  0.00  0.00    +0.000 C 
ATOM     25  C   UNL     1       7.732   7.187  17.437  0.00  0.00    +0.000 C 
ENDBRANCH  23  25
ENDBRANCH   1  23
TORSDOF 4
ENDMDL
