MODEL 1
REMARK VINA RESULT:      -7.0      0.000      0.000
REMARK  Name = 
REMARK  13 active torsions:
REMARK  status: ('A' for Active; 'I' for Inactive)
REMARK    1  A    between atoms: C_1  and  C_2
REMARK    2  A    between atoms: C_2  and  C_3
REMARK    3  A    between atoms: C_3  and  C_4
REMARK    4  A    between atoms: C_4  and  C_5
REMARK    5  A    between atoms: C_5  and  C_6
REMARK    6  A    between atoms: C_6  and  C_7
REMARK    7  A    between atoms: C_7  and  C_8
REMARK    8  A    between atoms: C_7  and  C_9
REMARK    9  A    between atoms: C_7  and  C_10
REMARK   10  A    between atoms: C_12  and  O_13
REMARK   11  A    between atoms: O_13  and  C_14
REMARK   12  A    between atoms: C_19  and  C_20
REMARK   13  A    between atoms: C_19  and  C_21
REMARK                            x       y       z     vdW  Elec       q    Type
REMARK                         _______ _______ _______ _____ _____    ______ ____
ROOT
ATOM      1  C   UNL     1       4.188   6.337  17.808  0.00  0.00    +0.000 A 
ATOM      2  C   UNL     1       3.842   5.749  19.041  0.00  0.00    +0.000 A 
ATOM      3  C   UNL     1       2.856   6.283  19.884  0.00  0.00    +0.000 A 
ATOM      4  C   UNL     1       2.195   7.452  19.492  0.00  0.00    +0.000 A 
ATOM      5  C   UNL     1       2.526   8.069  18.270  0.00  0.00    +0.000 A 
ATOM      6  C   UNL     1       3.506   7.512  17.442  0.00  0.00    +0.000 A 
ATOM      7  O   UNL     1       1.929   9.215  17.781  0.00  0.00    +0.000 OA
ATOM      8  C   UNL     1       0.962   9.967  18.590  0.00  0.00    +0.000 C 
ATOM      9  C   UNL     1       1.628  11.317  18.888  0.00  0.00    +0.000 C 
ATOM     10  C   UNL     1      -0.255  10.180  17.679  0.00  0.00    +0.000 C 
ATOM     11  C   UNL     1       0.566   9.288  19.850  0.00  0.00    +0.000 A 
ATOM     12  C   UNL     1      -0.345   9.545  20.885  0.00  0.00    +0.000 A 
ATOM     13  N   UNL     1      -0.307   8.600  21.834  0.00  0.00    +0.000 NA
ATOM     14  O   UNL     1       0.666   7.690  21.408  0.00  0.00    +0.000 OA
ATOM     15  C   UNL     1       1.166   8.126  20.232  0.00  0.00    +0.000 A 
ENDROOT
BRANCH   1  16
ATOM     16  C   UNL     1       5.238   5.708  16.871  0.00  0.00    +0.000 C 
ATOM     17  C   UNL     1       5.036   6.087  15.381  0.00  0.00    +0.000 C 
ATOM     18  C   UNL     1       5.123   4.166  16.937  0.00  0.00    +0.000 C 
BRANCH  16  19
ATOM     19  C   UNL     1       6.683   6.108  17.305  0.00  0.00    +0.000 C 
BRANCH  19  20
ATOM     20  C   UNL     1       6.910   7.618  17.445  0.00  0.00    +0.000 C 
BRANCH  20  21
ATOM     21  C   UNL     1       8.189   7.938  18.222  0.00  0.00    +0.000 C 
BRANCH  21  22
ATOM     22  C   UNL     1       8.545   9.416  18.056  0.00  0.00    +0.000 C 
BRANCH  22  24
ATOM     23  C   UNL     1       9.612  11.438  19.087  0.00  0.00    +0.000 C 
ATOM     24  C   UNL     1       9.179   9.998  19.316  0.00  0.00    +0.000 C 
ENDBRANCH  22  24
ENDBRANCH  21  22
ENDBRANCH  20  21
ENDBRANCH  19  20
ENDBRANCH  16  19
ENDBRANCH   1  16
BRANCH   3  25
ATOM     25  O   UNL     1       2.488   5.724  21.080  0.00  0.00    +0.000 OA
ATOM     26  C   UNL     1       2.227   4.327  21.110  0.00  0.00    +0.000 C 
ENDBRANCH   3  25
TORSDOF 7
ENDMDL
MODEL 2
REMARK VINA RESULT:      -7.0      1.960      4.073
REMARK  Name = 
REMARK  13 active torsions:
REMARK  status: ('A' for Active; 'I' for Inactive)
REMARK    1  A    between atoms: C_1  and  C_2
REMARK    2  A    between atoms: C_2  and  C_3
REMARK    3  A    between atoms: C_3  and  C_4
REMARK    4  A    between atoms: C_4  and  C_5
REMARK    5  A    between atoms: C_5  and  C_6
REMARK    6  A    between atoms: C_6  and  C_7
REMARK    7  A    between atoms: C_7  and  C_8
REMARK    8  A    between atoms: C_7  and  C_9
REMARK    9  A    between atoms: C_7  and  C_10
REMARK   10  A    between atoms: C_12  and  O_13
REMARK   11  A    between atoms: O_13  and  C_14
REMARK   12  A    between atoms: C_19  and  C_20
REMARK   13  A    between atoms: C_19  and  C_21
REMARK                            x       y       z     vdW  Elec       q    Type
REMARK                         _______ _______ _______ _____ _____    ______ ____
ROOT
ATOM      1  C   UNL     1       4.315   6.095  17.991  0.00  0.00    +0.000 A 
ATOM      2  C   UNL     1       3.903   5.520  19.210  0.00  0.00    +0.000 A 
ATOM      3  C   UNL     1       2.886   6.075  20.001  0.00  0.00    +0.000 A 
ATOM      4  C   UNL     1       2.262   7.250  19.571  0.00  0.00    +0.000 A 
ATOM      5  C   UNL     1       2.659   7.853  18.363  0.00  0.00    +0.000 A 
ATOM      6  C   UNL     1       3.669   7.276  17.586  0.00  0.00    +0.000 A 
ATOM      7  O   UNL     1       2.102   9.004  17.838  0.00  0.00    +0.000 OA
ATOM      8  C   UNL     1       1.108   9.776  18.596  0.00  0.00    +0.000 C 
ATOM      9  C   UNL     1       1.780  11.118  18.916  0.00  0.00    +0.000 C 
ATOM     10  C   UNL     1      -0.061  10.000  17.627  0.00  0.00    +0.000 C 
ATOM     11  C   UNL     1       0.644   9.111  19.840  0.00  0.00    +0.000 A 
ATOM     12  C   UNL     1      -0.311   9.388  20.829  0.00  0.00    +0.000 A 
ATOM     13  N   UNL     1      -0.332   8.450  21.784  0.00  0.00    +0.000 NA
ATOM     14  O   UNL     1       0.646   7.523  21.411  0.00  0.00    +0.000 OA
ATOM     15  C   UNL     1       1.209   7.944  20.258  0.00  0.00    +0.000 A 
ENDROOT
BRANCH   1  16
ATOM     16  C   UNL     1       5.399   5.444  17.109  0.00  0.00    +0.000 C 
ATOM     17  C   UNL     1       6.307   4.453  17.882  0.00  0.00    +0.000 C 
ATOM     18  C   UNL     1       6.341   6.545  16.562  0.00  0.00    +0.000 C 
BRANCH  16  19
ATOM     19  C   UNL     1       4.758   4.704  15.893  0.00  0.00    +0.000 C 
BRANCH  19  20
ATOM     20  C   UNL     1       5.444   4.975  14.549  0.00  0.00    +0.000 C 
BRANCH  20  21
ATOM     21  C   UNL     1       6.254   3.772  14.063  0.00  0.00    +0.000 C 
BRANCH  21  22
ATOM     22  C   UNL     1       6.260   3.729  12.534  0.00  0.00    +0.000 C 
BRANCH  22  24
ATOM     23  C   UNL     1       4.160   3.248  11.251  0.00  0.00    +0.000 C 
ATOM     24  C   UNL     1       5.343   2.639  11.988  0.00  0.00    +0.000 C 
ENDBRANCH  22  24
ENDBRANCH  21  22
ENDBRANCH  20  21
ENDBRANCH  19  20
ENDBRANCH  16  19
ENDBRANCH   1  16
BRANCH   3  25
ATOM     25  O   UNL     1       2.454   5.529  21.182  0.00  0.00    +0.000 OA
ATOM     26  C   UNL     1       2.102   4.152  21.191  0.00  0.00    +0.000 C 
ENDBRANCH   3  25
TORSDOF 7
ENDMDL
MODEL 3
REMARK VINA RESULT:      -7.0      2.465      7.210
REMARK  Name = 
REMARK  13 active torsions:
REMARK  status: ('A' for Active; 'I' for Inactive)
REMARK    1  A    between atoms: C_1  and  C_2
REMARK    2  A    between atoms: C_2  and  C_3
REMARK    3  A    between atoms: C_3  and  C_4
REMARK    4  A    between atoms: C_4  and  C_5
REMARK    5  A    between atoms: C_5  and  C_6
REMARK    6  A    between atoms: C_6  and  C_7
REMARK    7  A    between atoms: C_7  and  C_8
REMARK    8  A    between atoms: C_7  and  C_9
REMARK    9  A    between atoms: C_7  and  C_10
REMARK   10  A    between atoms: C_12  and  O_13
REMARK   11  A    between atoms: O_13  and  C_14
REMARK   12  A    between atoms: C_19  and  C_20
REMARK   13  A    between atoms: C_19  and  C_21
REMARK                            x       y       z     vdW  Elec       q    Type
REMARK                         _______ _______ _______ _____ _____    ______ ____
ROOT
ATOM      1  C   UNL     1       1.552   8.780  18.911  0.00  0.00    +0.000 A 
ATOM      2  C   UNL     1       1.357   7.717  19.816  0.00  0.00    +0.000 A 
ATOM      3  C   UNL     1       2.203   6.599  19.863  0.00  0.00    +0.000 A 
ATOM      4  C   UNL     1       3.277   6.528  18.969  0.00  0.00    +0.000 A 
ATOM      5  C   UNL     1       3.491   7.570  18.046  0.00  0.00    +0.000 A 
ATOM      6  C   UNL     1       2.640   8.679  18.026  0.00  0.00    +0.000 A 
ATOM      7  O   UNL     1       4.526   7.608  17.131  0.00  0.00    +0.000 OA
ATOM      8  C   UNL     1       5.432   6.465  16.967  0.00  0.00    +0.000 C 
ATOM      9  C   UNL     1       5.171   5.927  15.553  0.00  0.00    +0.000 C 
ATOM     10  C   UNL     1       6.848   7.050  17.045  0.00  0.00    +0.000 C 
ATOM     11  C   UNL     1       5.246   5.392  17.977  0.00  0.00    +0.000 A 
ATOM     12  C   UNL     1       5.885   4.183  18.286  0.00  0.00    +0.000 A 
ATOM     13  N   UNL     1       5.303   3.556  19.317  0.00  0.00    +0.000 NA
ATOM     14  O   UNL     1       4.242   4.382  19.698  0.00  0.00    +0.000 OA
ATOM     15  C   UNL     1       4.232   5.460  18.885  0.00  0.00    +0.000 A 
ENDROOT
BRANCH   1  16
ATOM     16  C   UNL     1       0.643  10.026  18.908  0.00  0.00    +0.000 C 
ATOM     17  C   UNL     1       1.416  11.349  18.672  0.00  0.00    +0.000 C 
ATOM     18  C   UNL     1      -0.032  10.169  20.294  0.00  0.00    +0.000 C 
BRANCH  16  19
ATOM     19  C   UNL     1      -0.479   9.894  17.832  0.00  0.00    +0.000 C 
BRANCH  19  20
ATOM     20  C   UNL     1      -1.903  10.066  18.373  0.00  0.00    +0.000 C 
BRANCH  20  21
ATOM     21  C   UNL     1      -2.606  11.282  17.766  0.00  0.00    +0.000 C 
BRANCH  21  22
ATOM     22  C   UNL     1      -2.482  11.250  16.242  0.00  0.00    +0.000 C 
BRANCH  22  24
ATOM     23  C   UNL     1      -3.070   9.959  14.174  0.00  0.00    +0.000 C 
ATOM     24  C   UNL     1      -3.471  10.279  15.606  0.00  0.00    +0.000 C 
ENDBRANCH  22  24
ENDBRANCH  21  22
ENDBRANCH  20  21
ENDBRANCH  19  20
ENDBRANCH  16  19
ENDBRANCH   1  16
BRANCH   3  25
ATOM     25  O   UNL     1       2.047   5.560  20.742  0.00  0.00    +0.000 OA
ATOM     26  C   UNL     1       1.022   4.611  20.478  0.00  0.00    +0.000 C 
ENDBRANCH   3  25
TORSDOF 7
ENDMDL
MODEL 4
REMARK VINA RESULT:      -6.9      4.219      7.755
REMARK  Name = 
REMARK  13 active torsions:
REMARK  status: ('A' for Active; 'I' for Inactive)
REMARK    1  A    between atoms: C_1  and  C_2
REMARK    2  A    between atoms: C_2  and  C_3
REMARK    3  A    between atoms: C_3  and  C_4
REMARK    4  A    between atoms: C_4  and  C_5
REMARK    5  A    between atoms: C_5  and  C_6
REMARK    6  A    between atoms: C_6  and  C_7
REMARK    7  A    between atoms: C_7  and  C_8
REMARK    8  A    between atoms: C_7  and  C_9
REMARK    9  A    between atoms: C_7  and  C_10
REMARK   10  A    between atoms: C_12  and  O_13
REMARK   11  A    between atoms: O_13  and  C_14
REMARK   12  A    between atoms: C_19  and  C_20
REMARK   13  A    between atoms: C_19  and  C_21
REMARK                            x       y       z     vdW  Elec       q    Type
REMARK                         _______ _______ _______ _____ _____    ______ ____
ROOT
ATOM      1  C   UNL     1       4.674   4.212  17.541  0.00  0.00    +0.000 A 
ATOM      2  C   UNL     1       5.797   5.048  17.700  0.00  0.00    +0.000 A 
ATOM      3  C   UNL     1       6.643   5.389  16.634  0.00  0.00    +0.000 A 
ATOM      4  C   UNL     1       6.369   4.872  15.364  0.00  0.00    +0.000 A 
ATOM      5  C   UNL     1       5.261   4.024  15.175  0.00  0.00    +0.000 A 
ATOM      6  C   UNL     1       4.426   3.707  16.252  0.00  0.00    +0.000 A 
ATOM      7  O   UNL     1       4.892   3.471  13.964  0.00  0.00    +0.000 OA
ATOM      8  C   UNL     1       5.735   3.630  12.773  0.00  0.00    +0.000 C 
ATOM      9  C   UNL     1       6.245   2.223  12.433  0.00  0.00    +0.000 C 
ATOM     10  C   UNL     1       4.790   4.120  11.666  0.00  0.00    +0.000 C 
ATOM     11  C   UNL     1       6.870   4.571  12.953  0.00  0.00    +0.000 A 
ATOM     12  C   UNL     1       7.874   5.101  12.130  0.00  0.00    +0.000 A 
ATOM     13  N   UNL     1       8.691   5.923  12.801  0.00  0.00    +0.000 NA
ATOM     14  O   UNL     1       8.207   5.933  14.113  0.00  0.00    +0.000 OA
ATOM     15  C   UNL     1       7.131   5.120  14.172  0.00  0.00    +0.000 A 
ENDROOT
BRANCH   1  16
ATOM     16  C   UNL     1       3.725   3.888  18.712  0.00  0.00    +0.000 C 
ATOM     17  C   UNL     1       4.108   2.592  19.473  0.00  0.00    +0.000 C 
ATOM     18  C   UNL     1       2.297   3.653  18.163  0.00  0.00    +0.000 C 
BRANCH  16  19
ATOM     19  C   UNL     1       3.668   5.074  19.725  0.00  0.00    +0.000 C 
BRANCH  19  20
ATOM     20  C   UNL     1       2.259   5.626  19.979  0.00  0.00    +0.000 C 
BRANCH  20  21
ATOM     21  C   UNL     1       2.155   7.114  19.640  0.00  0.00    +0.000 C 
BRANCH  21  22
ATOM     22  C   UNL     1       2.433   7.330  18.151  0.00  0.00    +0.000 C 
BRANCH  22  24
ATOM     23  C   UNL     1       1.120   9.467  18.117  0.00  0.00    +0.000 C 
ATOM     24  C   UNL     1       2.450   8.810  17.780  0.00  0.00    +0.000 C 
ENDBRANCH  22  24
ENDBRANCH  21  22
ENDBRANCH  20  21
ENDBRANCH  19  20
ENDBRANCH  16  19
ENDBRANCH   1  16
BRANCH   3  25
ATOM     25  O   UNL     1       7.732   6.213  16.757  0.00  0.00    +0.000 OA
ATOM     26  C   UNL     1       7.594   7.387  17.547  0.00  0.00    +0.000 C 
ENDBRANCH   3  25
TORSDOF 7
ENDMDL
MODEL 5
REMARK VINA RESULT:      -6.8      2.624      7.524
REMARK  Name = 
REMARK  13 active torsions:
REMARK  status: ('A' for Active; 'I' for Inactive)
REMARK    1  A    between atoms: C_1  and  C_2
REMARK    2  A    between atoms: C_2  and  C_3
REMARK    3  A    between atoms: C_3  and  C_4
REMARK    4  A    between atoms: C_4  and  C_5
REMARK    5  A    between atoms: C_5  and  C_6
REMARK    6  A    between atoms: C_6  and  C_7
REMARK    7  A    between atoms: C_7  and  C_8
REMARK    8  A    between atoms: C_7  and  C_9
REMARK    9  A    between atoms: C_7  and  C_10
REMARK   10  A    between atoms: C_12  and  O_13
REMARK   11  A    between atoms: O_13  and  C_14
REMARK   12  A    between atoms: C_19  and  C_20
REMARK   13  A    between atoms: C_19  and  C_21
REMARK                            x       y       z     vdW  Elec       q    Type
REMARK                         _______ _______ _______ _____ _____    ______ ____
ROOT
ATOM      1  C   UNL     1       1.530   8.627  18.935  0.00  0.00    +0.000 A 
ATOM      2  C   UNL     1       1.370   7.568  19.851  0.00  0.00    +0.000 A 
ATOM      3  C   UNL     1       2.246   6.474  19.902  0.00  0.00    +0.000 A 
ATOM      4  C   UNL     1       3.316   6.424  19.001  0.00  0.00    +0.000 A 
ATOM      5  C   UNL     1       3.495   7.462  18.067  0.00  0.00    +0.000 A 
ATOM      6  C   UNL     1       2.614   8.548  18.042  0.00  0.00    +0.000 A 
ATOM      7  O   UNL     1       4.522   7.520  17.144  0.00  0.00    +0.000 OA
ATOM      8  C   UNL     1       5.458   6.399  16.984  0.00  0.00    +0.000 C 
ATOM      9  C   UNL     1       5.202   5.842  15.577  0.00  0.00    +0.000 C 
ATOM     10  C   UNL     1       6.858   7.024  17.046  0.00  0.00    +0.000 C 
ATOM     11  C   UNL     1       5.308   5.332  18.006  0.00  0.00    +0.000 A 
ATOM     12  C   UNL     1       5.982   4.144  18.321  0.00  0.00    +0.000 A 
ATOM     13  N   UNL     1       5.424   3.511  19.362  0.00  0.00    +0.000 NA
ATOM     14  O   UNL     1       4.344   4.312  19.743  0.00  0.00    +0.000 OA
ATOM     15  C   UNL     1       4.299   5.381  18.920  0.00  0.00    +0.000 A 
ENDROOT
BRANCH   1  16
ATOM     16  C   UNL     1       0.588   9.848  18.927  0.00  0.00    +0.000 C 
ATOM     17  C   UNL     1       1.339  11.203  18.869  0.00  0.00    +0.000 C 
ATOM     18  C   UNL     1      -0.231   9.870  20.241  0.00  0.00    +0.000 C 
BRANCH  16  19
ATOM     19  C   UNL     1      -0.413   9.771  17.731  0.00  0.00    +0.000 C 
BRANCH  19  20
ATOM     20  C   UNL     1      -1.694  10.593  17.920  0.00  0.00    +0.000 C 
BRANCH  20  21
ATOM     21  C   UNL     1      -2.931   9.857  17.403  0.00  0.00    +0.000 C 
BRANCH  21  22
ATOM     22  C   UNL     1      -4.199  10.577  17.867  0.00  0.00    +0.000 C 
BRANCH  22  24
ATOM     23  C   UNL     1      -5.854  12.397  17.380  0.00  0.00    +0.000 C 
ATOM     24  C   UNL     1      -4.721  11.552  16.817  0.00  0.00    +0.000 C 
ENDBRANCH  22  24
ENDBRANCH  21  22
ENDBRANCH  20  21
ENDBRANCH  19  20
ENDBRANCH  16  19
ENDBRANCH   1  16
BRANCH   3  25
ATOM     25  O   UNL     1       2.125   5.439  20.792  0.00  0.00    +0.000 OA
ATOM     26  C   UNL     1       1.140   4.448  20.532  0.00  0.00    +0.000 C 
ENDBRANCH   3  25
TORSDOF 7
ENDMDL
MODEL 6
REMARK VINA RESULT:      -6.7      2.040      3.991
REMARK  Name = 
REMARK  13 active torsions:
REMARK  status: ('A' for Active; 'I' for Inactive)
REMARK    1  A    between atoms: C_1  and  C_2
REMARK    2  A    between atoms: C_2  and  C_3
REMARK    3  A    between atoms: C_3  and  C_4
REMARK    4  A    between atoms: C_4  and  C_5
REMARK    5  A    between atoms: C_5  and  C_6
REMARK    6  A    between atoms: C_6  and  C_7
REMARK    7  A    between atoms: C_7  and  C_8
REMARK    8  A    between atoms: C_7  and  C_9
REMARK    9  A    between atoms: C_7  and  C_10
REMARK   10  A    between atoms: C_12  and  O_13
REMARK   11  A    between atoms: O_13  and  C_14
REMARK   12  A    between atoms: C_19  and  C_20
REMARK   13  A    between atoms: C_19  and  C_21
REMARK                            x       y       z     vdW  Elec       q    Type
REMARK                         _______ _______ _______ _____ _____    ______ ____
ROOT
ATOM      1  C   UNL     1       3.911   6.541  17.842  0.00  0.00    +0.000 A 
ATOM      2  C   UNL     1       3.599   5.956  19.085  0.00  0.00    +0.000 A 
ATOM      3  C   UNL     1       2.657   6.509  19.966  0.00  0.00    +0.000 A 
ATOM      4  C   UNL     1       2.010   7.695  19.603  0.00  0.00    +0.000 A 
ATOM      5  C   UNL     1       2.310   8.310  18.372  0.00  0.00    +0.000 A 
ATOM      6  C   UNL     1       3.244   7.733  17.506  0.00  0.00    +0.000 A 
ATOM      7  O   UNL     1       1.721   9.471  17.910  0.00  0.00    +0.000 OA
ATOM      8  C   UNL     1       0.803  10.242  18.758  0.00  0.00    +0.000 C 
ATOM      9  C   UNL     1       1.512  11.575  19.035  0.00  0.00    +0.000 C 
ATOM     10  C   UNL     1      -0.442  10.488  17.895  0.00  0.00    +0.000 C 
ATOM     11  C   UNL     1       0.440   9.567  20.030  0.00  0.00    +0.000 A 
ATOM     12  C   UNL     1      -0.425   9.840  21.099  0.00  0.00    +0.000 A 
ATOM     13  N   UNL     1      -0.374   8.890  22.043  0.00  0.00    +0.000 NA
ATOM     14  O   UNL     1       0.560   7.960  21.577  0.00  0.00    +0.000 OA
ATOM     15  C   UNL     1       1.026   8.389  20.385  0.00  0.00    +0.000 A 
ENDROOT
BRANCH   1  16
ATOM     16  C   UNL     1       4.910   5.892  16.863  0.00  0.00    +0.000 C 
ATOM     17  C   UNL     1       6.353   5.806  17.425  0.00  0.00    +0.000 C 
ATOM     18  C   UNL     1       5.003   6.756  15.581  0.00  0.00    +0.000 C 
BRANCH  16  19
ATOM     19  C   UNL     1       4.439   4.462  16.454  0.00  0.00    +0.000 C 
BRANCH  19  20
ATOM     20  C   UNL     1       5.076   3.326  17.263  0.00  0.00    +0.000 C 
BRANCH  20  21
ATOM     21  C   UNL     1       4.087   2.695  18.245  0.00  0.00    +0.000 C 
BRANCH  21  22
ATOM     22  C   UNL     1       2.807   2.293  17.512  0.00  0.00    +0.000 C 
BRANCH  22  24
ATOM     23  C   UNL     1       1.103   4.131  17.610  0.00  0.00    +0.000 C 
ATOM     24  C   UNL     1       1.556   2.811  18.215  0.00  0.00    +0.000 C 
ENDBRANCH  22  24
ENDBRANCH  21  22
ENDBRANCH  20  21
ENDBRANCH  19  20
ENDBRANCH  16  19
ENDBRANCH   1  16
BRANCH   3  25
ATOM     25  O   UNL     1       2.322   5.953  21.173  0.00  0.00    +0.000 OA
ATOM     26  C   UNL     1       2.175   4.541  21.239  0.00  0.00    +0.000 C 
ENDBRANCH   3  25
TORSDOF 7
ENDMDL
MODEL 7
REMARK VINA RESULT:      -6.7      2.841      7.401
REMARK  Name = 
REMARK  13 active torsions:
REMARK  status: ('A' for Active; 'I' for Inactive)
REMARK    1  A    between atoms: C_1  and  C_2
REMARK    2  A    between atoms: C_2  and  C_3
REMARK    3  A    between atoms: C_3  and  C_4
REMARK    4  A    between atoms: C_4  and  C_5
REMARK    5  A    between atoms: C_5  and  C_6
REMARK    6  A    between atoms: C_6  and  C_7
REMARK    7  A    between atoms: C_7  and  C_8
REMARK    8  A    between atoms: C_7  and  C_9
REMARK    9  A    between atoms: C_7  and  C_10
REMARK   10  A    between atoms: C_12  and  O_13
REMARK   11  A    between atoms: O_13  and  C_14
REMARK   12  A    between atoms: C_19  and  C_20
REMARK   13  A    between atoms: C_19  and  C_21
REMARK                            x       y       z     vdW  Elec       q    Type
REMARK                         _______ _______ _______ _____ _____    ______ ____
ROOT
ATOM      1  C   UNL     1       1.970   8.416  18.656  0.00  0.00    +0.000 A 
ATOM      2  C   UNL     1       3.039   8.105  17.791  0.00  0.00    +0.000 A 
ATOM      3  C   UNL     1       3.590   6.818  17.703  0.00  0.00    +0.000 A 
ATOM      4  C   UNL     1       3.069   5.804  18.514  0.00  0.00    +0.000 A 
ATOM      5  C   UNL     1       2.009   6.087  19.396  0.00  0.00    +0.000 A 
ATOM      6  C   UNL     1       1.468   7.375  19.458  0.00  0.00    +0.000 A 
ATOM      7  O   UNL     1       1.411   5.160  20.228  0.00  0.00    +0.000 OA
ATOM      8  C   UNL     1       1.944   3.797  20.347  0.00  0.00    +0.000 C 
ATOM      9  C   UNL     1       2.460   3.676  21.788  0.00  0.00    +0.000 C 
ATOM     10  C   UNL     1       0.738   2.868  20.149  0.00  0.00    +0.000 C 
ATOM     11  C   UNL     1       3.021   3.479  19.376  0.00  0.00    +0.000 A 
ATOM     12  C   UNL     1       3.770   2.340  19.045  0.00  0.00    +0.000 A 
ATOM     13  N   UNL     1       4.660   2.588  18.075  0.00  0.00    +0.000 NA
ATOM     14  O   UNL     1       4.491   3.940  17.759  0.00  0.00    +0.000 OA
ATOM     15  C   UNL     1       3.516   4.440  18.547  0.00  0.00    +0.000 A 
ENDROOT
BRANCH   1  16
ATOM     16  C   UNL     1       1.341   9.823  18.702  0.00  0.00    +0.000 C 
ATOM     17  C   UNL     1       2.298  10.939  18.209  0.00  0.00    +0.000 C 
ATOM     18  C   UNL     1       0.992  10.178  20.168  0.00  0.00    +0.000 C 
BRANCH  16  19
ATOM     19  C   UNL     1       0.027   9.873  17.863  0.00  0.00    +0.000 C 
BRANCH  19  20
ATOM     20  C   UNL     1      -1.223  10.267  18.661  0.00  0.00    +0.000 C 
BRANCH  20  21
ATOM     21  C   UNL     1      -2.510  10.021  17.872  0.00  0.00    +0.000 C 
BRANCH  21  22
ATOM     22  C   UNL     1      -2.908  11.289  17.114  0.00  0.00    +0.000 C 
BRANCH  22  24
ATOM     23  C   UNL     1      -2.849  10.127  14.892  0.00  0.00    +0.000 C 
ATOM     24  C   UNL     1      -3.684  10.975  15.839  0.00  0.00    +0.000 C 
ENDBRANCH  22  24
ENDBRANCH  21  22
ENDBRANCH  20  21
ENDBRANCH  19  20
ENDBRANCH  16  19
ENDBRANCH   1  16
BRANCH   3  25
ATOM     25  O   UNL     1       4.618   6.484  16.860  0.00  0.00    +0.000 OA
ATOM     26  C   UNL     1       5.903   7.030  17.126  0.00  0.00    +0.000 C 
ENDBRANCH   3  25
TORSDOF 7
ENDMDL
MODEL 8
REMARK VINA RESULT:      -6.7      4.585      7.707
REMARK  Name = 
REMARK  13 active torsions:
REMARK  status: ('A' for Active; 'I' for Inactive)
REMARK    1  A    between atoms: C_1  and  C_2
REMARK    2  A    between atoms: C_2  and  C_3
REMARK    3  A    between atoms: C_3  and  C_4
REMARK    4  A    between atoms: C_4  and  C_5
REMARK    5  A    between atoms: C_5  and  C_6
REMARK    6  A    between atoms: C_6  and  C_7
REMARK    7  A    between atoms: C_7  and  C_8
REMARK    8  A    between atoms: C_7  and  C_9
REMARK    9  A    between atoms: C_7  and  C_10
REMARK   10  A    between atoms: C_12  and  O_13
REMARK   11  A    between atoms: O_13  and  C_14
REMARK   12  A    between atoms: C_19  and  C_20
REMARK   13  A    between atoms: C_19  and  C_21
REMARK                            x       y       z     vdW  Elec       q    Type
REMARK                         _______ _______ _______ _____ _____    ______ ____
ROOT
ATOM      1  C   UNL     1      -1.024  10.816  18.739  0.00  0.00    +0.000 A 
ATOM      2  C   UNL     1      -1.715  10.454  17.565  0.00  0.00    +0.000 A 
ATOM      3  C   UNL     1      -3.034  10.859  17.310  0.00  0.00    +0.000 A 
ATOM      4  C   UNL     1      -3.695  11.644  18.261  0.00  0.00    +0.000 A 
ATOM      5  C   UNL     1      -3.034  12.012  19.448  0.00  0.00    +0.000 A 
ATOM      6  C   UNL     1      -1.715  11.604  19.676  0.00  0.00    +0.000 A 
ATOM      7  O   UNL     1      -3.586  12.793  20.445  0.00  0.00    +0.000 OA
ATOM      8  C   UNL     1      -4.994  13.202  20.392  0.00  0.00    +0.000 C 
ATOM      9  C   UNL     1      -5.678  12.498  21.571  0.00  0.00    +0.000 C 
ATOM     10  C   UNL     1      -4.989  14.719  20.627  0.00  0.00    +0.000 C 
ATOM     11  C   UNL     1      -5.676  12.868  19.115  0.00  0.00    +0.000 A 
ATOM     12  C   UNL     1      -6.943  13.104  18.562  0.00  0.00    +0.000 A 
ATOM     13  N   UNL     1      -7.068  12.560  17.344  0.00  0.00    +0.000 NA
ATOM     14  O   UNL     1      -5.840  11.943  17.088  0.00  0.00    +0.000 OA
ATOM     15  C   UNL     1      -5.038  12.140  18.156  0.00  0.00    +0.000 A 
ENDROOT
BRANCH   1  16
ATOM     16  C   UNL     1       0.443  10.405  18.980  0.00  0.00    +0.000 C 
ATOM     17  C   UNL     1       0.683   9.781  20.379  0.00  0.00    +0.000 C 
ATOM     18  C   UNL     1       1.343  11.663  18.915  0.00  0.00    +0.000 C 
BRANCH  16  19
ATOM     19  C   UNL     1       0.928   9.403  17.887  0.00  0.00    +0.000 C 
BRANCH  19  20
ATOM     20  C   UNL     1       2.370   8.914  18.067  0.00  0.00    +0.000 C 
BRANCH  20  21
ATOM     21  C   UNL     1       2.485   7.395  17.920  0.00  0.00    +0.000 C 
BRANCH  21  22
ATOM     22  C   UNL     1       2.694   6.752  19.293  0.00  0.00    +0.000 C 
BRANCH  22  24
ATOM     23  C   UNL     1       1.957   4.723  18.016  0.00  0.00    +0.000 C 
ATOM     24  C   UNL     1       2.041   5.377  19.387  0.00  0.00    +0.000 C 
ENDBRANCH  22  24
ENDBRANCH  21  22
ENDBRANCH  20  21
ENDBRANCH  19  20
ENDBRANCH  16  19
ENDBRANCH   1  16
BRANCH   3  25
ATOM     25  O   UNL     1      -3.724  10.537  16.171  0.00  0.00    +0.000 OA
ATOM     26  C   UNL     1      -3.016   9.887  15.123  0.00  0.00    +0.000 C 
ENDBRANCH   3  25
TORSDOF 7
ENDMDL
MODEL 9
REMARK VINA RESULT:      -6.7      3.048      7.416
REMARK  Name = 
REMARK  13 active torsions:
REMARK  status: ('A' for Active; 'I' for Inactive)
REMARK    1  A    between atoms: C_1  and  C_2
REMARK    2  A    between atoms: C_2  and  C_3
REMARK    3  A    between atoms: C_3  and  C_4
REMARK    4  A    between atoms: C_4  and  C_5
REMARK    5  A    between atoms: C_5  and  C_6
REMARK    6  A    between atoms: C_6  and  C_7
REMARK    7  A    between atoms: C_7  and  C_8
REMARK    8  A    between atoms: C_7  and  C_9
REMARK    9  A    between atoms: C_7  and  C_10
REMARK   10  A    between atoms: C_12  and  O_13
REMARK   11  A    between atoms: O_13  and  C_14
REMARK   12  A    between atoms: C_19  and  C_20
REMARK   13  A    between atoms: C_19  and  C_21
REMARK                            x       y       z     vdW  Elec       q    Type
REMARK                         _______ _______ _______ _____ _____    ______ ____
ROOT
ATOM      1  C   UNL     1       1.491   7.803  20.392  0.00  0.00    +0.000 A 
ATOM      2  C   UNL     1       2.243   8.029  19.222  0.00  0.00    +0.000 A 
ATOM      3  C   UNL     1       2.816   6.987  18.478  0.00  0.00    +0.000 A 
ATOM      4  C   UNL     1       2.645   5.670  18.920  0.00  0.00    +0.000 A 
ATOM      5  C   UNL     1       1.907   5.414  20.091  0.00  0.00    +0.000 A 
ATOM      6  C   UNL     1       1.337   6.469  20.810  0.00  0.00    +0.000 A 
ATOM      7  O   UNL     1       1.665   4.155  20.607  0.00  0.00    +0.000 OA
ATOM      8  C   UNL     1       2.291   2.964  20.019  0.00  0.00    +0.000 C 
ATOM      9  C   UNL     1       3.247   2.423  21.091  0.00  0.00    +0.000 C 
ATOM     10  C   UNL     1       1.145   1.967  19.797  0.00  0.00    +0.000 C 
ATOM     11  C   UNL     1       3.019   3.224  18.751  0.00  0.00    +0.000 A 
ATOM     12  C   UNL     1       3.690   2.441  17.801  0.00  0.00    +0.000 A 
ATOM     13  N   UNL     1       4.206   3.183  16.812  0.00  0.00    +0.000 NA
ATOM     14  O   UNL     1       3.862   4.502  17.125  0.00  0.00    +0.000 OA
ATOM     15  C   UNL     1       3.162   4.494  18.279  0.00  0.00    +0.000 A 
ENDROOT
BRANCH   1  16
ATOM     16  C   UNL     1       0.824   8.957  21.168  0.00  0.00    +0.000 C 
ATOM     17  C   UNL     1       1.579   9.339  22.468  0.00  0.00    +0.000 C 
ATOM     18  C   UNL     1      -0.594   8.521  21.612  0.00  0.00    +0.000 C 
BRANCH  16  19
ATOM     19  C   UNL     1       0.685  10.225  20.270  0.00  0.00    +0.000 C 
BRANCH  19  20
ATOM     20  C   UNL     1      -0.648  10.968  20.421  0.00  0.00    +0.000 C 
BRANCH  20  21
ATOM     21  C   UNL     1      -1.324  11.217  19.071  0.00  0.00    +0.000 C 
BRANCH  21  22
ATOM     22  C   UNL     1      -0.823  10.202  18.041  0.00  0.00    +0.000 C 
BRANCH  22  24
ATOM     23  C   UNL     1      -3.260   9.760  17.645  0.00  0.00    +0.000 C 
ATOM     24  C   UNL     1      -1.887   9.869  17.000  0.00  0.00    +0.000 C 
ENDBRANCH  22  24
ENDBRANCH  21  22
ENDBRANCH  20  21
ENDBRANCH  19  20
ENDBRANCH  16  19
ENDBRANCH   1  16
BRANCH   3  25
ATOM     25  O   UNL     1       3.538   7.176  17.329  0.00  0.00    +0.000 OA
ATOM     26  C   UNL     1       4.923   7.472  17.452  0.00  0.00    +0.000 C 
ENDBRANCH   3  25
TORSDOF 7
ENDMDL
