MODEL 1
REMARK VINA RESULT:      -7.6      0.000      0.000
REMARK  Name = 
REMARK  6 active torsions:
REMARK  status: ('A' for Active; 'I' for Inactive)
REMARK    1  A    between atoms: C_1  and  C_2
REMARK    2  A    between atoms: C_2  and  C_3
REMARK    3  A    between atoms: N_10  and  C_11
REMARK    4  A    between atoms: C_11  and  C_12
REMARK    5  A    between atoms: C_16  and  O_17
REMARK    6  A    between atoms: O_17  and  C_18
REMARK                            x       y       z     vdW  Elec       q    Type
REMARK                         _______ _______ _______ _____ _____    ______ ____
ROOT
ATOM      1  C   UNL     1       2.112   7.913  18.628  0.00  0.00    +0.000 A 
ATOM      2  C   UNL     1       1.746   7.955  19.997  0.00  0.00    +0.000 A 
ATOM      3  C   UNL     1       1.773   6.802  20.785  0.00  0.00    +0.000 A 
ATOM      4  C   UNL     1       2.162   5.623  20.178  0.00  0.00    +0.000 A 
ATOM      5  O   UNL     1       2.285   4.403  20.816  0.00  0.00    +0.000 OA
ATOM      6  C   UNL     1       2.718   3.565  19.778  0.00  0.00    +0.000 A 
ATOM      7  O   UNL     1       2.975   2.381  19.947  0.00  0.00    +0.000 OA
ATOM      8  N   UNL     1       2.806   4.253  18.587  0.00  0.00    +0.000 N 
ATOM      9  C   UNL     1       2.490   5.570  18.838  0.00  0.00    +0.000 A 
ATOM     10  C   UNL     1       2.481   6.690  18.039  0.00  0.00    +0.000 A 
ENDROOT
BRANCH   1  12
ATOM     11  C   UNL     1       1.248  10.248  18.418  0.00  0.00    +0.000 C 
ATOM     12  C   UNL     1       2.179   9.193  17.835  0.00  0.00    +0.000 C 
ENDBRANCH   1  12
BRANCH   8  13
ATOM     13  C   UNL     1       3.223   3.691  17.327  0.00  0.00    +0.000 C 
BRANCH  13  14
ATOM     14  C   UNL     1       4.621   4.116  16.942  0.00  0.00    +0.000 A 
ATOM     15  C   UNL     1       4.961   4.282  15.592  0.00  0.00    +0.000 A 
ATOM     16  C   UNL     1       6.274   4.565  15.228  0.00  0.00    +0.000 A 
ATOM     17  C   UNL     1       7.256   4.692  16.211  0.00  0.00    +0.000 A 
ATOM     18  C   UNL     1       6.927   4.574  17.564  0.00  0.00    +0.000 A 
ATOM     19  C   UNL     1       5.607   4.301  17.926  0.00  0.00    +0.000 A 
BRANCH  18  20
ATOM     20  O   UNL     1       7.982   4.720  18.422  0.00  0.00    +0.000 OA
ATOM     21  C   UNL     1       7.875   5.733  19.413  0.00  0.00    +0.000 C 
ENDBRANCH  18  20
ENDBRANCH  13  14
ENDBRANCH   8  13
TORSDOF 4
ENDMDL
MODEL 2
REMARK VINA RESULT:      -7.5      2.371      6.679
REMARK  Name = 
REMARK  6 active torsions:
REMARK  status: ('A' for Active; 'I' for Inactive)
REMARK    1  A    between atoms: C_1  and  C_2
REMARK    2  A    between atoms: C_2  and  C_3
REMARK    3  A    between atoms: N_10  and  C_11
REMARK    4  A    between atoms: C_11  and  C_12
REMARK    5  A    between atoms: C_16  and  O_17
REMARK    6  A    between atoms: O_17  and  C_18
REMARK                            x       y       z     vdW  Elec       q    Type
REMARK                         _______ _______ _______ _____ _____    ______ ____
ROOT
ATOM      1  C   UNL     1       5.791   3.526  12.473  0.00  0.00    +0.000 A 
ATOM      2  C   UNL     1       6.894   4.320  12.069  0.00  0.00    +0.000 A 
ATOM      3  C   UNL     1       7.617   5.072  12.999  0.00  0.00    +0.000 A 
ATOM      4  C   UNL     1       7.212   5.016  14.319  0.00  0.00    +0.000 A 
ATOM      5  O   UNL     1       7.836   5.661  15.370  0.00  0.00    +0.000 OA
ATOM      6  C   UNL     1       7.057   5.267  16.468  0.00  0.00    +0.000 A 
ATOM      7  O   UNL     1       7.308   5.611  17.615  0.00  0.00    +0.000 OA
ATOM      8  N   UNL     1       6.010   4.463  16.071  0.00  0.00    +0.000 N 
ATOM      9  C   UNL     1       6.120   4.269  14.712  0.00  0.00    +0.000 A 
ATOM     10  C   UNL     1       5.394   3.511  13.822  0.00  0.00    +0.000 A 
ENDROOT
BRANCH   1  12
ATOM     11  C   UNL     1       3.761   3.226  11.048  0.00  0.00    +0.000 C 
ATOM     12  C   UNL     1       5.103   2.641  11.465  0.00  0.00    +0.000 C 
ENDBRANCH   1  12
BRANCH   8  13
ATOM     13  C   UNL     1       5.023   3.885  16.948  0.00  0.00    +0.000 C 
BRANCH  13  14
ATOM     14  C   UNL     1       4.122   4.929  17.567  0.00  0.00    +0.000 A 
ATOM     15  C   UNL     1       4.126   6.243  17.080  0.00  0.00    +0.000 A 
ATOM     16  C   UNL     1       3.381   7.231  17.717  0.00  0.00    +0.000 A 
ATOM     17  C   UNL     1       2.619   6.911  18.841  0.00  0.00    +0.000 A 
ATOM     18  C   UNL     1       2.568   5.598  19.315  0.00  0.00    +0.000 A 
ATOM     19  C   UNL     1       3.308   4.607  18.667  0.00  0.00    +0.000 A 
BRANCH  18  20
ATOM     20  O   UNL     1       1.786   5.421  20.423  0.00  0.00    +0.000 OA
ATOM     21  C   UNL     1       0.981   4.251  20.468  0.00  0.00    +0.000 C 
ENDBRANCH  18  20
ENDBRANCH  13  14
ENDBRANCH   8  13
TORSDOF 4
ENDMDL
MODEL 3
REMARK VINA RESULT:      -7.5      2.032      6.378
REMARK  Name = 
REMARK  6 active torsions:
REMARK  status: ('A' for Active; 'I' for Inactive)
REMARK    1  A    between atoms: C_1  and  C_2
REMARK    2  A    between atoms: C_2  and  C_3
REMARK    3  A    between atoms: N_10  and  C_11
REMARK    4  A    between atoms: C_11  and  C_12
REMARK    5  A    between atoms: C_16  and  O_17
REMARK    6  A    between atoms: O_17  and  C_18
REMARK                            x       y       z     vdW  Elec       q    Type
REMARK                         _______ _______ _______ _____ _____    ______ ____
ROOT
ATOM      1  C   UNL     1       5.989   3.717  12.895  0.00  0.00    +0.000 A 
ATOM      2  C   UNL     1       7.114   4.573  12.791  0.00  0.00    +0.000 A 
ATOM      3  C   UNL     1       7.692   5.141  13.929  0.00  0.00    +0.000 A 
ATOM      4  C   UNL     1       7.122   4.843  15.152  0.00  0.00    +0.000 A 
ATOM      5  O   UNL     1       7.589   5.283  16.376  0.00  0.00    +0.000 OA
ATOM      6  C   UNL     1       6.685   4.692  17.272  0.00  0.00    +0.000 A 
ATOM      7  O   UNL     1       6.777   4.819  18.485  0.00  0.00    +0.000 OA
ATOM      8  N   UNL     1       5.718   3.975  16.601  0.00  0.00    +0.000 N 
ATOM      9  C   UNL     1       6.007   4.035  15.255  0.00  0.00    +0.000 A 
ATOM     10  C   UNL     1       5.421   3.453  14.154  0.00  0.00    +0.000 A 
ENDROOT
BRANCH   1  12
ATOM     11  C   UNL     1       3.997   3.388  11.422  0.00  0.00    +0.000 C 
ATOM     12  C   UNL     1       5.458   3.032  11.661  0.00  0.00    +0.000 C 
ENDBRANCH   1  12
BRANCH   8  13
ATOM     13  C   UNL     1       4.641   3.244  17.220  0.00  0.00    +0.000 C 
BRANCH  13  14
ATOM     14  C   UNL     1       3.754   4.131  18.063  0.00  0.00    +0.000 A 
ATOM     15  C   UNL     1       3.383   5.401  17.601  0.00  0.00    +0.000 A 
ATOM     16  C   UNL     1       2.659   6.262  18.420  0.00  0.00    +0.000 A 
ATOM     17  C   UNL     1       2.293   5.858  19.703  0.00  0.00    +0.000 A 
ATOM     18  C   UNL     1       2.617   4.580  20.166  0.00  0.00    +0.000 A 
ATOM     19  C   UNL     1       3.333   3.714  19.338  0.00  0.00    +0.000 A 
BRANCH  18  20
ATOM     20  O   UNL     1       2.200   4.311  21.440  0.00  0.00    +0.000 OA
ATOM     21  C   UNL     1       1.755   2.990  21.712  0.00  0.00    +0.000 C 
ENDBRANCH  18  20
ENDBRANCH  13  14
ENDBRANCH   8  13
TORSDOF 4
ENDMDL
MODEL 4
REMARK VINA RESULT:      -7.4      0.868      1.278
REMARK  Name = 
REMARK  6 active torsions:
REMARK  status: ('A' for Active; 'I' for Inactive)
REMARK    1  A    between atoms: C_1  and  C_2
REMARK    2  A    between atoms: C_2  and  C_3
REMARK    3  A    between atoms: N_10  and  C_11
REMARK    4  A    between atoms: C_11  and  C_12
REMARK    5  A    between atoms: C_16  and  O_17
REMARK    6  A    between atoms: O_17  and  C_18
REMARK                            x       y       z     vdW  Elec       q    Type
REMARK                         _______ _______ _______ _____ _____    ______ ____
ROOT
ATOM      1  C   UNL     1       2.054   6.724  19.416  0.00  0.00    +0.000 A 
ATOM      2  C   UNL     1       1.740   6.206  20.697  0.00  0.00    +0.000 A 
ATOM      3  C   UNL     1       1.905   4.849  20.985  0.00  0.00    +0.000 A 
ATOM      4  C   UNL     1       2.379   4.036  19.974  0.00  0.00    +0.000 A 
ATOM      5  O   UNL     1       2.640   2.684  20.097  0.00  0.00    +0.000 OA
ATOM      6  C   UNL     1       3.109   2.351  18.817  0.00  0.00    +0.000 A 
ATOM      7  O   UNL     1       3.483   1.225  18.521  0.00  0.00    +0.000 OA
ATOM      8  N   UNL     1       3.086   3.446  17.979  0.00  0.00    +0.000 N 
ATOM      9  C   UNL     1       2.657   4.529  18.715  0.00  0.00    +0.000 A 
ATOM     10  C   UNL     1       2.513   5.862  18.404  0.00  0.00    +0.000 A 
ENDROOT
BRANCH   1  12
ATOM     11  C   UNL     1       2.318   8.549  17.728  0.00  0.00    +0.000 C 
ATOM     12  C   UNL     1       1.970   8.210  19.172  0.00  0.00    +0.000 C 
ENDBRANCH   1  12
BRANCH   8  13
ATOM     13  C   UNL     1       3.503   3.450  16.600  0.00  0.00    +0.000 C 
BRANCH  13  14
ATOM     14  C   UNL     1       4.894   4.013  16.422  0.00  0.00    +0.000 A 
ATOM     15  C   UNL     1       5.362   4.346  15.143  0.00  0.00    +0.000 A 
ATOM     16  C   UNL     1       6.679   4.760  14.963  0.00  0.00    +0.000 A 
ATOM     17  C   UNL     1       7.535   4.853  16.060  0.00  0.00    +0.000 A 
ATOM     18  C   UNL     1       7.074   4.567  17.347  0.00  0.00    +0.000 A 
ATOM     19  C   UNL     1       5.750   4.163  17.527  0.00  0.00    +0.000 A 
BRANCH  18  20
ATOM     20  O   UNL     1       8.014   4.698  18.332  0.00  0.00    +0.000 OA
ATOM     21  C   UNL     1       7.914   5.835  19.178  0.00  0.00    +0.000 C 
ENDBRANCH  18  20
ENDBRANCH  13  14
ENDBRANCH   8  13
TORSDOF 4
ENDMDL
MODEL 5
REMARK VINA RESULT:      -7.4      1.057      2.003
REMARK  Name = 
REMARK  6 active torsions:
REMARK  status: ('A' for Active; 'I' for Inactive)
REMARK    1  A    between atoms: C_1  and  C_2
REMARK    2  A    between atoms: C_2  and  C_3
REMARK    3  A    between atoms: N_10  and  C_11
REMARK    4  A    between atoms: C_11  and  C_12
REMARK    5  A    between atoms: C_16  and  O_17
REMARK    6  A    between atoms: O_17  and  C_18
REMARK                            x       y       z     vdW  Elec       q    Type
REMARK                         _______ _______ _______ _____ _____    ______ ____
ROOT
ATOM      1  C   UNL     1       2.169   7.823  18.674  0.00  0.00    +0.000 A 
ATOM      2  C   UNL     1       1.722   7.976  20.010  0.00  0.00    +0.000 A 
ATOM      3  C   UNL     1       1.702   6.891  20.890  0.00  0.00    +0.000 A 
ATOM      4  C   UNL     1       2.128   5.668  20.406  0.00  0.00    +0.000 A 
ATOM      5  O   UNL     1       2.213   4.505  21.148  0.00  0.00    +0.000 OA
ATOM      6  C   UNL     1       2.708   3.587  20.210  0.00  0.00    +0.000 A 
ATOM      7  O   UNL     1       2.956   2.423  20.491  0.00  0.00    +0.000 OA
ATOM      8  N   UNL     1       2.868   4.177  18.974  0.00  0.00    +0.000 N 
ATOM      9  C   UNL     1       2.536   5.508  19.097  0.00  0.00    +0.000 A 
ATOM     10  C   UNL     1       2.575   6.559  18.209  0.00  0.00    +0.000 A 
ENDROOT
BRANCH   1  12
ATOM     11  C   UNL     1       1.288  10.112  18.195  0.00  0.00    +0.000 C 
ATOM     12  C   UNL     1       2.283   9.035  17.784  0.00  0.00    +0.000 C 
ENDBRANCH   1  12
BRANCH   8  13
ATOM     13  C   UNL     1       3.359   3.516  17.791  0.00  0.00    +0.000 C 
BRANCH  13  14
ATOM     14  C   UNL     1       4.767   3.938  17.440  0.00  0.00    +0.000 A 
ATOM     15  C   UNL     1       5.661   4.324  18.449  0.00  0.00    +0.000 A 
ATOM     16  C   UNL     1       6.920   4.818  18.121  0.00  0.00    +0.000 A 
ATOM     17  C   UNL     1       7.299   4.922  16.783  0.00  0.00    +0.000 A 
ATOM     18  C   UNL     1       6.439   4.502  15.766  0.00  0.00    +0.000 A 
ATOM     19  C   UNL     1       5.181   3.996  16.098  0.00  0.00    +0.000 A 
BRANCH  18  20
ATOM     20  O   UNL     1       6.932   4.659  14.500  0.00  0.00    +0.000 OA
ATOM     21  C   UNL     1       6.337   3.881  13.471  0.00  0.00    +0.000 C 
ENDBRANCH  18  20
ENDBRANCH  13  14
ENDBRANCH   8  13
TORSDOF 4
ENDMDL
MODEL 6
REMARK VINA RESULT:      -7.4      2.827      4.993
REMARK  Name = 
REMARK  6 active torsions:
REMARK  status: ('A' for Active; 'I' for Inactive)
REMARK    1  A    between atoms: C_1  and  C_2
REMARK    2  A    between atoms: C_2  and  C_3
REMARK    3  A    between atoms: N_10  and  C_11
REMARK    4  A    between atoms: C_11  and  C_12
REMARK    5  A    between atoms: C_16  and  O_17
REMARK    6  A    between atoms: O_17  and  C_18
REMARK                            x       y       z     vdW  Elec       q    Type
REMARK                         _______ _______ _______ _____ _____    ______ ____
ROOT
ATOM      1  C   UNL     1       2.591   3.637  17.885  0.00  0.00    +0.000 A 
ATOM      2  C   UNL     1       1.892   4.824  18.219  0.00  0.00    +0.000 A 
ATOM      3  C   UNL     1       2.496   6.077  18.085  0.00  0.00    +0.000 A 
ATOM      4  C   UNL     1       3.797   6.112  17.623  0.00  0.00    +0.000 A 
ATOM      5  O   UNL     1       4.529   7.261  17.392  0.00  0.00    +0.000 OA
ATOM      6  C   UNL     1       5.748   6.751  16.923  0.00  0.00    +0.000 A 
ATOM      7  O   UNL     1       6.675   7.469  16.572  0.00  0.00    +0.000 OA
ATOM      8  N   UNL     1       5.742   5.373  16.916  0.00  0.00    +0.000 N 
ATOM      9  C   UNL     1       4.493   4.957  17.326  0.00  0.00    +0.000 A 
ATOM     10  C   UNL     1       3.923   3.710  17.439  0.00  0.00    +0.000 A 
ENDROOT
BRANCH   1  12
ATOM     11  C   UNL     1       0.696   2.362  18.898  0.00  0.00    +0.000 C 
ATOM     12  C   UNL     1       1.874   2.312  17.935  0.00  0.00    +0.000 C 
ENDBRANCH   1  12
BRANCH   8  13
ATOM     13  C   UNL     1       6.834   4.535  16.490  0.00  0.00    +0.000 C 
BRANCH  13  14
ATOM     14  C   UNL     1       6.938   4.447  14.985  0.00  0.00    +0.000 A 
ATOM     15  C   UNL     1       7.847   5.260  14.293  0.00  0.00    +0.000 A 
ATOM     16  C   UNL     1       7.868   5.262  12.901  0.00  0.00    +0.000 A 
ATOM     17  C   UNL     1       6.988   4.446  12.191  0.00  0.00    +0.000 A 
ATOM     18  C   UNL     1       6.105   3.598  12.864  0.00  0.00    +0.000 A 
ATOM     19  C   UNL     1       6.094   3.589  14.260  0.00  0.00    +0.000 A 
BRANCH  18  20
ATOM     20  O   UNL     1       5.297   2.852  12.050  0.00  0.00    +0.000 OA
ATOM     21  C   UNL     1       4.112   3.471  11.570  0.00  0.00    +0.000 C 
ENDBRANCH  18  20
ENDBRANCH  13  14
ENDBRANCH   8  13
TORSDOF 4
ENDMDL
MODEL 7
REMARK VINA RESULT:      -7.4      1.736      2.584
REMARK  Name = 
REMARK  6 active torsions:
REMARK  status: ('A' for Active; 'I' for Inactive)
REMARK    1  A    between atoms: C_1  and  C_2
REMARK    2  A    between atoms: C_2  and  C_3
REMARK    3  A    between atoms: N_10  and  C_11
REMARK    4  A    between atoms: C_11  and  C_12
REMARK    5  A    between atoms: C_16  and  O_17
REMARK    6  A    between atoms: O_17  and  C_18
REMARK                            x       y       z     vdW  Elec       q    Type
REMARK                         _______ _______ _______ _____ _____    ______ ____
ROOT
ATOM      1  C   UNL     1       1.938   6.695  19.950  0.00  0.00    +0.000 A 
ATOM      2  C   UNL     1       1.231   5.778  20.767  0.00  0.00    +0.000 A 
ATOM      3  C   UNL     1       1.380   4.399  20.595  0.00  0.00    +0.000 A 
ATOM      4  C   UNL     1       2.234   3.969  19.598  0.00  0.00    +0.000 A 
ATOM      5  O   UNL     1       2.529   2.648  19.319  0.00  0.00    +0.000 OA
ATOM      6  C   UNL     1       3.439   2.762  18.257  0.00  0.00    +0.000 A 
ATOM      7  O   UNL     1       3.970   1.792  17.734  0.00  0.00    +0.000 OA
ATOM      8  N   UNL     1       3.635   4.081  17.910  0.00  0.00    +0.000 N 
ATOM      9  C   UNL     1       2.901   4.858  18.779  0.00  0.00    +0.000 A 
ATOM     10  C   UNL     1       2.782   6.221  18.930  0.00  0.00    +0.000 A 
ENDROOT
BRANCH   1  12
ATOM     11  C   UNL     1       1.100   8.432  21.539  0.00  0.00    +0.000 C 
ATOM     12  C   UNL     1       1.841   8.173  20.234  0.00  0.00    +0.000 C 
ENDBRANCH   1  12
BRANCH   8  13
ATOM     13  C   UNL     1       4.508   4.548  16.862  0.00  0.00    +0.000 C 
BRANCH  13  14
ATOM     14  C   UNL     1       5.742   5.231  17.405  0.00  0.00    +0.000 A 
ATOM     15  C   UNL     1       6.449   4.665  18.475  0.00  0.00    +0.000 A 
ATOM     16  C   UNL     1       7.519   5.345  19.048  0.00  0.00    +0.000 A 
ATOM     17  C   UNL     1       7.897   6.592  18.550  0.00  0.00    +0.000 A 
ATOM     18  C   UNL     1       7.233   7.152  17.456  0.00  0.00    +0.000 A 
ATOM     19  C   UNL     1       6.167   6.462  16.876  0.00  0.00    +0.000 A 
BRANCH  18  20
ATOM     20  O   UNL     1       7.702   8.377  17.069  0.00  0.00    +0.000 OA
ATOM     21  C   UNL     1       8.275   9.199  18.075  0.00  0.00    +0.000 C 
ENDBRANCH  18  20
ENDBRANCH  13  14
ENDBRANCH   8  13
TORSDOF 4
ENDMDL
MODEL 8
REMARK VINA RESULT:      -7.3      1.933      6.259
REMARK  Name = 
REMARK  6 active torsions:
REMARK  status: ('A' for Active; 'I' for Inactive)
REMARK    1  A    between atoms: C_1  and  C_2
REMARK    2  A    between atoms: C_2  and  C_3
REMARK    3  A    between atoms: N_10  and  C_11
REMARK    4  A    between atoms: C_11  and  C_12
REMARK    5  A    between atoms: C_16  and  O_17
REMARK    6  A    between atoms: O_17  and  C_18
REMARK                            x       y       z     vdW  Elec       q    Type
REMARK                         _______ _______ _______ _____ _____    ______ ____
ROOT
ATOM      1  C   UNL     1       5.664   4.228  14.118  0.00  0.00    +0.000 A 
ATOM      2  C   UNL     1       7.011   4.656  14.013  0.00  0.00    +0.000 A 
ATOM      3  C   UNL     1       7.733   5.042  15.145  0.00  0.00    +0.000 A 
ATOM      4  C   UNL     1       7.082   4.996  16.364  0.00  0.00    +0.000 A 
ATOM      5  O   UNL     1       7.656   5.302  17.583  0.00  0.00    +0.000 OA
ATOM      6  C   UNL     1       6.597   5.079  18.476  0.00  0.00    +0.000 A 
ATOM      7  O   UNL     1       6.713   5.214  19.687  0.00  0.00    +0.000 OA
ATOM      8  N   UNL     1       5.453   4.700  17.807  0.00  0.00    +0.000 N 
ATOM      9  C   UNL     1       5.761   4.610  16.467  0.00  0.00    +0.000 A 
ATOM     10  C   UNL     1       5.027   4.216  15.372  0.00  0.00    +0.000 A 
ENDROOT
BRANCH   1  12
ATOM     11  C   UNL     1       5.901   2.944  11.987  0.00  0.00    +0.000 C 
ATOM     12  C   UNL     1       4.949   3.713  12.894  0.00  0.00    +0.000 C 
ENDBRANCH   1  12
BRANCH   8  13
ATOM     13  C   UNL     1       4.188   4.393  18.424  0.00  0.00    +0.000 C 
BRANCH  13  14
ATOM     14  C   UNL     1       3.426   5.636  18.822  0.00  0.00    +0.000 A 
ATOM     15  C   UNL     1       2.761   5.692  20.055  0.00  0.00    +0.000 A 
ATOM     16  C   UNL     1       1.968   6.789  20.377  0.00  0.00    +0.000 A 
ATOM     17  C   UNL     1       1.841   7.844  19.473  0.00  0.00    +0.000 A 
ATOM     18  C   UNL     1       2.531   7.826  18.258  0.00  0.00    +0.000 A 
ATOM     19  C   UNL     1       3.334   6.729  17.943  0.00  0.00    +0.000 A 
BRANCH  18  20
ATOM     20  O   UNL     1       2.319   8.920  17.465  0.00  0.00    +0.000 OA
ATOM     21  C   UNL     1       1.657  10.030  18.055  0.00  0.00    +0.000 C 
ENDBRANCH  18  20
ENDBRANCH  13  14
ENDBRANCH   8  13
TORSDOF 4
ENDMDL
MODEL 9
REMARK VINA RESULT:      -7.3      2.026      5.758
REMARK  Name = 
REMARK  6 active torsions:
REMARK  status: ('A' for Active; 'I' for Inactive)
REMARK    1  A    between atoms: C_1  and  C_2
REMARK    2  A    between atoms: C_2  and  C_3
REMARK    3  A    between atoms: N_10  and  C_11
REMARK    4  A    between atoms: C_11  and  C_12
REMARK    5  A    between atoms: C_16  and  O_17
REMARK    6  A    between atoms: O_17  and  C_18
REMARK                            x       y       z     vdW  Elec       q    Type
REMARK                         _______ _______ _______ _____ _____    ______ ____
ROOT
ATOM      1  C   UNL     1       6.782   5.657  17.987  0.00  0.00    +0.000 A 
ATOM      2  C   UNL     1       6.912   4.846  16.831  0.00  0.00    +0.000 A 
ATOM      3  C   UNL     1       5.832   4.102  16.350  0.00  0.00    +0.000 A 
ATOM      4  C   UNL     1       4.641   4.183  17.046  0.00  0.00    +0.000 A 
ATOM      5  O   UNL     1       3.466   3.549  16.688  0.00  0.00    +0.000 OA
ATOM      6  C   UNL     1       2.581   3.967  17.692  0.00  0.00    +0.000 A 
ATOM      7  O   UNL     1       1.403   3.639  17.716  0.00  0.00    +0.000 OA
ATOM      8  N   UNL     1       3.218   4.774  18.611  0.00  0.00    +0.000 N 
ATOM      9  C   UNL     1       4.518   4.946  18.190  0.00  0.00    +0.000 A 
ATOM     10  C   UNL     1       5.561   5.696  18.683  0.00  0.00    +0.000 A 
ENDROOT
BRANCH   1  12
ATOM     11  C   UNL     1       7.837   7.912  17.779  0.00  0.00    +0.000 C 
ATOM     12  C   UNL     1       7.933   6.532  18.415  0.00  0.00    +0.000 C 
ENDBRANCH   1  12
BRANCH   8  13
ATOM     13  C   UNL     1       2.598   5.375  19.765  0.00  0.00    +0.000 C 
BRANCH  13  14
ATOM     14  C   UNL     1       2.114   6.780  19.491  0.00  0.00    +0.000 A 
ATOM     15  C   UNL     1       2.221   7.325  18.204  0.00  0.00    +0.000 A 
ATOM     16  C   UNL     1       1.879   8.654  17.973  0.00  0.00    +0.000 A 
ATOM     17  C   UNL     1       1.418   9.446  19.025  0.00  0.00    +0.000 A 
ATOM     18  C   UNL     1       1.263   8.908  20.305  0.00  0.00    +0.000 A 
ATOM     19  C   UNL     1       1.596   7.572  20.532  0.00  0.00    +0.000 A 
BRANCH  18  20
ATOM     20  O   UNL     1       0.804   9.791  21.243  0.00  0.00    +0.000 OA
ATOM     21  C   UNL     1      -0.118   9.295  22.204  0.00  0.00    +0.000 C 
ENDBRANCH  18  20
ENDBRANCH  13  14
ENDBRANCH   8  13
TORSDOF 4
ENDMDL
