MODEL 1
REMARK VINA RESULT:      -8.6      0.000      0.000
REMARK  Name = 
REMARK  7 active torsions:
REMARK  status: ('A' for Active; 'I' for Inactive)
REMARK    1  A    between atoms: C_1  and  O_2
REMARK    2  A    between atoms: O_2  and  C_3
REMARK    3  A    between atoms: C_5  and  S_6
REMARK    4  A    between atoms: S_6  and  C_9
REMARK    5  A    between atoms: C_12  and  C_13
REMARK    6  A    between atoms: C_13  and  C_14
REMARK    7  A    between atoms: C_13  and  O_15
REMARK                            x       y       z     vdW  Elec       q    Type
REMARK                         _______ _______ _______ _____ _____    ______ ____
ROOT
ATOM      1  C   UNL     1       6.728   5.557  17.511  0.00  0.00    +0.000 A 
ATOM      2  C   UNL     1       5.680   5.091  18.322  0.00  0.00    +0.000 A 
ATOM      3  C   UNL     1       4.656   4.296  17.787  0.00  0.00    +0.000 A 
ATOM      4  C   UNL     1       4.639   3.914  16.441  0.00  0.00    +0.000 A 
ATOM      5  C   UNL     1       5.670   4.376  15.612  0.00  0.00    +0.000 A 
ATOM      6  C   UNL     1       5.988   4.218  14.243  0.00  0.00    +0.000 A 
ATOM      7  C   UNL     1       7.156   4.916  14.051  0.00  0.00    +0.000 A 
ATOM      8  O   UNL     1       7.588   5.511  15.187  0.00  0.00    +0.000 OA
ATOM      9  C   UNL     1       6.676   5.179  16.160  0.00  0.00    +0.000 A 
ATOM     10  C   UNL     1       7.887   5.041  12.773  0.00  0.00    +0.000 C 
ATOM     11  C   UNL     1       7.316   3.964  11.811  0.00  0.00    +0.000 C 
ATOM     12  N   UNL     1       5.837   3.882  11.844  0.00  0.00    +0.000 NA
ATOM     13  C   UNL     1       5.324   3.450  13.160  0.00  0.00    +0.000 C 
ATOM     14  H   UNL     1       5.520   3.215  11.143  0.00  0.00    +0.000 HD
ENDROOT
BRANCH   3  15
ATOM     15  S   UNL     1       3.321   3.742  18.832  0.00  0.00    +0.000 S 
ATOM     16  O   UNL     1       2.344   3.098  17.970  0.00  0.00    +0.000 OA
ATOM     17  O   UNL     1       3.905   3.021  19.947  0.00  0.00    +0.000 OA
BRANCH  15  18
ATOM     18  C   UNL     1       2.583   5.227  19.467  0.00  0.00    +0.000 A 
ATOM     19  C   UNL     1       2.732   6.430  18.773  0.00  0.00    +0.000 A 
ATOM     20  C   UNL     1       2.237   7.609  19.330  0.00  0.00    +0.000 A 
ATOM     21  C   UNL     1       1.574   7.601  20.572  0.00  0.00    +0.000 A 
ATOM     22  C   UNL     1       1.399   6.370  21.227  0.00  0.00    +0.000 A 
ATOM     23  C   UNL     1       1.892   5.185  20.675  0.00  0.00    +0.000 A 
BRANCH  21  24
ATOM     24  C   UNL     1       1.138   8.915  21.202  0.00  0.00    +0.000 C 
ATOM     25  C   UNL     1      -0.348   8.970  21.542  0.00  0.00    +0.000 C 
BRANCH  24  26
ATOM     26  O   UNL     1       1.875   9.194  22.392  0.00  0.00    +0.000 OA
ATOM     27  H   UNL     1       1.232   9.453  23.073  0.00  0.00    +0.000 HD
ENDBRANCH  24  26
ENDBRANCH  21  24
ENDBRANCH  15  18
ENDBRANCH   3  15
BRANCH   1  29
ATOM     28  C   UNL     1       7.594   7.762  17.635  0.00  0.00    +0.000 C 
ATOM     29  O   UNL     1       7.741   6.376  17.930  0.00  0.00    +0.000 OA
ENDBRANCH   1  29
TORSDOF 5
ENDMDL
MODEL 2
REMARK VINA RESULT:      -8.5      1.208      1.604
REMARK  Name = 
REMARK  7 active torsions:
REMARK  status: ('A' for Active; 'I' for Inactive)
REMARK    1  A    between atoms: C_1  and  O_2
REMARK    2  A    between atoms: O_2  and  C_3
REMARK    3  A    between atoms: C_5  and  S_6
REMARK    4  A    between atoms: S_6  and  C_9
REMARK    5  A    between atoms: C_12  and  C_13
REMARK    6  A    between atoms: C_13  and  C_14
REMARK    7  A    between atoms: C_13  and  O_15
REMARK                            x       y       z     vdW  Elec       q    Type
REMARK                         _______ _______ _______ _____ _____    ______ ____
ROOT
ATOM      1  C   UNL     1       6.727   5.976  17.285  0.00  0.00    +0.000 A 
ATOM      2  C   UNL     1       5.631   5.796  18.145  0.00  0.00    +0.000 A 
ATOM      3  C   UNL     1       4.492   5.098  17.721  0.00  0.00    +0.000 A 
ATOM      4  C   UNL     1       4.398   4.536  16.443  0.00  0.00    +0.000 A 
ATOM      5  C   UNL     1       5.476   4.712  15.565  0.00  0.00    +0.000 A 
ATOM      6  C   UNL     1       5.748   4.314  14.236  0.00  0.00    +0.000 A 
ATOM      7  C   UNL     1       7.006   4.792  13.956  0.00  0.00    +0.000 A 
ATOM      8  O   UNL     1       7.539   5.470  14.999  0.00  0.00    +0.000 OA
ATOM      9  C   UNL     1       6.600   5.422  16.001  0.00  0.00    +0.000 A 
ATOM     10  C   UNL     1       7.730   4.620  12.680  0.00  0.00    +0.000 C 
ATOM     11  C   UNL     1       6.989   3.517  11.877  0.00  0.00    +0.000 C 
ATOM     12  N   UNL     1       5.515   3.667  11.908  0.00  0.00    +0.000 NA
ATOM     13  C   UNL     1       4.961   3.510  13.268  0.00  0.00    +0.000 C 
ATOM     14  H   UNL     1       5.092   2.964  11.307  0.00  0.00    +0.000 HD
ENDROOT
BRANCH   3  15
ATOM     15  S   UNL     1       3.102   4.908  18.823  0.00  0.00    +0.000 S 
ATOM     16  O   UNL     1       2.084   4.163  18.101  0.00  0.00    +0.000 OA
ATOM     17  O   UNL     1       3.609   4.420  20.091  0.00  0.00    +0.000 OA
BRANCH  15  18
ATOM     18  C   UNL     1       2.485   6.554  19.078  0.00  0.00    +0.000 A 
ATOM     19  C   UNL     1       1.997   6.928  20.332  0.00  0.00    +0.000 A 
ATOM     20  C   UNL     1       1.421   8.188  20.495  0.00  0.00    +0.000 A 
ATOM     21  C   UNL     1       1.341   9.094  19.421  0.00  0.00    +0.000 A 
ATOM     22  C   UNL     1       1.879   8.706  18.181  0.00  0.00    +0.000 A 
ATOM     23  C   UNL     1       2.458   7.447  18.010  0.00  0.00    +0.000 A 
BRANCH  21  24
ATOM     24  C   UNL     1       0.614  10.417  19.603  0.00  0.00    +0.000 C 
ATOM     25  C   UNL     1      -0.606  10.577  18.701  0.00  0.00    +0.000 C 
BRANCH  24  26
ATOM     26  O   UNL     1       0.192  10.601  20.954  0.00  0.00    +0.000 OA
ATOM     27  H   UNL     1       0.951  10.961  21.444  0.00  0.00    +0.000 HD
ENDBRANCH  24  26
ENDBRANCH  21  24
ENDBRANCH  15  18
ENDBRANCH   3  15
BRANCH   1  29
ATOM     28  C   UNL     1       7.745   8.102  17.554  0.00  0.00    +0.000 C 
ATOM     29  O   UNL     1       7.859   6.682  17.591  0.00  0.00    +0.000 OA
ENDBRANCH   1  29
TORSDOF 5
ENDMDL
MODEL 3
REMARK VINA RESULT:      -8.4      1.469      1.637
REMARK  Name = 
REMARK  7 active torsions:
REMARK  status: ('A' for Active; 'I' for Inactive)
REMARK    1  A    between atoms: C_1  and  O_2
REMARK    2  A    between atoms: O_2  and  C_3
REMARK    3  A    between atoms: C_5  and  S_6
REMARK    4  A    between atoms: S_6  and  C_9
REMARK    5  A    between atoms: C_12  and  C_13
REMARK    6  A    between atoms: C_13  and  C_14
REMARK    7  A    between atoms: C_13  and  O_15
REMARK                            x       y       z     vdW  Elec       q    Type
REMARK                         _______ _______ _______ _____ _____    ______ ____
ROOT
ATOM      1  C   UNL     1       6.794   6.088  17.366  0.00  0.00    +0.000 A 
ATOM      2  C   UNL     1       5.708   5.925  18.242  0.00  0.00    +0.000 A 
ATOM      3  C   UNL     1       4.557   5.233  17.840  0.00  0.00    +0.000 A 
ATOM      4  C   UNL     1       4.441   4.661  16.569  0.00  0.00    +0.000 A 
ATOM      5  C   UNL     1       5.509   4.819  15.675  0.00  0.00    +0.000 A 
ATOM      6  C   UNL     1       5.759   4.408  14.345  0.00  0.00    +0.000 A 
ATOM      7  C   UNL     1       7.017   4.872  14.044  0.00  0.00    +0.000 A 
ATOM      8  O   UNL     1       7.570   5.554  15.073  0.00  0.00    +0.000 OA
ATOM      9  C   UNL     1       6.644   5.523  16.089  0.00  0.00    +0.000 A 
ATOM     10  C   UNL     1       7.722   4.682  12.760  0.00  0.00    +0.000 C 
ATOM     11  C   UNL     1       6.961   3.579  11.977  0.00  0.00    +0.000 C 
ATOM     12  N   UNL     1       5.489   3.742  12.027  0.00  0.00    +0.000 NA
ATOM     13  C   UNL     1       4.951   3.602  13.395  0.00  0.00    +0.000 C 
ATOM     14  H   UNL     1       5.051   3.037  11.437  0.00  0.00    +0.000 HD
ENDROOT
BRANCH   3  15
ATOM     15  S   UNL     1       3.181   5.065  18.963  0.00  0.00    +0.000 S 
ATOM     16  O   UNL     1       2.241   4.142  18.349  0.00  0.00    +0.000 OA
ATOM     17  O   UNL     1       3.719   4.798  20.282  0.00  0.00    +0.000 OA
BRANCH  15  18
ATOM     18  C   UNL     1       2.415   6.667  18.999  0.00  0.00    +0.000 A 
ATOM     19  C   UNL     1       2.347   7.433  17.832  0.00  0.00    +0.000 A 
ATOM     20  C   UNL     1       1.837   8.730  17.893  0.00  0.00    +0.000 A 
ATOM     21  C   UNL     1       1.373   9.271  19.106  0.00  0.00    +0.000 A 
ATOM     22  C   UNL     1       1.413   8.462  20.255  0.00  0.00    +0.000 A 
ATOM     23  C   UNL     1       1.922   7.163  20.203  0.00  0.00    +0.000 A 
BRANCH  21  24
ATOM     24  C   UNL     1       0.921  10.722  19.161  0.00  0.00    +0.000 C 
ATOM     25  C   UNL     1       1.090  11.367  20.533  0.00  0.00    +0.000 C 
BRANCH  24  26
ATOM     26  O   UNL     1       1.617  11.524  18.207  0.00  0.00    +0.000 OA
ATOM     27  H   UNL     1       2.124  10.919  17.640  0.00  0.00    +0.000 HD
ENDBRANCH  24  26
ENDBRANCH  21  24
ENDBRANCH  15  18
ENDBRANCH   3  15
BRANCH   1  29
ATOM     28  C   UNL     1       7.830   8.207  17.618  0.00  0.00    +0.000 C 
ATOM     29  O   UNL     1       7.936   6.787  17.650  0.00  0.00    +0.000 OA
ENDBRANCH   1  29
TORSDOF 5
ENDMDL
MODEL 4
REMARK VINA RESULT:      -8.4      3.049      8.095
REMARK  Name = 
REMARK  7 active torsions:
REMARK  status: ('A' for Active; 'I' for Inactive)
REMARK    1  A    between atoms: C_1  and  O_2
REMARK    2  A    between atoms: O_2  and  C_3
REMARK    3  A    between atoms: C_5  and  S_6
REMARK    4  A    between atoms: S_6  and  C_9
REMARK    5  A    between atoms: C_12  and  C_13
REMARK    6  A    between atoms: C_13  and  C_14
REMARK    7  A    between atoms: C_13  and  O_15
REMARK                            x       y       z     vdW  Elec       q    Type
REMARK                         _______ _______ _______ _____ _____    ______ ____
ROOT
ATOM      1  C   UNL     1       3.348   6.707  17.834  0.00  0.00    +0.000 A 
ATOM      2  C   UNL     1       4.595   6.643  17.191  0.00  0.00    +0.000 A 
ATOM      3  C   UNL     1       5.500   5.613  17.478  0.00  0.00    +0.000 A 
ATOM      4  C   UNL     1       5.203   4.596  18.393  0.00  0.00    +0.000 A 
ATOM      5  C   UNL     1       3.968   4.644  19.053  0.00  0.00    +0.000 A 
ATOM      6  C   UNL     1       3.325   3.833  20.017  0.00  0.00    +0.000 A 
ATOM      7  C   UNL     1       2.104   4.420  20.241  0.00  0.00    +0.000 A 
ATOM      8  O   UNL     1       1.934   5.543  19.505  0.00  0.00    +0.000 OA
ATOM      9  C   UNL     1       3.082   5.687  18.763  0.00  0.00    +0.000 A 
ATOM     10  C   UNL     1       1.068   3.928  21.172  0.00  0.00    +0.000 C 
ATOM     11  C   UNL     1       1.447   2.471  21.552  0.00  0.00    +0.000 C 
ATOM     12  N   UNL     1       2.888   2.307  21.853  0.00  0.00    +0.000 NA
ATOM     13  C   UNL     1       3.744   2.571  20.678  0.00  0.00    +0.000 C 
ATOM     14  H   UNL     1       3.061   1.354  22.166  0.00  0.00    +0.000 HD
ENDROOT
BRANCH   3  15
ATOM     15  S   UNL     1       7.090   5.572  16.669  0.00  0.00    +0.000 S 
ATOM     16  O   UNL     1       7.511   6.950  16.486  0.00  0.00    +0.000 OA
ATOM     17  O   UNL     1       7.928   4.638  17.394  0.00  0.00    +0.000 OA
BRANCH  15  18
ATOM     18  C   UNL     1       6.773   4.888  15.061  0.00  0.00    +0.000 A 
ATOM     19  C   UNL     1       5.668   4.056  14.863  0.00  0.00    +0.000 A 
ATOM     20  C   UNL     1       5.486   3.442  13.624  0.00  0.00    +0.000 A 
ATOM     21  C   UNL     1       6.386   3.663  12.566  0.00  0.00    +0.000 A 
ATOM     22  C   UNL     1       7.464   4.540  12.779  0.00  0.00    +0.000 A 
ATOM     23  C   UNL     1       7.654   5.158  14.017  0.00  0.00    +0.000 A 
BRANCH  21  24
ATOM     24  C   UNL     1       6.219   2.899  11.262  0.00  0.00    +0.000 C 
ATOM     25  C   UNL     1       7.246   1.789  11.064  0.00  0.00    +0.000 C 
BRANCH  24  26
ATOM     26  O   UNL     1       4.918   2.320  11.157  0.00  0.00    +0.000 OA
ATOM     27  H   UNL     1       4.908   1.783  10.347  0.00  0.00    +0.000 HD
ENDBRANCH  24  26
ENDBRANCH  21  24
ENDBRANCH  15  18
ENDBRANCH   3  15
BRANCH   1  29
ATOM     28  C   UNL     1       2.253   8.604  18.743  0.00  0.00    +0.000 C 
ATOM     29  O   UNL     1       2.421   7.698  17.657  0.00  0.00    +0.000 OA
ENDBRANCH   1  29
TORSDOF 5
ENDMDL
MODEL 5
REMARK VINA RESULT:      -8.0      3.464      8.404
REMARK  Name = 
REMARK  7 active torsions:
REMARK  status: ('A' for Active; 'I' for Inactive)
REMARK    1  A    between atoms: C_1  and  O_2
REMARK    2  A    between atoms: O_2  and  C_3
REMARK    3  A    between atoms: C_5  and  S_6
REMARK    4  A    between atoms: S_6  and  C_9
REMARK    5  A    between atoms: C_12  and  C_13
REMARK    6  A    between atoms: C_13  and  C_14
REMARK    7  A    between atoms: C_13  and  O_15
REMARK                            x       y       z     vdW  Elec       q    Type
REMARK                         _______ _______ _______ _____ _____    ______ ____
ROOT
ATOM      1  C   UNL     1       1.883   8.741  18.460  0.00  0.00    +0.000 A 
ATOM      2  C   UNL     1       2.212   7.378  18.547  0.00  0.00    +0.000 A 
ATOM      3  C   UNL     1       1.915   6.639  19.700  0.00  0.00    +0.000 A 
ATOM      4  C   UNL     1       1.265   7.209  20.801  0.00  0.00    +0.000 A 
ATOM      5  C   UNL     1       0.936   8.570  20.740  0.00  0.00    +0.000 A 
ATOM      6  C   UNL     1       0.302   9.478  21.620  0.00  0.00    +0.000 A 
ATOM      7  C   UNL     1       0.264  10.677  20.950  0.00  0.00    +0.000 A 
ATOM      8  O   UNL     1       0.836  10.598  19.726  0.00  0.00    +0.000 OA
ATOM      9  C   UNL     1       1.251   9.295  19.586  0.00  0.00    +0.000 A 
ATOM     10  C   UNL     1      -0.313  11.935  21.466  0.00  0.00    +0.000 C 
ATOM     11  C   UNL     1      -1.175  11.571  22.705  0.00  0.00    +0.000 C 
ATOM     12  N   UNL     1      -0.510  10.604  23.610  0.00  0.00    +0.000 NA
ATOM     13  C   UNL     1      -0.287   9.292  22.970  0.00  0.00    +0.000 C 
ATOM     14  H   UNL     1      -1.088  10.463  24.436  0.00  0.00    +0.000 HD
ENDROOT
BRANCH   3  15
ATOM     15  S   UNL     1       2.371   4.917  19.797  0.00  0.00    +0.000 S 
ATOM     16  O   UNL     1       2.858   4.680  21.145  0.00  0.00    +0.000 OA
ATOM     17  O   UNL     1       1.268   4.140  19.266  0.00  0.00    +0.000 OA
BRANCH  15  18
ATOM     18  C   UNL     1       3.747   4.740  18.689  0.00  0.00    +0.000 A 
ATOM     19  C   UNL     1       5.011   5.201  19.068  0.00  0.00    +0.000 A 
ATOM     20  C   UNL     1       6.062   5.151  18.153  0.00  0.00    +0.000 A 
ATOM     21  C   UNL     1       5.874   4.626  16.860  0.00  0.00    +0.000 A 
ATOM     22  C   UNL     1       4.603   4.129  16.521  0.00  0.00    +0.000 A 
ATOM     23  C   UNL     1       3.546   4.175  17.432  0.00  0.00    +0.000 A 
BRANCH  21  24
ATOM     24  C   UNL     1       7.011   4.681  15.852  0.00  0.00    +0.000 C 
ATOM     25  C   UNL     1       6.600   4.271  14.441  0.00  0.00    +0.000 C 
BRANCH  24  26
ATOM     26  O   UNL     1       7.587   5.985  15.783  0.00  0.00    +0.000 OA
ATOM     27  H   UNL     1       8.525   5.872  15.556  0.00  0.00    +0.000 HD
ENDBRANCH  24  26
ENDBRANCH  21  24
ENDBRANCH  15  18
ENDBRANCH   3  15
BRANCH   1  29
ATOM     28  C   UNL     1       2.578  10.883  17.717  0.00  0.00    +0.000 C 
ATOM     29  O   UNL     1       2.175   9.555  17.399  0.00  0.00    +0.000 OA
ENDBRANCH   1  29
TORSDOF 5
ENDMDL
MODEL 6
REMARK VINA RESULT:      -8.0      6.214     10.964
REMARK  Name = 
REMARK  7 active torsions:
REMARK  status: ('A' for Active; 'I' for Inactive)
REMARK    1  A    between atoms: C_1  and  O_2
REMARK    2  A    between atoms: O_2  and  C_3
REMARK    3  A    between atoms: C_5  and  S_6
REMARK    4  A    between atoms: S_6  and  C_9
REMARK    5  A    between atoms: C_12  and  C_13
REMARK    6  A    between atoms: C_13  and  C_14
REMARK    7  A    between atoms: C_13  and  O_15
REMARK                            x       y       z     vdW  Elec       q    Type
REMARK                         _______ _______ _______ _____ _____    ______ ____
ROOT
ATOM      1  C   UNL     1      -2.763  10.296  17.108  0.00  0.00    +0.000 A 
ATOM      2  C   UNL     1      -1.471  10.417  17.646  0.00  0.00    +0.000 A 
ATOM      3  C   UNL     1      -1.231  11.222  18.767  0.00  0.00    +0.000 A 
ATOM      4  C   UNL     1      -2.257  11.921  19.413  0.00  0.00    +0.000 A 
ATOM      5  C   UNL     1      -3.553  11.822  18.888  0.00  0.00    +0.000 A 
ATOM      6  C   UNL     1      -4.811  12.364  19.242  0.00  0.00    +0.000 A 
ATOM      7  C   UNL     1      -5.702  11.859  18.326  0.00  0.00    +0.000 A 
ATOM      8  O   UNL     1      -5.102  11.056  17.418  0.00  0.00    +0.000 OA
ATOM      9  C   UNL     1      -3.771  11.024  17.761  0.00  0.00    +0.000 A 
ATOM     10  C   UNL     1      -7.152  12.138  18.289  0.00  0.00    +0.000 C 
ATOM     11  C   UNL     1      -7.531  12.780  19.651  0.00  0.00    +0.000 C 
ATOM     12  N   UNL     1      -6.563  13.810  20.097  0.00  0.00    +0.000 NA
ATOM     13  C   UNL     1      -5.222  13.248  20.361  0.00  0.00    +0.000 C 
ATOM     14  H   UNL     1      -6.902  14.244  20.953  0.00  0.00    +0.000 HD
ENDROOT
BRANCH   3  15
ATOM     15  S   UNL     1       0.425  11.382  19.412  0.00  0.00    +0.000 S 
ATOM     16  O   UNL     1       1.121  12.339  18.569  0.00  0.00    +0.000 OA
ATOM     17  O   UNL     1       0.320  11.602  20.841  0.00  0.00    +0.000 OA
BRANCH  15  18
ATOM     18  C   UNL     1       1.176   9.793  19.156  0.00  0.00    +0.000 A 
ATOM     19  C   UNL     1       1.187   8.854  20.190  0.00  0.00    +0.000 A 
ATOM     20  C   UNL     1       1.869   7.650  20.014  0.00  0.00    +0.000 A 
ATOM     21  C   UNL     1       2.529   7.359  18.806  0.00  0.00    +0.000 A 
ATOM     22  C   UNL     1       2.464   8.305  17.767  0.00  0.00    +0.000 A 
ATOM     23  C   UNL     1       1.784   9.513  17.935  0.00  0.00    +0.000 A 
BRANCH  21  24
ATOM     24  C   UNL     1       3.350   6.085  18.682  0.00  0.00    +0.000 C 
ATOM     25  C   UNL     1       4.557   6.220  17.760  0.00  0.00    +0.000 C 
BRANCH  24  26
ATOM     26  O   UNL     1       3.814   5.635  19.955  0.00  0.00    +0.000 OA
ATOM     27  H   UNL     1       4.421   4.895  19.793  0.00  0.00    +0.000 HD
ENDBRANCH  24  26
ENDBRANCH  21  24
ENDBRANCH  15  18
ENDBRANCH   3  15
BRANCH   1  29
ATOM     28  C   UNL     1      -3.038  10.277  14.753  0.00  0.00    +0.000 C 
ATOM     29  O   UNL     1      -3.086   9.575  15.991  0.00  0.00    +0.000 OA
ENDBRANCH   1  29
TORSDOF 5
ENDMDL
MODEL 7
REMARK VINA RESULT:      -7.9      6.192     10.858
REMARK  Name = 
REMARK  7 active torsions:
REMARK  status: ('A' for Active; 'I' for Inactive)
REMARK    1  A    between atoms: C_1  and  O_2
REMARK    2  A    between atoms: O_2  and  C_3
REMARK    3  A    between atoms: C_5  and  S_6
REMARK    4  A    between atoms: S_6  and  C_9
REMARK    5  A    between atoms: C_12  and  C_13
REMARK    6  A    between atoms: C_13  and  C_14
REMARK    7  A    between atoms: C_13  and  O_15
REMARK                            x       y       z     vdW  Elec       q    Type
REMARK                         _______ _______ _______ _____ _____    ______ ____
ROOT
ATOM      1  C   UNL     1      -2.676  10.246  17.100  0.00  0.00    +0.000 A 
ATOM      2  C   UNL     1      -1.395  10.428  17.647  0.00  0.00    +0.000 A 
ATOM      3  C   UNL     1      -1.197  11.273  18.747  0.00  0.00    +0.000 A 
ATOM      4  C   UNL     1      -2.255  11.954  19.361  0.00  0.00    +0.000 A 
ATOM      5  C   UNL     1      -3.540  11.794  18.826  0.00  0.00    +0.000 A 
ATOM      6  C   UNL     1      -4.820  12.301  19.150  0.00  0.00    +0.000 A 
ATOM      7  C   UNL     1      -5.683  11.738  18.240  0.00  0.00    +0.000 A 
ATOM      8  O   UNL     1      -5.044  10.931  17.362  0.00  0.00    +0.000 OA
ATOM      9  C   UNL     1      -3.717  10.956  17.720  0.00  0.00    +0.000 A 
ATOM     10  C   UNL     1      -7.141  11.965  18.180  0.00  0.00    +0.000 C 
ATOM     11  C   UNL     1      -7.558  12.632  19.518  0.00  0.00    +0.000 C 
ATOM     12  N   UNL     1      -6.632  13.707  19.944  0.00  0.00    +0.000 NA
ATOM     13  C   UNL     1      -5.276  13.201  20.239  0.00  0.00    +0.000 C 
ATOM     14  H   UNL     1      -6.996  14.154  20.783  0.00  0.00    +0.000 HD
ENDROOT
BRANCH   3  15
ATOM     15  S   UNL     1       0.444  11.511  19.405  0.00  0.00    +0.000 S 
ATOM     16  O   UNL     1       1.182  12.301  18.435  0.00  0.00    +0.000 OA
ATOM     17  O   UNL     1       0.307  11.968  20.774  0.00  0.00    +0.000 OA
BRANCH  15  18
ATOM     18  C   UNL     1       1.167   9.889  19.439  0.00  0.00    +0.000 A 
ATOM     19  C   UNL     1       1.801   9.385  18.301  0.00  0.00    +0.000 A 
ATOM     20  C   UNL     1       2.275   8.073  18.304  0.00  0.00    +0.000 A 
ATOM     21  C   UNL     1       2.142   7.257  19.443  0.00  0.00    +0.000 A 
ATOM     22  C   UNL     1       1.540   7.805  20.589  0.00  0.00    +0.000 A 
ATOM     23  C   UNL     1       1.063   9.117  20.594  0.00  0.00    +0.000 A 
BRANCH  21  24
ATOM     24  C   UNL     1       2.574   5.800  19.381  0.00  0.00    +0.000 C 
ATOM     25  C   UNL     1       2.575   5.219  17.971  0.00  0.00    +0.000 C 
BRANCH  24  26
ATOM     26  O   UNL     1       3.876   5.616  19.936  0.00  0.00    +0.000 OA
ATOM     27  H   UNL     1       4.516   5.784  19.224  0.00  0.00    +0.000 HD
ENDBRANCH  24  26
ENDBRANCH  21  24
ENDBRANCH  15  18
ENDBRANCH   3  15
BRANCH   1  29
ATOM     28  C   UNL     1      -3.026  10.170  14.756  0.00  0.00    +0.000 C 
ATOM     29  O   UNL     1      -2.960   9.482  16.001  0.00  0.00    +0.000 OA
ENDBRANCH   1  29
TORSDOF 5
ENDMDL
MODEL 8
REMARK VINA RESULT:      -7.8      2.839      7.906
REMARK  Name = 
REMARK  7 active torsions:
REMARK  status: ('A' for Active; 'I' for Inactive)
REMARK    1  A    between atoms: C_1  and  O_2
REMARK    2  A    between atoms: O_2  and  C_3
REMARK    3  A    between atoms: C_5  and  S_6
REMARK    4  A    between atoms: S_6  and  C_9
REMARK    5  A    between atoms: C_12  and  C_13
REMARK    6  A    between atoms: C_13  and  C_14
REMARK    7  A    between atoms: C_13  and  O_15
REMARK                            x       y       z     vdW  Elec       q    Type
REMARK                         _______ _______ _______ _____ _____    ______ ____
ROOT
ATOM      1  C   UNL     1       4.197   4.802  19.308  0.00  0.00    +0.000 A 
ATOM      2  C   UNL     1       5.357   4.663  18.527  0.00  0.00    +0.000 A 
ATOM      3  C   UNL     1       5.728   5.653  17.608  0.00  0.00    +0.000 A 
ATOM      4  C   UNL     1       4.982   6.826  17.437  0.00  0.00    +0.000 A 
ATOM      5  C   UNL     1       3.816   6.981  18.199  0.00  0.00    +0.000 A 
ATOM      6  C   UNL     1       2.826   7.986  18.304  0.00  0.00    +0.000 A 
ATOM      7  C   UNL     1       1.945   7.539  19.259  0.00  0.00    +0.000 A 
ATOM      8  O   UNL     1       2.294   6.328  19.751  0.00  0.00    +0.000 OA
ATOM      9  C   UNL     1       3.455   5.977  19.103  0.00  0.00    +0.000 A 
ATOM     10  C   UNL     1       0.739   8.255  19.721  0.00  0.00    +0.000 C 
ATOM     11  C   UNL     1       0.854   9.720  19.222  0.00  0.00    +0.000 C 
ATOM     12  N   UNL     1       1.313   9.820  17.816  0.00  0.00    +0.000 NA
ATOM     13  C   UNL     1       2.684   9.302  17.632  0.00  0.00    +0.000 C 
ATOM     14  H   UNL     1       1.298  10.795  17.524  0.00  0.00    +0.000 HD
ENDROOT
BRANCH   3  15
ATOM     15  S   UNL     1       7.190   5.439  16.608  0.00  0.00    +0.000 S 
ATOM     16  O   UNL     1       7.739   6.762  16.365  0.00  0.00    +0.000 OA
ATOM     17  O   UNL     1       8.000   4.410  17.229  0.00  0.00    +0.000 OA
BRANCH  15  18
ATOM     18  C   UNL     1       6.600   4.809  15.056  0.00  0.00    +0.000 A 
ATOM     19  C   UNL     1       5.356   4.176  14.988  0.00  0.00    +0.000 A 
ATOM     20  C   UNL     1       4.947   3.594  13.789  0.00  0.00    +0.000 A 
ATOM     21  C   UNL     1       5.759   3.651  12.641  0.00  0.00    +0.000 A 
ATOM     22  C   UNL     1       6.986   4.333  12.726  0.00  0.00    +0.000 A 
ATOM     23  C   UNL     1       7.403   4.918  13.923  0.00  0.00    +0.000 A 
BRANCH  21  24
ATOM     24  C   UNL     1       5.333   2.918  11.378  0.00  0.00    +0.000 C 
ATOM     25  C   UNL     1       5.810   1.471  11.318  0.00  0.00    +0.000 C 
BRANCH  24  26
ATOM     26  O   UNL     1       3.914   2.923  11.223  0.00  0.00    +0.000 OA
ATOM     27  H   UNL     1       3.720   3.363  10.379  0.00  0.00    +0.000 HD
ENDBRANCH  24  26
ENDBRANCH  21  24
ENDBRANCH  15  18
ENDBRANCH   3  15
BRANCH   1  29
ATOM     28  C   UNL     1       2.977   2.795  19.638  0.00  0.00    +0.000 C 
ATOM     29  O   UNL     1       3.729   3.870  20.194  0.00  0.00    +0.000 OA
ENDBRANCH   1  29
TORSDOF 5
ENDMDL
MODEL 9
REMARK VINA RESULT:      -7.7      3.419      8.493
REMARK  Name = 
REMARK  7 active torsions:
REMARK  status: ('A' for Active; 'I' for Inactive)
REMARK    1  A    between atoms: C_1  and  O_2
REMARK    2  A    between atoms: O_2  and  C_3
REMARK    3  A    between atoms: C_5  and  S_6
REMARK    4  A    between atoms: S_6  and  C_9
REMARK    5  A    between atoms: C_12  and  C_13
REMARK    6  A    between atoms: C_13  and  C_14
REMARK    7  A    between atoms: C_13  and  O_15
REMARK                            x       y       z     vdW  Elec       q    Type
REMARK                         _______ _______ _______ _____ _____    ______ ____
ROOT
ATOM      1  C   UNL     1       1.864   8.880  18.376  0.00  0.00    +0.000 A 
ATOM      2  C   UNL     1       2.290   7.542  18.360  0.00  0.00    +0.000 A 
ATOM      3  C   UNL     1       2.095   6.711  19.472  0.00  0.00    +0.000 A 
ATOM      4  C   UNL     1       1.456   7.162  20.632  0.00  0.00    +0.000 A 
ATOM      5  C   UNL     1       1.031   8.497  20.674  0.00  0.00    +0.000 A 
ATOM      6  C   UNL     1       0.375   9.300  21.637  0.00  0.00    +0.000 A 
ATOM      7  C   UNL     1       0.226  10.534  21.050  0.00  0.00    +0.000 A 
ATOM      8  O   UNL     1       0.748  10.573  19.802  0.00  0.00    +0.000 OA
ATOM      9  C   UNL     1       1.245   9.314  19.560  0.00  0.00    +0.000 A 
ATOM     10  C   UNL     1      -0.413  11.712  21.670  0.00  0.00    +0.000 C 
ATOM     11  C   UNL     1      -1.193  11.209  22.915  0.00  0.00    +0.000 C 
ATOM     12  N   UNL     1      -0.425  10.237  23.728  0.00  0.00    +0.000 NA
ATOM     13  C   UNL     1      -0.140   8.987  22.993  0.00  0.00    +0.000 C 
ATOM     14  H   UNL     1      -0.956  10.002  24.564  0.00  0.00    +0.000 HD
ENDROOT
BRANCH   3  15
ATOM     15  S   UNL     1       2.671   5.024  19.436  0.00  0.00    +0.000 S 
ATOM     16  O   UNL     1       3.365   4.783  20.690  0.00  0.00    +0.000 OA
ATOM     17  O   UNL     1       1.556   4.186  19.041  0.00  0.00    +0.000 OA
BRANCH  15  18
ATOM     18  C   UNL     1       3.880   4.975  18.135  0.00  0.00    +0.000 A 
ATOM     19  C   UNL     1       3.657   4.182  17.007  0.00  0.00    +0.000 A 
ATOM     20  C   UNL     1       4.655   4.071  16.040  0.00  0.00    +0.000 A 
ATOM     21  C   UNL     1       5.876   4.759  16.174  0.00  0.00    +0.000 A 
ATOM     22  C   UNL     1       6.055   5.584  17.298  0.00  0.00    +0.000 A 
ATOM     23  C   UNL     1       5.060   5.701  18.271  0.00  0.00    +0.000 A 
BRANCH  21  24
ATOM     24  C   UNL     1       6.984   4.535  15.157  0.00  0.00    +0.000 C 
ATOM     25  C   UNL     1       6.479   4.094  13.787  0.00  0.00    +0.000 C 
BRANCH  24  26
ATOM     26  O   UNL     1       7.777   5.708  14.980  0.00  0.00    +0.000 OA
ATOM     27  H   UNL     1       7.549   6.319  15.700  0.00  0.00    +0.000 HD
ENDBRANCH  24  26
ENDBRANCH  21  24
ENDBRANCH  15  18
ENDBRANCH   3  15
BRANCH   1  29
ATOM     28  C   UNL     1       2.547  11.060  17.738  0.00  0.00    +0.000 C 
ATOM     29  O   UNL     1       2.053   9.778  17.361  0.00  0.00    +0.000 OA
ENDBRANCH   1  29
TORSDOF 5
ENDMDL
