MODEL 1
REMARK VINA RESULT:      -9.2      0.000      0.000
REMARK  Name = 
REMARK  7 active torsions:
REMARK  status: ('A' for Active; 'I' for Inactive)
REMARK    1  A    between atoms: C_1  and  C_2
REMARK    2  A    between atoms: C_2  and  C_3
REMARK    3  A    between atoms: C_2  and  C_15
REMARK    4  A    between atoms: N_5  and  C_6
REMARK    5  A    between atoms: C_6  and  C_7
REMARK    6  A    between atoms: N_17  and  C_18
REMARK    7  A    between atoms: N_21  and  C_22
REMARK                            x       y       z     vdW  Elec       q    Type
REMARK                         _______ _______ _______ _____ _____    ______ ____
ROOT
ATOM      1  C   UNL     1       0.733   8.802  20.417  0.00  0.00    +0.000 C 
ATOM      2  O   UNL     1      -0.038   8.629  21.363  0.00  0.00    +0.000 OA
ATOM      3  N   UNL     1       0.586   9.842  19.541  0.00  0.00    +0.000 N 
ATOM      4  H   UNL     1       1.380  10.144  18.982  0.00  0.00    +0.000 HD
ENDROOT
BRANCH   3   5
ATOM      5  C   UNL     1      -0.457  10.870  19.686  0.00  0.00    +0.000 C 
ATOM      6  C   UNL     1       0.273  12.233  19.568  0.00  0.00    +0.000 C 
ATOM      7  O   UNL     1       1.511  12.281  19.581  0.00  0.00    +0.000 OA
ATOM      8  N   UNL     1      -0.504  13.381  19.454  0.00  0.00    +0.000 N 
ATOM      9  C   UNL     1       0.100  14.580  18.900  0.00  0.00    +0.000 C 
ATOM     10  C   UNL     1      -1.745  13.486  20.143  0.00  0.00    +0.000 A 
ATOM     11  C   UNL     1      -1.882  14.477  21.125  0.00  0.00    +0.000 A 
ATOM     12  C   UNL     1      -3.027  14.538  21.917  0.00  0.00    +0.000 A 
ATOM     13  C   UNL     1      -4.059  13.632  21.709  0.00  0.00    +0.000 A 
ATOM     14  C   UNL     1      -3.950  12.664  20.705  0.00  0.00    +0.000 A 
ATOM     15  C   UNL     1      -2.796  12.571  19.905  0.00  0.00    +0.000 A 
ATOM     16  C   UNL     1      -2.712  11.588  18.804  0.00  0.00    +0.000 A 
ATOM     17  C   UNL     1      -3.738  11.522  17.842  0.00  0.00    +0.000 A 
ATOM     18  C   UNL     1      -3.622  10.700  16.722  0.00  0.00    +0.000 A 
ATOM     19  C   UNL     1      -2.473   9.942  16.537  0.00  0.00    +0.000 A 
ATOM     20  C   UNL     1      -1.449   9.982  17.485  0.00  0.00    +0.000 A 
ATOM     21  C   UNL     1      -1.563  10.780  18.637  0.00  0.00    +0.000 A 
ENDBRANCH   3   5
BRANCH   1  23
ATOM     22  C   UNL     1       1.661   6.402  20.649  0.00  0.00    +0.000 C 
ATOM     23  C   UNL     1       1.888   7.832  20.173  0.00  0.00    +0.000 C 
BRANCH  23  24
ATOM     24  C   UNL     1       2.345   7.842  18.710  0.00  0.00    +0.000 C 
ATOM     25  O   UNL     1       1.784   8.516  17.848  0.00  0.00    +0.000 OA
ATOM     26  N   UNL     1       3.391   7.003  18.413  0.00  0.00    +0.000 N 
ATOM     27  H   UNL     1       3.964   6.665  19.186  0.00  0.00    +0.000 HD
BRANCH  26  28
ATOM     28  C   UNL     1       3.941   7.001  17.080  0.00  0.00    +0.000 C 
BRANCH  28  29
ATOM     29  C   UNL     1       5.153   6.116  16.978  0.00  0.00    +0.000 A 
ATOM     30  C   UNL     1       5.358   5.312  15.848  0.00  0.00    +0.000 A 
ATOM     31  C   UNL     1       6.490   4.505  15.763  0.00  0.00    +0.000 A 
ATOM     32  F   UNL     1       6.675   3.750  14.674  0.00  0.00    +0.000 F 
ATOM     33  C   UNL     1       7.431   4.475  16.785  0.00  0.00    +0.000 A 
ATOM     34  C   UNL     1       7.219   5.260  17.908  0.00  0.00    +0.000 A 
ATOM     35  F   UNL     1       8.113   5.239  18.905  0.00  0.00    +0.000 F 
ATOM     36  C   UNL     1       6.092   6.072  18.019  0.00  0.00    +0.000 A 
ENDBRANCH  28  29
ENDBRANCH  26  28
ENDBRANCH  23  24
ENDBRANCH   1  23
TORSDOF 5
ENDMDL
MODEL 2
REMARK VINA RESULT:      -9.2      0.229      1.423
REMARK  Name = 
REMARK  7 active torsions:
REMARK  status: ('A' for Active; 'I' for Inactive)
REMARK    1  A    between atoms: C_1  and  C_2
REMARK    2  A    between atoms: C_2  and  C_3
REMARK    3  A    between atoms: C_2  and  C_15
REMARK    4  A    between atoms: N_5  and  C_6
REMARK    5  A    between atoms: C_6  and  C_7
REMARK    6  A    between atoms: N_17  and  C_18
REMARK    7  A    between atoms: N_21  and  C_22
REMARK                            x       y       z     vdW  Elec       q    Type
REMARK                         _______ _______ _______ _____ _____    ______ ____
ROOT
ATOM      1  C   UNL     1       0.855   8.746  20.383  0.00  0.00    +0.000 C 
ATOM      2  O   UNL     1       0.180   8.664  21.412  0.00  0.00    +0.000 OA
ATOM      3  N   UNL     1       0.643   9.725  19.452  0.00  0.00    +0.000 N 
ATOM      4  H   UNL     1       1.382   9.963  18.796  0.00  0.00    +0.000 HD
ENDROOT
BRANCH   3   5
ATOM      5  C   UNL     1      -0.358  10.790  19.622  0.00  0.00    +0.000 C 
ATOM      6  C   UNL     1       0.417  12.125  19.482  0.00  0.00    +0.000 C 
ATOM      7  O   UNL     1       1.656  12.129  19.462  0.00  0.00    +0.000 OA
ATOM      8  N   UNL     1      -0.320  13.301  19.387  0.00  0.00    +0.000 N 
ATOM      9  C   UNL     1       0.311  14.476  18.815  0.00  0.00    +0.000 C 
ATOM     10  C   UNL     1      -1.538  13.451  20.109  0.00  0.00    +0.000 A 
ATOM     11  C   UNL     1      -1.613  14.448  21.092  0.00  0.00    +0.000 A 
ATOM     12  C   UNL     1      -2.732  14.551  21.915  0.00  0.00    +0.000 A 
ATOM     13  C   UNL     1      -3.802  13.682  21.736  0.00  0.00    +0.000 A 
ATOM     14  C   UNL     1      -3.755  12.710  20.732  0.00  0.00    +0.000 A 
ATOM     15  C   UNL     1      -2.627  12.574  19.901  0.00  0.00    +0.000 A 
ATOM     16  C   UNL     1      -2.609  11.589  18.801  0.00  0.00    +0.000 A 
ATOM     17  C   UNL     1      -3.662  11.558  17.866  0.00  0.00    +0.000 A 
ATOM     18  C   UNL     1      -3.607  10.731  16.745  0.00  0.00    +0.000 A 
ATOM     19  C   UNL     1      -2.491   9.932  16.531  0.00  0.00    +0.000 A 
ATOM     20  C   UNL     1      -1.441   9.936  17.451  0.00  0.00    +0.000 A 
ATOM     21  C   UNL     1      -1.495  10.739  18.604  0.00  0.00    +0.000 A 
ENDBRANCH   3   5
BRANCH   1  23
ATOM     22  C   UNL     1       1.688   6.309  20.585  0.00  0.00    +0.000 C 
ATOM     23  C   UNL     1       1.958   7.728  20.099  0.00  0.00    +0.000 C 
BRANCH  23  24
ATOM     24  C   UNL     1       2.361   7.718  18.620  0.00  0.00    +0.000 C 
ATOM     25  O   UNL     1       1.629   8.156  17.734  0.00  0.00    +0.000 OA
ATOM     26  N   UNL     1       3.574   7.137  18.343  0.00  0.00    +0.000 N 
ATOM     27  H   UNL     1       4.232   7.019  19.113  0.00  0.00    +0.000 HD
BRANCH  26  28
ATOM     28  C   UNL     1       4.073   7.150  16.990  0.00  0.00    +0.000 C 
BRANCH  28  29
ATOM     29  C   UNL     1       5.236   6.212  16.815  0.00  0.00    +0.000 A 
ATOM     30  C   UNL     1       6.169   6.029  17.845  0.00  0.00    +0.000 A 
ATOM     31  C   UNL     1       7.234   5.149  17.671  0.00  0.00    +0.000 A 
ATOM     32  F   UNL     1       8.112   4.981  18.668  0.00  0.00    +0.000 F 
ATOM     33  C   UNL     1       7.399   4.443  16.487  0.00  0.00    +0.000 A 
ATOM     34  C   UNL     1       6.484   4.637  15.463  0.00  0.00    +0.000 A 
ATOM     35  F   UNL     1       6.632   3.968  14.312  0.00  0.00    +0.000 F 
ATOM     36  C   UNL     1       5.412   5.515  15.611  0.00  0.00    +0.000 A 
ENDBRANCH  28  29
ENDBRANCH  26  28
ENDBRANCH  23  24
ENDBRANCH   1  23
TORSDOF 5
ENDMDL
MODEL 3
REMARK VINA RESULT:      -8.8      1.155      1.203
REMARK  Name = 
REMARK  7 active torsions:
REMARK  status: ('A' for Active; 'I' for Inactive)
REMARK    1  A    between atoms: C_1  and  C_2
REMARK    2  A    between atoms: C_2  and  C_3
REMARK    3  A    between atoms: C_2  and  C_15
REMARK    4  A    between atoms: N_5  and  C_6
REMARK    5  A    between atoms: C_6  and  C_7
REMARK    6  A    between atoms: N_17  and  C_18
REMARK    7  A    between atoms: N_21  and  C_22
REMARK                            x       y       z     vdW  Elec       q    Type
REMARK                         _______ _______ _______ _____ _____    ______ ____
ROOT
ATOM      1  C   UNL     1       0.624   8.889  20.403  0.00  0.00    +0.000 C 
ATOM      2  O   UNL     1      -0.241   8.608  21.235  0.00  0.00    +0.000 OA
ATOM      3  N   UNL     1       0.568  10.032  19.654  0.00  0.00    +0.000 N 
ATOM      4  H   UNL     1       1.414  10.393  19.223  0.00  0.00    +0.000 HD
ENDROOT
BRANCH   3   5
ATOM      5  C   UNL     1      -0.488  11.045  19.817  0.00  0.00    +0.000 C 
ATOM      6  C   UNL     1       0.214  12.418  19.651  0.00  0.00    +0.000 C 
ATOM      7  O   UNL     1       1.451  12.487  19.620  0.00  0.00    +0.000 OA
ATOM      8  N   UNL     1      -0.585  13.551  19.543  0.00  0.00    +0.000 N 
ATOM      9  C   UNL     1      -0.022  14.749  18.948  0.00  0.00    +0.000 C 
ATOM     10  C   UNL     1      -1.804  13.647  20.273  0.00  0.00    +0.000 A 
ATOM     11  C   UNL     1      -1.925  14.653  21.242  0.00  0.00    +0.000 A 
ATOM     12  C   UNL     1      -3.042  14.709  22.072  0.00  0.00    +0.000 A 
ATOM     13  C   UNL     1      -4.066  13.782  21.915  0.00  0.00    +0.000 A 
ATOM     14  C   UNL     1      -3.974  12.799  20.925  0.00  0.00    +0.000 A 
ATOM     15  C   UNL     1      -2.847  12.710  20.087  0.00  0.00    +0.000 A 
ATOM     16  C   UNL     1      -2.784  11.710  19.002  0.00  0.00    +0.000 A 
ATOM     17  C   UNL     1      -3.841  11.609  18.076  0.00  0.00    +0.000 A 
ATOM     18  C   UNL     1      -3.749  10.769  16.967  0.00  0.00    +0.000 A 
ATOM     19  C   UNL     1      -2.594  10.027  16.756  0.00  0.00    +0.000 A 
ATOM     20  C   UNL     1      -1.539  10.101  17.668  0.00  0.00    +0.000 A 
ATOM     21  C   UNL     1      -1.627  10.918  18.809  0.00  0.00    +0.000 A 
ENDBRANCH   3   5
BRANCH   1  23
ATOM     22  C   UNL     1       1.600   6.507  20.626  0.00  0.00    +0.000 C 
ATOM     23  C   UNL     1       1.801   7.945  20.161  0.00  0.00    +0.000 C 
BRANCH  23  24
ATOM     24  C   UNL     1       2.268   7.974  18.702  0.00  0.00    +0.000 C 
ATOM     25  O   UNL     1       1.585   8.455  17.800  0.00  0.00    +0.000 OA
ATOM     26  N   UNL     1       3.481   7.378  18.459  0.00  0.00    +0.000 N 
ATOM     27  H   UNL     1       4.103   7.222  19.253  0.00  0.00    +0.000 HD
BRANCH  26  28
ATOM     28  C   UNL     1       4.040   7.423  17.130  0.00  0.00    +0.000 C 
BRANCH  28  29
ATOM     29  C   UNL     1       4.559   6.080  16.696  0.00  0.00    +0.000 A 
ATOM     30  C   UNL     1       5.468   5.974  15.634  0.00  0.00    +0.000 A 
ATOM     31  C   UNL     1       5.947   4.724  15.250  0.00  0.00    +0.000 A 
ATOM     32  F   UNL     1       6.821   4.642  14.239  0.00  0.00    +0.000 F 
ATOM     33  C   UNL     1       5.538   3.566  15.898  0.00  0.00    +0.000 A 
ATOM     34  C   UNL     1       4.627   3.671  16.938  0.00  0.00    +0.000 A 
ATOM     35  F   UNL     1       4.217   2.564  17.570  0.00  0.00    +0.000 F 
ATOM     36  C   UNL     1       4.129   4.910  17.338  0.00  0.00    +0.000 A 
ENDBRANCH  28  29
ENDBRANCH  26  28
ENDBRANCH  23  24
ENDBRANCH   1  23
TORSDOF 5
ENDMDL
MODEL 4
REMARK VINA RESULT:      -8.8      1.115      1.404
REMARK  Name = 
REMARK  7 active torsions:
REMARK  status: ('A' for Active; 'I' for Inactive)
REMARK    1  A    between atoms: C_1  and  C_2
REMARK    2  A    between atoms: C_2  and  C_3
REMARK    3  A    between atoms: C_2  and  C_15
REMARK    4  A    between atoms: N_5  and  C_6
REMARK    5  A    between atoms: C_6  and  C_7
REMARK    6  A    between atoms: N_17  and  C_18
REMARK    7  A    between atoms: N_21  and  C_22
REMARK                            x       y       z     vdW  Elec       q    Type
REMARK                         _______ _______ _______ _____ _____    ______ ____
ROOT
ATOM      1  C   UNL     1       0.685   8.928  20.460  0.00  0.00    +0.000 C 
ATOM      2  O   UNL     1       0.075   8.899  21.531  0.00  0.00    +0.000 OA
ATOM      3  N   UNL     1       0.375   9.822  19.472  0.00  0.00    +0.000 N 
ATOM      4  H   UNL     1       1.063  10.039  18.757  0.00  0.00    +0.000 HD
ENDROOT
BRANCH   3   5
ATOM      5  C   UNL     1      -0.662  10.856  19.623  0.00  0.00    +0.000 C 
ATOM      6  C   UNL     1       0.078  12.215  19.526  0.00  0.00    +0.000 C 
ATOM      7  O   UNL     1       1.316  12.254  19.547  0.00  0.00    +0.000 OA
ATOM      8  N   UNL     1      -0.690  13.370  19.421  0.00  0.00    +0.000 N 
ATOM      9  C   UNL     1      -0.075  14.570  18.886  0.00  0.00    +0.000 C 
ATOM     10  C   UNL     1      -1.935  13.475  20.105  0.00  0.00    +0.000 A 
ATOM     11  C   UNL     1      -2.071  14.455  21.098  0.00  0.00    +0.000 A 
ATOM     12  C   UNL     1      -3.219  14.514  21.884  0.00  0.00    +0.000 A 
ATOM     13  C   UNL     1      -4.257  13.618  21.659  0.00  0.00    +0.000 A 
ATOM     14  C   UNL     1      -4.149  12.662  20.644  0.00  0.00    +0.000 A 
ATOM     15  C   UNL     1      -2.990  12.570  19.850  0.00  0.00    +0.000 A 
ATOM     16  C   UNL     1      -2.907  11.600  18.738  0.00  0.00    +0.000 A 
ATOM     17  C   UNL     1      -3.928  11.553  17.769  0.00  0.00    +0.000 A 
ATOM     18  C   UNL     1      -3.811  10.743  16.639  0.00  0.00    +0.000 A 
ATOM     19  C   UNL     1      -2.666   9.979  16.452  0.00  0.00    +0.000 A 
ATOM     20  C   UNL     1      -1.648  10.001  17.406  0.00  0.00    +0.000 A 
ATOM     21  C   UNL     1      -1.763  10.786  18.568  0.00  0.00    +0.000 A 
ENDBRANCH   3   5
BRANCH   1  23
ATOM     22  C   UNL     1       1.531   6.490  20.572  0.00  0.00    +0.000 C 
ATOM     23  C   UNL     1       1.815   7.938  20.186  0.00  0.00    +0.000 C 
BRANCH  23  24
ATOM     24  C   UNL     1       2.307   8.017  18.737  0.00  0.00    +0.000 C 
ATOM     25  O   UNL     1       1.690   8.623  17.862  0.00  0.00    +0.000 OA
ATOM     26  N   UNL     1       3.459   7.320  18.466  0.00  0.00    +0.000 N 
ATOM     27  H   UNL     1       4.048   7.050  19.254  0.00  0.00    +0.000 HD
BRANCH  26  28
ATOM     28  C   UNL     1       4.042   7.398  17.149  0.00  0.00    +0.000 C 
BRANCH  28  29
ATOM     29  C   UNL     1       4.588   6.071  16.700  0.00  0.00    +0.000 A 
ATOM     30  C   UNL     1       4.121   4.877  17.267  0.00  0.00    +0.000 A 
ATOM     31  C   UNL     1       4.630   3.655  16.833  0.00  0.00    +0.000 A 
ATOM     32  F   UNL     1       4.167   2.524  17.379  0.00  0.00    +0.000 F 
ATOM     33  C   UNL     1       5.603   3.590  15.845  0.00  0.00    +0.000 A 
ATOM     34  C   UNL     1       6.075   4.773  15.296  0.00  0.00    +0.000 A 
ATOM     35  F   UNL     1       7.017   4.728  14.346  0.00  0.00    +0.000 F 
ATOM     36  C   UNL     1       5.585   6.008  15.716  0.00  0.00    +0.000 A 
ENDBRANCH  28  29
ENDBRANCH  26  28
ENDBRANCH  23  24
ENDBRANCH   1  23
TORSDOF 5
ENDMDL
MODEL 5
REMARK VINA RESULT:      -8.6      3.519      5.109
REMARK  Name = 
REMARK  7 active torsions:
REMARK  status: ('A' for Active; 'I' for Inactive)
REMARK    1  A    between atoms: C_1  and  C_2
REMARK    2  A    between atoms: C_2  and  C_3
REMARK    3  A    between atoms: C_2  and  C_15
REMARK    4  A    between atoms: N_5  and  C_6
REMARK    5  A    between atoms: C_6  and  C_7
REMARK    6  A    between atoms: N_17  and  C_18
REMARK    7  A    between atoms: N_21  and  C_22
REMARK                            x       y       z     vdW  Elec       q    Type
REMARK                         _______ _______ _______ _____ _____    ______ ____
ROOT
ATOM      1  C   UNL     1       0.204  11.482  20.523  0.00  0.00    +0.000 C 
ATOM      2  O   UNL     1      -0.986  11.721  20.305  0.00  0.00    +0.000 OA
ATOM      3  N   UNL     1       1.170  12.444  20.412  0.00  0.00    +0.000 N 
ATOM      4  H   UNL     1       2.061  12.318  20.885  0.00  0.00    +0.000 HD
ENDROOT
BRANCH   3   5
ATOM      5  C   UNL     1       0.870  13.847  20.086  0.00  0.00    +0.000 C 
ATOM      6  C   UNL     1       0.776  14.586  21.446  0.00  0.00    +0.000 C 
ATOM      7  O   UNL     1       0.754  13.944  22.506  0.00  0.00    +0.000 OA
ATOM      8  N   UNL     1       0.713  15.976  21.431  0.00  0.00    +0.000 N 
ATOM      9  C   UNL     1       1.075  16.704  22.633  0.00  0.00    +0.000 C 
ATOM     10  C   UNL     1       0.017  16.656  20.392  0.00  0.00    +0.000 A 
ATOM     11  C   UNL     1      -1.106  17.424  20.732  0.00  0.00    +0.000 A 
ATOM     12  C   UNL     1      -1.898  18.002  19.742  0.00  0.00    +0.000 A 
ATOM     13  C   UNL     1      -1.552  17.848  18.404  0.00  0.00    +0.000 A 
ATOM     14  C   UNL     1      -0.411  17.118  18.056  0.00  0.00    +0.000 A 
ATOM     15  C   UNL     1       0.393  16.509  19.037  0.00  0.00    +0.000 A 
ATOM     16  C   UNL     1       1.631  15.793  18.667  0.00  0.00    +0.000 A 
ATOM     17  C   UNL     1       2.594  16.425  17.856  0.00  0.00    +0.000 A 
ATOM     18  C   UNL     1       3.827  15.826  17.602  0.00  0.00    +0.000 A 
ATOM     19  C   UNL     1       4.125  14.592  18.166  0.00  0.00    +0.000 A 
ATOM     20  C   UNL     1       3.181  13.941  18.962  0.00  0.00    +0.000 A 
ATOM     21  C   UNL     1       1.920  14.515  19.203  0.00  0.00    +0.000 A 
ENDBRANCH   3   5
BRANCH   1  23
ATOM     22  C   UNL     1      -0.404   9.211  21.594  0.00  0.00    +0.000 C 
ATOM     23  C   UNL     1       0.651  10.074  20.911  0.00  0.00    +0.000 C 
BRANCH  23  24
ATOM     24  C   UNL     1       1.271   9.323  19.728  0.00  0.00    +0.000 C 
ATOM     25  O   UNL     1       1.237   9.759  18.579  0.00  0.00    +0.000 OA
ATOM     26  N   UNL     1       1.822   8.101  20.027  0.00  0.00    +0.000 N 
ATOM     27  H   UNL     1       2.041   7.904  21.004  0.00  0.00    +0.000 HD
BRANCH  26  28
ATOM     28  C   UNL     1       2.498   7.356  18.995  0.00  0.00    +0.000 C 
BRANCH  28  29
ATOM     29  C   UNL     1       2.196   5.885  19.079  0.00  0.00    +0.000 A 
ATOM     30  C   UNL     1       1.741   5.315  20.276  0.00  0.00    +0.000 A 
ATOM     31  C   UNL     1       1.456   3.953  20.336  0.00  0.00    +0.000 A 
ATOM     32  F   UNL     1       1.016   3.427  21.485  0.00  0.00    +0.000 F 
ATOM     33  C   UNL     1       1.618   3.135  19.225  0.00  0.00    +0.000 A 
ATOM     34  C   UNL     1       2.082   3.697  18.045  0.00  0.00    +0.000 A 
ATOM     35  F   UNL     1       2.248   2.921  16.967  0.00  0.00    +0.000 F 
ATOM     36  C   UNL     1       2.378   5.056  17.962  0.00  0.00    +0.000 A 
ENDBRANCH  28  29
ENDBRANCH  26  28
ENDBRANCH  23  24
ENDBRANCH   1  23
TORSDOF 5
ENDMDL
MODEL 6
REMARK VINA RESULT:      -8.5      0.959      1.407
REMARK  Name = 
REMARK  7 active torsions:
REMARK  status: ('A' for Active; 'I' for Inactive)
REMARK    1  A    between atoms: C_1  and  C_2
REMARK    2  A    between atoms: C_2  and  C_3
REMARK    3  A    between atoms: C_2  and  C_15
REMARK    4  A    between atoms: N_5  and  C_6
REMARK    5  A    between atoms: C_6  and  C_7
REMARK    6  A    between atoms: N_17  and  C_18
REMARK    7  A    between atoms: N_21  and  C_22
REMARK                            x       y       z     vdW  Elec       q    Type
REMARK                         _______ _______ _______ _____ _____    ______ ____
ROOT
ATOM      1  C   UNL     1       0.598   8.728  20.618  0.00  0.00    +0.000 C 
ATOM      2  O   UNL     1      -0.369   8.490  21.345  0.00  0.00    +0.000 OA
ATOM      3  N   UNL     1       0.677   9.867  19.864  0.00  0.00    +0.000 N 
ATOM      4  H   UNL     1       1.582  10.188  19.533  0.00  0.00    +0.000 HD
ENDROOT
BRANCH   3   5
ATOM      5  C   UNL     1      -0.345  10.925  19.901  0.00  0.00    +0.000 C 
ATOM      6  C   UNL     1       0.424  12.262  19.743  0.00  0.00    +0.000 C 
ATOM      7  O   UNL     1       1.661  12.283  19.813  0.00  0.00    +0.000 OA
ATOM      8  N   UNL     1      -0.317  13.420  19.528  0.00  0.00    +0.000 N 
ATOM      9  C   UNL     1       0.342  14.570  18.939  0.00  0.00    +0.000 C 
ATOM     10  C   UNL     1      -1.586  13.591  20.150  0.00  0.00    +0.000 A 
ATOM     11  C   UNL     1      -1.744  14.639  21.068  0.00  0.00    +0.000 A 
ATOM     12  C   UNL     1      -2.922  14.771  21.800  0.00  0.00    +0.000 A 
ATOM     13  C   UNL     1      -3.967  13.878  21.592  0.00  0.00    +0.000 A 
ATOM     14  C   UNL     1      -3.835  12.853  20.650  0.00  0.00    +0.000 A 
ATOM     15  C   UNL     1      -2.648  12.688  19.913  0.00  0.00    +0.000 A 
ATOM     16  C   UNL     1      -2.538  11.644  18.874  0.00  0.00    +0.000 A 
ATOM     17  C   UNL     1      -3.519  11.546  17.868  0.00  0.00    +0.000 A 
ATOM     18  C   UNL     1      -3.372  10.660  16.802  0.00  0.00    +0.000 A 
ATOM     19  C   UNL     1      -2.235   9.866  16.715  0.00  0.00    +0.000 A 
ATOM     20  C   UNL     1      -1.256   9.936  17.708  0.00  0.00    +0.000 A 
ATOM     21  C   UNL     1      -1.403  10.801  18.807  0.00  0.00    +0.000 A 
ENDBRANCH   3   5
BRANCH   1  23
ATOM     22  C   UNL     1       1.501   6.364  21.138  0.00  0.00    +0.000 C 
ATOM     23  C   UNL     1       1.753   7.733  20.516  0.00  0.00    +0.000 C 
BRANCH  23  24
ATOM     24  C   UNL     1       2.252   7.581  19.075  0.00  0.00    +0.000 C 
ATOM     25  O   UNL     1       2.011   8.412  18.201  0.00  0.00    +0.000 OA
ATOM     26  N   UNL     1       2.945   6.425  18.809  0.00  0.00    +0.000 N 
ATOM     27  H   UNL     1       3.322   5.904  19.601  0.00  0.00    +0.000 HD
BRANCH  26  28
ATOM     28  C   UNL     1       3.521   6.229  17.502  0.00  0.00    +0.000 C 
BRANCH  28  29
ATOM     29  C   UNL     1       5.022   6.321  17.534  0.00  0.00    +0.000 A 
ATOM     30  C   UNL     1       5.664   7.563  17.433  0.00  0.00    +0.000 A 
ATOM     31  C   UNL     1       7.055   7.634  17.475  0.00  0.00    +0.000 A 
ATOM     32  F   UNL     1       7.652   8.828  17.385  0.00  0.00    +0.000 F 
ATOM     33  C   UNL     1       7.830   6.489  17.611  0.00  0.00    +0.000 A 
ATOM     34  C   UNL     1       7.194   5.260  17.695  0.00  0.00    +0.000 A 
ATOM     35  F   UNL     1       7.926   4.146  17.821  0.00  0.00    +0.000 F 
ATOM     36  C   UNL     1       5.804   5.163  17.651  0.00  0.00    +0.000 A 
ENDBRANCH  28  29
ENDBRANCH  26  28
ENDBRANCH  23  24
ENDBRANCH   1  23
TORSDOF 5
ENDMDL
MODEL 7
REMARK VINA RESULT:      -8.5      0.974      1.257
REMARK  Name = 
REMARK  7 active torsions:
REMARK  status: ('A' for Active; 'I' for Inactive)
REMARK    1  A    between atoms: C_1  and  C_2
REMARK    2  A    between atoms: C_2  and  C_3
REMARK    3  A    between atoms: C_2  and  C_15
REMARK    4  A    between atoms: N_5  and  C_6
REMARK    5  A    between atoms: C_6  and  C_7
REMARK    6  A    between atoms: N_17  and  C_18
REMARK    7  A    between atoms: N_21  and  C_22
REMARK                            x       y       z     vdW  Elec       q    Type
REMARK                         _______ _______ _______ _____ _____    ______ ____
ROOT
ATOM      1  C   UNL     1       0.623   8.708  20.555  0.00  0.00    +0.000 C 
ATOM      2  O   UNL     1      -0.420   8.396  21.133  0.00  0.00    +0.000 OA
ATOM      3  N   UNL     1       0.777   9.917  19.936  0.00  0.00    +0.000 N 
ATOM      4  H   UNL     1       1.711  10.271  19.749  0.00  0.00    +0.000 HD
ENDROOT
BRANCH   3   5
ATOM      5  C   UNL     1      -0.256  10.965  19.957  0.00  0.00    +0.000 C 
ATOM      6  C   UNL     1       0.502  12.309  19.803  0.00  0.00    +0.000 C 
ATOM      7  O   UNL     1       1.737  12.342  19.887  0.00  0.00    +0.000 OA
ATOM      8  N   UNL     1      -0.248  13.459  19.576  0.00  0.00    +0.000 N 
ATOM      9  C   UNL     1       0.406  14.614  18.990  0.00  0.00    +0.000 C 
ATOM     10  C   UNL     1      -1.526  13.620  20.182  0.00  0.00    +0.000 A 
ATOM     11  C   UNL     1      -1.704  14.670  21.095  0.00  0.00    +0.000 A 
ATOM     12  C   UNL     1      -2.892  14.793  21.812  0.00  0.00    +0.000 A 
ATOM     13  C   UNL     1      -3.926  13.889  21.596  0.00  0.00    +0.000 A 
ATOM     14  C   UNL     1      -3.774  12.862  20.659  0.00  0.00    +0.000 A 
ATOM     15  C   UNL     1      -2.576  12.706  19.936  0.00  0.00    +0.000 A 
ATOM     16  C   UNL     1      -2.444  11.659  18.902  0.00  0.00    +0.000 A 
ATOM     17  C   UNL     1      -3.412  11.548  17.886  0.00  0.00    +0.000 A 
ATOM     18  C   UNL     1      -3.245  10.659  16.825  0.00  0.00    +0.000 A 
ATOM     19  C   UNL     1      -2.099   9.877  16.754  0.00  0.00    +0.000 A 
ATOM     20  C   UNL     1      -1.132   9.960  17.757  0.00  0.00    +0.000 A 
ATOM     21  C   UNL     1      -1.300  10.827  18.852  0.00  0.00    +0.000 A 
ENDBRANCH   3   5
BRANCH   1  23
ATOM     22  C   UNL     1       1.558   6.373  21.147  0.00  0.00    +0.000 C 
ATOM     23  C   UNL     1       1.794   7.729  20.492  0.00  0.00    +0.000 C 
BRANCH  23  24
ATOM     24  C   UNL     1       2.312   7.547  19.061  0.00  0.00    +0.000 C 
ATOM     25  O   UNL     1       2.155   8.399  18.188  0.00  0.00    +0.000 OA
ATOM     26  N   UNL     1       2.919   6.342  18.801  0.00  0.00    +0.000 N 
ATOM     27  H   UNL     1       3.237   5.789  19.597  0.00  0.00    +0.000 HD
BRANCH  26  28
ATOM     28  C   UNL     1       3.507   6.109  17.505  0.00  0.00    +0.000 C 
BRANCH  28  29
ATOM     29  C   UNL     1       5.005   6.234  17.541  0.00  0.00    +0.000 A 
ATOM     30  C   UNL     1       5.814   5.097  17.667  0.00  0.00    +0.000 A 
ATOM     31  C   UNL     1       7.201   5.227  17.688  0.00  0.00    +0.000 A 
ATOM     32  F   UNL     1       7.959   4.130  17.800  0.00  0.00    +0.000 F 
ATOM     33  C   UNL     1       7.808   6.473  17.592  0.00  0.00    +0.000 A 
ATOM     34  C   UNL     1       7.006   7.598  17.483  0.00  0.00    +0.000 A 
ATOM     35  F   UNL     1       7.575   8.807  17.395  0.00  0.00    +0.000 F 
ATOM     36  C   UNL     1       5.616   7.494  17.464  0.00  0.00    +0.000 A 
ENDBRANCH  28  29
ENDBRANCH  26  28
ENDBRANCH  23  24
ENDBRANCH   1  23
TORSDOF 5
ENDMDL
MODEL 8
REMARK VINA RESULT:      -8.5      6.503      8.990
REMARK  Name = 
REMARK  7 active torsions:
REMARK  status: ('A' for Active; 'I' for Inactive)
REMARK    1  A    between atoms: C_1  and  C_2
REMARK    2  A    between atoms: C_2  and  C_3
REMARK    3  A    between atoms: C_2  and  C_15
REMARK    4  A    between atoms: N_5  and  C_6
REMARK    5  A    between atoms: C_6  and  C_7
REMARK    6  A    between atoms: N_17  and  C_18
REMARK    7  A    between atoms: N_21  and  C_22
REMARK                            x       y       z     vdW  Elec       q    Type
REMARK                         _______ _______ _______ _____ _____    ______ ____
ROOT
ATOM      1  C   UNL     1       8.022   8.986  18.024  0.00  0.00    +0.000 C 
ATOM      2  O   UNL     1       7.101   9.500  17.385  0.00  0.00    +0.000 OA
ATOM      3  N   UNL     1       8.882   9.731  18.783  0.00  0.00    +0.000 N 
ATOM      4  H   UNL     1       9.413   9.284  19.526  0.00  0.00    +0.000 HD
ENDROOT
BRANCH   3   5
ATOM      5  C   UNL     1       8.750  11.187  18.949  0.00  0.00    +0.000 C 
ATOM      6  C   UNL     1       8.894  11.454  20.470  0.00  0.00    +0.000 C 
ATOM      7  O   UNL     1       8.888  10.510  21.273  0.00  0.00    +0.000 OA
ATOM      8  N   UNL     1       9.023  12.773  20.892  0.00  0.00    +0.000 N 
ATOM      9  C   UNL     1       9.600  13.035  22.197  0.00  0.00    +0.000 C 
ATOM     10  C   UNL     1       8.330  13.818  20.218  0.00  0.00    +0.000 A 
ATOM     11  C   UNL     1       7.364  14.545  20.929  0.00  0.00    +0.000 A 
ATOM     12  C   UNL     1       6.566  15.487  20.283  0.00  0.00    +0.000 A 
ATOM     13  C   UNL     1       6.754  15.738  18.929  0.00  0.00    +0.000 A 
ATOM     14  C   UNL     1       7.742  15.049  18.220  0.00  0.00    +0.000 A 
ATOM     15  C   UNL     1       8.547  14.078  18.846  0.00  0.00    +0.000 A 
ATOM     16  C   UNL     1       9.631  13.399  18.107  0.00  0.00    +0.000 A 
ATOM     17  C   UNL     1      10.587  14.159  17.405  0.00  0.00    +0.000 A 
ATOM     18  C   UNL     1      11.694  13.553  16.812  0.00  0.00    +0.000 A 
ATOM     19  C   UNL     1      11.872  12.179  16.923  0.00  0.00    +0.000 A 
ATOM     20  C   UNL     1      10.930  11.405  17.602  0.00  0.00    +0.000 A 
ATOM     21  C   UNL     1       9.791  11.995  18.178  0.00  0.00    +0.000 A 
ENDBRANCH   3   5
BRANCH   1  23
ATOM     22  C   UNL     1       8.222   6.761  19.321  0.00  0.00    +0.000 C 
ATOM     23  C   UNL     1       8.250   7.477  17.975  0.00  0.00    +0.000 C 
BRANCH  23  24
ATOM     24  C   UNL     1       7.307   6.787  16.984  0.00  0.00    +0.000 C 
ATOM     25  O   UNL     1       7.705   6.282  15.936  0.00  0.00    +0.000 OA
ATOM     26  N   UNL     1       5.975   6.817  17.318  0.00  0.00    +0.000 N 
ATOM     27  H   UNL     1       5.732   7.020  18.288  0.00  0.00    +0.000 HD
BRANCH  26  28
ATOM     28  C   UNL     1       5.020   6.126  16.487  0.00  0.00    +0.000 C 
BRANCH  28  29
ATOM     29  C   UNL     1       4.027   5.347  17.305  0.00  0.00    +0.000 A 
ATOM     30  C   UNL     1       3.779   3.995  17.031  0.00  0.00    +0.000 A 
ATOM     31  C   UNL     1       2.864   3.284  17.804  0.00  0.00    +0.000 A 
ATOM     32  F   UNL     1       2.645   1.992  17.534  0.00  0.00    +0.000 F 
ATOM     33  C   UNL     1       2.180   3.891  18.849  0.00  0.00    +0.000 A 
ATOM     34  C   UNL     1       2.415   5.233  19.109  0.00  0.00    +0.000 A 
ATOM     35  F   UNL     1       1.760   5.835  20.110  0.00  0.00    +0.000 F 
ATOM     36  C   UNL     1       3.323   5.967  18.347  0.00  0.00    +0.000 A 
ENDBRANCH  28  29
ENDBRANCH  26  28
ENDBRANCH  23  24
ENDBRANCH   1  23
TORSDOF 5
ENDMDL
MODEL 9
REMARK VINA RESULT:      -8.4      5.192      7.075
REMARK  Name = 
REMARK  7 active torsions:
REMARK  status: ('A' for Active; 'I' for Inactive)
REMARK    1  A    between atoms: C_1  and  C_2
REMARK    2  A    between atoms: C_2  and  C_3
REMARK    3  A    between atoms: C_2  and  C_15
REMARK    4  A    between atoms: N_5  and  C_6
REMARK    5  A    between atoms: C_6  and  C_7
REMARK    6  A    between atoms: N_17  and  C_18
REMARK    7  A    between atoms: N_21  and  C_22
REMARK                            x       y       z     vdW  Elec       q    Type
REMARK                         _______ _______ _______ _____ _____    ______ ____
ROOT
ATOM      1  C   UNL     1      -0.037  10.760  22.348  0.00  0.00    +0.000 C 
ATOM      2  O   UNL     1      -0.220  10.519  23.543  0.00  0.00    +0.000 OA
ATOM      3  N   UNL     1      -0.264  11.998  21.814  0.00  0.00    +0.000 N 
ATOM      4  H   UNL     1       0.177  12.255  20.935  0.00  0.00    +0.000 HD
ENDROOT
BRANCH   3   5
ATOM      5  C   UNL     1      -0.684  13.155  22.621  0.00  0.00    +0.000 C 
ATOM      6  C   UNL     1      -0.063  14.398  21.933  0.00  0.00    +0.000 C 
ATOM      7  O   UNL     1       0.776  14.259  21.032  0.00  0.00    +0.000 OA
ATOM      8  N   UNL     1      -0.475  15.655  22.363  0.00  0.00    +0.000 N 
ATOM      9  C   UNL     1      -0.283  16.792  21.481  0.00  0.00    +0.000 C 
ATOM     10  C   UNL     1      -0.779  15.887  23.735  0.00  0.00    +0.000 A 
ATOM     11  C   UNL     1       0.009  16.802  24.448  0.00  0.00    +0.000 A 
ATOM     12  C   UNL     1      -0.163  16.966  25.821  0.00  0.00    +0.000 A 
ATOM     13  C   UNL     1      -1.148  16.246  26.485  0.00  0.00    +0.000 A 
ATOM     14  C   UNL     1      -1.966  15.360  25.776  0.00  0.00    +0.000 A 
ATOM     15  C   UNL     1      -1.799  15.162  24.393  0.00  0.00    +0.000 A 
ATOM     16  C   UNL     1      -2.707  14.274  23.638  0.00  0.00    +0.000 A 
ATOM     17  C   UNL     1      -4.101  14.443  23.740  0.00  0.00    +0.000 A 
ATOM     18  C   UNL     1      -4.976  13.709  22.939  0.00  0.00    +0.000 A 
ATOM     19  C   UNL     1      -4.471  12.806  22.012  0.00  0.00    +0.000 A 
ATOM     20  C   UNL     1      -3.093  12.612  21.903  0.00  0.00    +0.000 A 
ATOM     21  C   UNL     1      -2.198  13.320  22.725  0.00  0.00    +0.000 A 
ENDBRANCH   3   5
BRANCH   1  23
ATOM     22  C   UNL     1      -0.274   8.318  21.538  0.00  0.00    +0.000 C 
ATOM     23  C   UNL     1       0.439   9.659  21.402  0.00  0.00    +0.000 C 
BRANCH  23  24
ATOM     24  C   UNL     1       0.435  10.120  19.940  0.00  0.00    +0.000 C 
ATOM     25  O   UNL     1       1.275  10.898  19.491  0.00  0.00    +0.000 OA
ATOM     26  N   UNL     1      -0.602   9.647  19.175  0.00  0.00    +0.000 N 
ATOM     27  H   UNL     1      -1.113   8.832  19.516  0.00  0.00    +0.000 HD
BRANCH  26  28
ATOM     28  C   UNL     1      -0.647   9.963  17.768  0.00  0.00    +0.000 C 
BRANCH  28  29
ATOM     29  C   UNL     1      -2.012  10.430  17.344  0.00  0.00    +0.000 A 
ATOM     30  C   UNL     1      -2.504  10.132  16.066  0.00  0.00    +0.000 A 
ATOM     31  C   UNL     1      -3.774  10.563  15.691  0.00  0.00    +0.000 A 
ATOM     32  F   UNL     1      -4.232  10.263  14.469  0.00  0.00    +0.000 F 
ATOM     33  C   UNL     1      -4.573  11.294  16.561  0.00  0.00    +0.000 A 
ATOM     34  C   UNL     1      -4.078  11.601  17.819  0.00  0.00    +0.000 A 
ATOM     35  F   UNL     1      -4.832  12.310  18.669  0.00  0.00    +0.000 F 
ATOM     36  C   UNL     1      -2.808  11.185  18.216  0.00  0.00    +0.000 A 
ENDBRANCH  28  29
ENDBRANCH  26  28
ENDBRANCH  23  24
ENDBRANCH   1  23
TORSDOF 5
ENDMDL
