MODEL 1
REMARK VINA RESULT:      -8.0      0.000      0.000
REMARK  Name = 
REMARK  2 active torsions:
REMARK  status: ('A' for Active; 'I' for Inactive)
REMARK    1  A    between atoms: C_6  and  S_7
REMARK    2  A    between atoms: S_7  and  C_8
REMARK                            x       y       z     vdW  Elec       q    Type
REMARK                         _______ _______ _______ _____ _____    ______ ____
ROOT
ATOM      1  S   UNL     1       4.301   7.401  17.100  0.00  0.00    +0.000 S 
ENDROOT
BRANCH   1   7
ATOM      2  C   UNL     1       0.683   2.586  20.102  0.00  0.00    +0.000 A 
ATOM      3  C   UNL     1       1.119   2.173  18.849  0.00  0.00    +0.000 A 
ATOM      4  C   UNL     1       1.863   3.044  18.046  0.00  0.00    +0.000 A 
ATOM      5  C   UNL     1       2.188   4.329  18.466  0.00  0.00    +0.000 A 
ATOM      6  N   UNL     1       2.911   5.132  17.658  0.00  0.00    +0.000 NA
ATOM      7  C   UNL     1       3.247   6.370  18.110  0.00  0.00    +0.000 A 
ATOM      8  C   UNL     1       2.848   6.849  19.349  0.00  0.00    +0.000 A 
ATOM      9  C   UNL     1       2.082   6.027  20.168  0.00  0.00    +0.000 A 
ATOM     10  C   UNL     1       1.745   4.740  19.740  0.00  0.00    +0.000 A 
ATOM     11  C   UNL     1       0.992   3.869  20.548  0.00  0.00    +0.000 A 
ENDBRANCH   1   7
BRANCH   1  12
ATOM     12  C   UNL     1       5.462   6.276  16.428  0.00  0.00    +0.000 A 
ATOM     13  N   UNL     1       5.532   5.898  15.097  0.00  0.00    +0.000 N 
ATOM     14  C   UNL     1       6.449   5.001  14.640  0.00  0.00    +0.000 A 
ATOM     15  N   UNL     1       7.358   4.422  15.359  0.00  0.00    +0.000 NA
ATOM     16  C   UNL     1       7.335   4.769  16.678  0.00  0.00    +0.000 A 
ATOM     17  N   UNL     1       8.128   4.337  17.607  0.00  0.00    +0.000 NA
ATOM     18  C   UNL     1       7.662   4.999  18.734  0.00  0.00    +0.000 A 
ATOM     19  N   UNL     1       6.645   5.806  18.589  0.00  0.00    +0.000 NA
ATOM     20  C   UNL     1       6.367   5.715  17.251  0.00  0.00    +0.000 A 
ATOM     21  H   UNL     1       4.765   6.238  14.516  0.00  0.00    +0.000 HD
ENDBRANCH   1  12
TORSDOF 2
ENDMDL
MODEL 2
REMARK VINA RESULT:      -7.8      1.984      3.363
REMARK  Name = 
REMARK  2 active torsions:
REMARK  status: ('A' for Active; 'I' for Inactive)
REMARK    1  A    between atoms: C_6  and  S_7
REMARK    2  A    between atoms: S_7  and  C_8
REMARK                            x       y       z     vdW  Elec       q    Type
REMARK                         _______ _______ _______ _____ _____    ______ ____
ROOT
ATOM      1  S   UNL     1       3.632   3.551  18.428  0.00  0.00    +0.000 S 
ENDROOT
BRANCH   1   7
ATOM      2  C   UNL     1       1.196   9.762  19.311  0.00  0.00    +0.000 A 
ATOM      3  C   UNL     1       1.736   9.615  18.039  0.00  0.00    +0.000 A 
ATOM      4  C   UNL     1       2.327   8.403  17.667  0.00  0.00    +0.000 A 
ATOM      5  C   UNL     1       2.389   7.321  18.538  0.00  0.00    +0.000 A 
ATOM      6  N   UNL     1       2.964   6.170  18.132  0.00  0.00    +0.000 NA
ATOM      7  C   UNL     1       2.978   5.117  18.991  0.00  0.00    +0.000 A 
ATOM      8  C   UNL     1       2.456   5.189  20.275  0.00  0.00    +0.000 A 
ATOM      9  C   UNL     1       1.886   6.385  20.697  0.00  0.00    +0.000 A 
ATOM     10  C   UNL     1       1.835   7.476  19.825  0.00  0.00    +0.000 A 
ATOM     11  C   UNL     1       1.246   8.695  20.205  0.00  0.00    +0.000 A 
ENDBRANCH   1   7
BRANCH   1  12
ATOM     12  C   UNL     1       5.098   3.995  17.579  0.00  0.00    +0.000 A 
ATOM     13  N   UNL     1       5.357   3.735  16.243  0.00  0.00    +0.000 N 
ATOM     14  C   UNL     1       6.528   4.090  15.645  0.00  0.00    +0.000 A 
ATOM     15  N   UNL     1       7.507   4.715  16.219  0.00  0.00    +0.000 NA
ATOM     16  C   UNL     1       7.294   5.002  17.535  0.00  0.00    +0.000 A 
ATOM     17  N   UNL     1       8.107   5.615  18.336  0.00  0.00    +0.000 NA
ATOM     18  C   UNL     1       7.401   5.629  19.530  0.00  0.00    +0.000 A 
ATOM     19  N   UNL     1       6.217   5.077  19.545  0.00  0.00    +0.000 NA
ATOM     20  C   UNL     1       6.066   4.637  18.256  0.00  0.00    +0.000 A 
ATOM     21  H   UNL     1       4.666   3.143  15.781  0.00  0.00    +0.000 HD
ENDBRANCH   1  12
TORSDOF 2
ENDMDL
MODEL 3
REMARK VINA RESULT:      -7.6      2.061      3.998
REMARK  Name = 
REMARK  2 active torsions:
REMARK  status: ('A' for Active; 'I' for Inactive)
REMARK    1  A    between atoms: C_6  and  S_7
REMARK    2  A    between atoms: S_7  and  C_8
REMARK                            x       y       z     vdW  Elec       q    Type
REMARK                         _______ _______ _______ _____ _____    ______ ____
ROOT
ATOM      1  S   UNL     1       3.625   4.076  18.789  0.00  0.00    +0.000 S 
ENDROOT
BRANCH   1   7
ATOM      2  C   UNL     1       0.929  10.217  19.338  0.00  0.00    +0.000 A 
ATOM      3  C   UNL     1       1.613  10.080  18.137  0.00  0.00    +0.000 A 
ATOM      4  C   UNL     1       2.277   8.884  17.844  0.00  0.00    +0.000 A 
ATOM      5  C   UNL     1       2.271   7.809  18.726  0.00  0.00    +0.000 A 
ATOM      6  N   UNL     1       2.921   6.673  18.398  0.00  0.00    +0.000 NA
ATOM      7  C   UNL     1       2.867   5.625  19.261  0.00  0.00    +0.000 A 
ATOM      8  C   UNL     1       2.202   5.689  20.477  0.00  0.00    +0.000 A 
ATOM      9  C   UNL     1       1.554   6.870  20.822  0.00  0.00    +0.000 A 
ATOM     10  C   UNL     1       1.570   7.954  19.941  0.00  0.00    +0.000 A 
ATOM     11  C   UNL     1       0.907   9.157  20.242  0.00  0.00    +0.000 A 
ENDBRANCH   1   7
BRANCH   1  12
ATOM     12  C   UNL     1       5.276   4.521  18.410  0.00  0.00    +0.000 A 
ATOM     13  N   UNL     1       6.201   5.008  19.319  0.00  0.00    +0.000 N 
ATOM     14  C   UNL     1       7.467   5.356  18.957  0.00  0.00    +0.000 A 
ATOM     15  N   UNL     1       7.962   5.258  17.764  0.00  0.00    +0.000 NA
ATOM     16  C   UNL     1       7.089   4.773  16.833  0.00  0.00    +0.000 A 
ATOM     17  N   UNL     1       7.328   4.579  15.574  0.00  0.00    +0.000 NA
ATOM     18  C   UNL     1       6.115   4.091  15.110  0.00  0.00    +0.000 A 
ATOM     19  N   UNL     1       5.140   3.965  15.969  0.00  0.00    +0.000 NA
ATOM     20  C   UNL     1       5.703   4.394  17.141  0.00  0.00    +0.000 A 
ATOM     21  H   UNL     1       5.824   5.213  20.245  0.00  0.00    +0.000 HD
ENDBRANCH   1  12
TORSDOF 2
ENDMDL
MODEL 4
REMARK VINA RESULT:      -7.6      2.283      4.185
REMARK  Name = 
REMARK  2 active torsions:
REMARK  status: ('A' for Active; 'I' for Inactive)
REMARK    1  A    between atoms: C_6  and  S_7
REMARK    2  A    between atoms: S_7  and  C_8
REMARK                            x       y       z     vdW  Elec       q    Type
REMARK                         _______ _______ _______ _____ _____    ______ ____
ROOT
ATOM      1  S   UNL     1       3.639   4.439  19.062  0.00  0.00    +0.000 S 
ENDROOT
BRANCH   1   7
ATOM      2  C   UNL     1       0.644  10.359  20.189  0.00  0.00    +0.000 A 
ATOM      3  C   UNL     1       0.568   9.542  21.310  0.00  0.00    +0.000 A 
ATOM      4  C   UNL     1       1.104   8.250  21.270  0.00  0.00    +0.000 A 
ATOM      5  C   UNL     1       1.723   7.749  20.130  0.00  0.00    +0.000 A 
ATOM      6  N   UNL     1       2.229   6.499  20.140  0.00  0.00    +0.000 NA
ATOM      7  C   UNL     1       2.862   6.049  19.024  0.00  0.00    +0.000 A 
ATOM      8  C   UNL     1       2.978   6.809  17.870  0.00  0.00    +0.000 A 
ATOM      9  C   UNL     1       2.433   8.089  17.856  0.00  0.00    +0.000 A 
ATOM     10  C   UNL     1       1.800   8.587  18.997  0.00  0.00    +0.000 A 
ATOM     11  C   UNL     1       1.257   9.884  19.032  0.00  0.00    +0.000 A 
ENDBRANCH   1   7
BRANCH   1  12
ATOM     12  C   UNL     1       5.303   4.771  18.629  0.00  0.00    +0.000 A 
ATOM     13  N   UNL     1       6.261   5.296  19.481  0.00  0.00    +0.000 N 
ATOM     14  C   UNL     1       7.537   5.550  19.076  0.00  0.00    +0.000 A 
ATOM     15  N   UNL     1       8.010   5.321  17.893  0.00  0.00    +0.000 NA
ATOM     16  C   UNL     1       7.105   4.794  17.019  0.00  0.00    +0.000 A 
ATOM     17  N   UNL     1       7.318   4.474  15.782  0.00  0.00    +0.000 NA
ATOM     18  C   UNL     1       6.079   4.002  15.374  0.00  0.00    +0.000 A 
ATOM     19  N   UNL     1       5.110   4.000  16.251  0.00  0.00    +0.000 NA
ATOM     20  C   UNL     1       5.708   4.508  17.373  0.00  0.00    +0.000 A 
ATOM     21  H   UNL     1       5.905   5.602  20.387  0.00  0.00    +0.000 HD
ENDBRANCH   1  12
TORSDOF 2
ENDMDL
MODEL 5
REMARK VINA RESULT:      -7.6      3.434      5.915
REMARK  Name = 
REMARK  2 active torsions:
REMARK  status: ('A' for Active; 'I' for Inactive)
REMARK    1  A    between atoms: C_6  and  S_7
REMARK    2  A    between atoms: S_7  and  C_8
REMARK                            x       y       z     vdW  Elec       q    Type
REMARK                         _______ _______ _______ _____ _____    ______ ____
ROOT
ATOM      1  S   UNL     1       3.414   6.446  18.488  0.00  0.00    +0.000 S 
ENDROOT
BRANCH   1   7
ATOM      2  C   UNL     1      -0.630  11.025  21.310  0.00  0.00    +0.000 A 
ATOM      3  C   UNL     1      -0.198  10.096  22.249  0.00  0.00    +0.000 A 
ATOM      4  C   UNL     1       0.628   9.038  21.855  0.00  0.00    +0.000 A 
ATOM      5  C   UNL     1       1.041   8.882  20.537  0.00  0.00    +0.000 A 
ATOM      6  N   UNL     1       1.842   7.849  20.206  0.00  0.00    +0.000 NA
ATOM      7  C   UNL     1       2.261   7.743  18.917  0.00  0.00    +0.000 A 
ATOM      8  C   UNL     1       1.872   8.632  17.927  0.00  0.00    +0.000 A 
ATOM      9  C   UNL     1       1.026   9.683  18.268  0.00  0.00    +0.000 A 
ATOM     10  C   UNL     1       0.601   9.831  19.591  0.00  0.00    +0.000 A 
ATOM     11  C   UNL     1      -0.234  10.893  19.981  0.00  0.00    +0.000 A 
ENDBRANCH   1   7
BRANCH   1  12
ATOM     12  C   UNL     1       2.872   5.077  19.437  0.00  0.00    +0.000 A 
ATOM     13  N   UNL     1       2.592   5.107  20.794  0.00  0.00    +0.000 N 
ATOM     14  C   UNL     1       2.192   4.000  21.480  0.00  0.00    +0.000 A 
ATOM     15  N   UNL     1       2.004   2.825  20.969  0.00  0.00    +0.000 NA
ATOM     16  C   UNL     1       2.259   2.748  19.631  0.00  0.00    +0.000 A 
ATOM     17  N   UNL     1       2.151   1.697  18.881  0.00  0.00    +0.000 NA
ATOM     18  C   UNL     1       2.531   2.176  17.635  0.00  0.00    +0.000 A 
ATOM     19  N   UNL     1       2.867   3.435  17.543  0.00  0.00    +0.000 NA
ATOM     20  C   UNL     1       2.711   3.891  18.825  0.00  0.00    +0.000 A 
ATOM     21  H   UNL     1       2.837   5.980  21.262  0.00  0.00    +0.000 HD
ENDBRANCH   1  12
TORSDOF 2
ENDMDL
MODEL 6
REMARK VINA RESULT:      -7.6      2.354      6.416
REMARK  Name = 
REMARK  2 active torsions:
REMARK  status: ('A' for Active; 'I' for Inactive)
REMARK    1  A    between atoms: C_6  and  S_7
REMARK    2  A    between atoms: S_7  and  C_8
REMARK                            x       y       z     vdW  Elec       q    Type
REMARK                         _______ _______ _______ _____ _____    ______ ____
ROOT
ATOM      1  S   UNL     1       6.374   5.319  18.419  0.00  0.00    +0.000 S 
ENDROOT
BRANCH   1   7
ATOM      2  C   UNL     1       6.993   4.144  11.822  0.00  0.00    +0.000 A 
ATOM      3  C   UNL     1       7.910   5.098  12.245  0.00  0.00    +0.000 A 
ATOM      4  C   UNL     1       7.923   5.509  13.583  0.00  0.00    +0.000 A 
ATOM      5  C   UNL     1       7.038   4.985  14.518  0.00  0.00    +0.000 A 
ATOM      6  N   UNL     1       7.090   5.409  15.798  0.00  0.00    +0.000 NA
ATOM      7  C   UNL     1       6.238   4.852  16.699  0.00  0.00    +0.000 A 
ATOM      8  C   UNL     1       5.298   3.895  16.349  0.00  0.00    +0.000 A 
ATOM      9  C   UNL     1       5.230   3.479  15.023  0.00  0.00    +0.000 A 
ATOM     10  C   UNL     1       6.112   4.014  14.081  0.00  0.00    +0.000 A 
ATOM     11  C   UNL     1       6.092   3.603  12.736  0.00  0.00    +0.000 A 
ENDBRANCH   1   7
BRANCH   1  12
ATOM     12  C   UNL     1       5.142   4.357  19.209  0.00  0.00    +0.000 A 
ATOM     13  N   UNL     1       5.267   3.020  19.548  0.00  0.00    +0.000 N 
ATOM     14  C   UNL     1       4.261   2.321  20.145  0.00  0.00    +0.000 A 
ATOM     15  N   UNL     1       3.107   2.804  20.482  0.00  0.00    +0.000 NA
ATOM     16  C   UNL     1       2.939   4.122  20.174  0.00  0.00    +0.000 A 
ATOM     17  N   UNL     1       1.886   4.843  20.400  0.00  0.00    +0.000 NA
ATOM     18  C   UNL     1       2.252   6.080  19.891  0.00  0.00    +0.000 A 
ATOM     19  N   UNL     1       3.442   6.194  19.365  0.00  0.00    +0.000 NA
ATOM     20  C   UNL     1       3.968   4.939  19.515  0.00  0.00    +0.000 A 
ATOM     21  H   UNL     1       6.112   2.567  19.199  0.00  0.00    +0.000 HD
ENDBRANCH   1  12
TORSDOF 2
ENDMDL
MODEL 7
REMARK VINA RESULT:      -7.5      1.912      3.696
REMARK  Name = 
REMARK  2 active torsions:
REMARK  status: ('A' for Active; 'I' for Inactive)
REMARK    1  A    between atoms: C_6  and  S_7
REMARK    2  A    between atoms: S_7  and  C_8
REMARK                            x       y       z     vdW  Elec       q    Type
REMARK                         _______ _______ _______ _____ _____    ______ ____
ROOT
ATOM      1  S   UNL     1       3.897   4.121  17.691  0.00  0.00    +0.000 S 
ENDROOT
BRANCH   1   7
ATOM      2  C   UNL     1       0.690   9.290  20.569  0.00  0.00    +0.000 A 
ATOM      3  C   UNL     1       1.193   9.647  19.325  0.00  0.00    +0.000 A 
ATOM      4  C   UNL     1       1.925   8.720  18.575  0.00  0.00    +0.000 A 
ATOM      5  C   UNL     1       2.167   7.432  19.038  0.00  0.00    +0.000 A 
ATOM      6  N   UNL     1       2.874   6.571  18.277  0.00  0.00    +0.000 NA
ATOM      7  C   UNL     1       3.063   5.306  18.738  0.00  0.00    +0.000 A 
ATOM      8  C   UNL     1       2.588   4.878  19.969  0.00  0.00    +0.000 A 
ATOM      9  C   UNL     1       1.881   5.776  20.761  0.00  0.00    +0.000 A 
ATOM     10  C   UNL     1       1.649   7.075  20.300  0.00  0.00    +0.000 A 
ATOM     11  C   UNL     1       0.918   8.006  21.060  0.00  0.00    +0.000 A 
ENDBRANCH   1   7
BRANCH   1  12
ATOM     12  C   UNL     1       5.337   4.970  17.170  0.00  0.00    +0.000 A 
ATOM     13  N   UNL     1       6.033   5.902  17.923  0.00  0.00    +0.000 N 
ATOM     14  C   UNL     1       7.138   6.543  17.451  0.00  0.00    +0.000 A 
ATOM     15  N   UNL     1       7.677   6.357  16.289  0.00  0.00    +0.000 NA
ATOM     16  C   UNL     1       7.031   5.440  15.512  0.00  0.00    +0.000 A 
ATOM     17  N   UNL     1       7.360   5.070  14.314  0.00  0.00    +0.000 NA
ATOM     18  C   UNL     1       6.377   4.141  14.005  0.00  0.00    +0.000 A 
ATOM     19  N   UNL     1       5.462   3.900  14.906  0.00  0.00    +0.000 NA
ATOM     20  C   UNL     1       5.824   4.720  15.941  0.00  0.00    +0.000 A 
ATOM     21  H   UNL     1       5.580   6.168  18.799  0.00  0.00    +0.000 HD
ENDBRANCH   1  12
TORSDOF 2
ENDMDL
MODEL 8
REMARK VINA RESULT:      -7.5      2.519      4.053
REMARK  Name = 
REMARK  2 active torsions:
REMARK  status: ('A' for Active; 'I' for Inactive)
REMARK    1  A    between atoms: C_6  and  S_7
REMARK    2  A    between atoms: S_7  and  C_8
REMARK                            x       y       z     vdW  Elec       q    Type
REMARK                         _______ _______ _______ _____ _____    ______ ____
ROOT
ATOM      1  S   UNL     1       3.364   4.681  19.637  0.00  0.00    +0.000 S 
ENDROOT
BRANCH   1   7
ATOM      2  C   UNL     1       0.581  10.805  19.835  0.00  0.00    +0.000 A 
ATOM      3  C   UNL     1       0.441  10.156  21.055  0.00  0.00    +0.000 A 
ATOM      4  C   UNL     1       0.926   8.852  21.212  0.00  0.00    +0.000 A 
ATOM      5  C   UNL     1       1.555   8.175  20.173  0.00  0.00    +0.000 A 
ATOM      6  N   UNL     1       2.010   6.921  20.373  0.00  0.00    +0.000 NA
ATOM      7  C   UNL     1       2.654   6.297  19.352  0.00  0.00    +0.000 A 
ATOM      8  C   UNL     1       2.831   6.883  18.107  0.00  0.00    +0.000 A 
ATOM      9  C   UNL     1       2.338   8.167  17.898  0.00  0.00    +0.000 A 
ATOM     10  C   UNL     1       1.696   8.843  18.939  0.00  0.00    +0.000 A 
ATOM     11  C   UNL     1       1.205  10.150  18.776  0.00  0.00    +0.000 A 
ENDBRANCH   1   7
BRANCH   1  12
ATOM     12  C   UNL     1       4.529   4.505  18.341  0.00  0.00    +0.000 A 
ATOM     13  N   UNL     1       4.250   4.011  17.078  0.00  0.00    +0.000 N 
ATOM     14  C   UNL     1       5.207   3.880  16.117  0.00  0.00    +0.000 A 
ATOM     15  N   UNL     1       6.453   4.210  16.247  0.00  0.00    +0.000 NA
ATOM     16  C   UNL     1       6.775   4.711  17.475  0.00  0.00    +0.000 A 
ATOM     17  N   UNL     1       7.943   5.114  17.865  0.00  0.00    +0.000 NA
ATOM     18  C   UNL     1       7.704   5.509  19.173  0.00  0.00    +0.000 A 
ATOM     19  N   UNL     1       6.488   5.387  19.634  0.00  0.00    +0.000 NA
ATOM     20  C   UNL     1       5.804   4.867  18.567  0.00  0.00    +0.000 A 
ATOM     21  H   UNL     1       3.310   3.629  16.965  0.00  0.00    +0.000 HD
ENDBRANCH   1  12
TORSDOF 2
ENDMDL
MODEL 9
REMARK VINA RESULT:      -7.4      2.141      6.281
REMARK  Name = 
REMARK  2 active torsions:
REMARK  status: ('A' for Active; 'I' for Inactive)
REMARK    1  A    between atoms: C_6  and  S_7
REMARK    2  A    between atoms: S_7  and  C_8
REMARK                            x       y       z     vdW  Elec       q    Type
REMARK                         _______ _______ _______ _____ _____    ______ ____
ROOT
ATOM      1  S   UNL     1       4.657   5.560  18.115  0.00  0.00    +0.000 S 
ENDROOT
BRANCH   1   7
ATOM      2  C   UNL     1       6.953   3.917  12.007  0.00  0.00    +0.000 A 
ATOM      3  C   UNL     1       5.672   3.418  12.207  0.00  0.00    +0.000 A 
ATOM      4  C   UNL     1       5.026   3.623  13.432  0.00  0.00    +0.000 A 
ATOM      5  C   UNL     1       5.631   4.322  14.470  0.00  0.00    +0.000 A 
ATOM      6  N   UNL     1       4.968   4.499  15.631  0.00  0.00    +0.000 NA
ATOM      7  C   UNL     1       5.568   5.219  16.615  0.00  0.00    +0.000 A 
ATOM      8  C   UNL     1       6.844   5.748  16.485  0.00  0.00    +0.000 A 
ATOM      9  C   UNL     1       7.534   5.543  15.295  0.00  0.00    +0.000 A 
ATOM     10  C   UNL     1       6.930   4.829  14.257  0.00  0.00    +0.000 A 
ATOM     11  C   UNL     1       7.584   4.620  13.030  0.00  0.00    +0.000 A 
ENDBRANCH   1   7
BRANCH   1  12
ATOM     12  C   UNL     1       3.820   4.056  18.443  0.00  0.00    +0.000 A 
ATOM     13  N   UNL     1       4.177   2.817  17.937  0.00  0.00    +0.000 N 
ATOM     14  C   UNL     1       3.471   1.685  18.214  0.00  0.00    +0.000 A 
ATOM     15  N   UNL     1       2.427   1.618  18.978  0.00  0.00    +0.000 NA
ATOM     16  C   UNL     1       2.042   2.815  19.507  0.00  0.00    +0.000 A 
ATOM     17  N   UNL     1       1.037   3.024  20.298  0.00  0.00    +0.000 NA
ATOM     18  C   UNL     1       1.106   4.392  20.517  0.00  0.00    +0.000 A 
ATOM     19  N   UNL     1       2.067   5.055  19.931  0.00  0.00    +0.000 NA
ATOM     20  C   UNL     1       2.739   4.081  19.242  0.00  0.00    +0.000 A 
ATOM     21  H   UNL     1       4.921   2.838  17.238  0.00  0.00    +0.000 HD
ENDBRANCH   1  12
TORSDOF 2
ENDMDL
