MODEL 1
REMARK VINA RESULT:      -6.8      0.000      0.000
REMARK  Name = 
REMARK  12 active torsions:
REMARK  status: ('A' for Active; 'I' for Inactive)
REMARK    1  A    between atoms: C_1  and  N_2
REMARK    2  A    between atoms: C_3  and  C_5
REMARK    3  A    between atoms: C_5  and  C_6
REMARK    4  A    between atoms: C_5  and  N_13
REMARK    5  A    between atoms: C_6  and  C_7
REMARK    6  A    between atoms: C_14  and  C_16
REMARK    7  A    between atoms: C_16  and  N_17
REMARK    8  A    between atoms: C_16  and  C_22
REMARK    9  A    between atoms: C_18  and  C_20
REMARK   10  A    between atoms: C_20  and  S_21
REMARK   11  A    between atoms: C_22  and  C_23
REMARK   12  A    between atoms: C_22  and  O_24
REMARK                            x       y       z     vdW  Elec       q    Type
REMARK                         _______ _______ _______ _____ _____    ______ ____
ROOT
ATOM      1  N   UNL     1       3.949   6.703  17.744  0.00  0.00    +0.000 N 
ATOM      2  C   UNL     1       4.260   5.601  16.976  0.00  0.00    +0.000 C 
ATOM      3  O   UNL     1       3.629   4.548  17.037  0.00  0.00    +0.000 OA
ATOM      4  H   UNL     1       4.377   7.584  17.477  0.00  0.00    +0.000 HD
ENDROOT
BRANCH   1   5
ATOM      5  C   UNL     1       2.658   6.799  18.429  0.00  0.00    +0.000 C 
BRANCH   5   8
ATOM      6  C   UNL     1       0.893  10.062  19.381  0.00  0.00    +0.000 C 
ATOM      7  N   UNL     1       1.457   8.733  19.377  0.00  0.00    +0.000 N 
ATOM      8  C   UNL     1       2.122   8.249  18.270  0.00  0.00    +0.000 C 
ATOM      9  O   UNL     1       2.255   8.902  17.238  0.00  0.00    +0.000 OA
ATOM     10  H   UNL     1       1.291   8.133  20.175  0.00  0.00    +0.000 HD
ENDBRANCH   5   8
BRANCH   5  11
ATOM     11  C   UNL     1       2.739   6.341  19.904  0.00  0.00    +0.000 C 
BRANCH  11  12
ATOM     12  C   UNL     1       2.110   4.993  20.172  0.00  0.00    +0.000 A 
ATOM     13  C   UNL     1       2.321   4.333  21.392  0.00  0.00    +0.000 A 
ATOM     14  C   UNL     1       1.895   3.016  21.562  0.00  0.00    +0.000 A 
ATOM     15  C   UNL     1       1.231   2.356  20.529  0.00  0.00    +0.000 A 
ATOM     16  C   UNL     1       0.946   3.031  19.345  0.00  0.00    +0.000 A 
ATOM     17  C   UNL     1       1.377   4.345  19.169  0.00  0.00    +0.000 A 
ENDBRANCH  11  12
ENDBRANCH   5  11
ENDBRANCH   1   5
BRANCH   2  18
ATOM     18  C   UNL     1       5.551   5.753  16.149  0.00  0.00    +0.000 C 
BRANCH  18  19
ATOM     19  N   UNL     1       6.663   5.832  17.104  0.00  0.00    +0.000 N 
ATOM     20  C   UNL     1       7.197   7.035  17.502  0.00  0.00    +0.000 C 
ATOM     21  O   UNL     1       6.849   8.110  17.016  0.00  0.00    +0.000 OA
ATOM     22  H   UNL     1       6.871   4.991  17.629  0.00  0.00    +0.000 HD
BRANCH  20  23
ATOM     23  C   UNL     1       8.255   6.930  18.589  0.00  0.00    +0.000 C 
BRANCH  23  24
ATOM     24  S   UNL     1       7.865   5.551  19.701  0.00  0.00    +0.000 S 
ATOM     25  H   UNL     1       7.682   4.641  18.730  0.00  0.00    +0.000 HD
ENDBRANCH  23  24
ENDBRANCH  20  23
ENDBRANCH  18  19
BRANCH  18  26
ATOM     26  C   UNL     1       5.740   4.544  15.205  0.00  0.00    +0.000 C 
ATOM     27  C   UNL     1       6.890   4.732  14.225  0.00  0.00    +0.000 C 
BRANCH  26  28
ATOM     28  O   UNL     1       6.001   3.352  15.969  0.00  0.00    +0.000 OA
ATOM     29  H   UNL     1       5.153   2.891  16.099  0.00  0.00    +0.000 HD
ENDBRANCH  26  28
ENDBRANCH  18  26
ENDBRANCH   2  18
TORSDOF 10
ENDMDL
MODEL 2
REMARK VINA RESULT:      -6.7      2.661      6.781
REMARK  Name = 
REMARK  12 active torsions:
REMARK  status: ('A' for Active; 'I' for Inactive)
REMARK    1  A    between atoms: C_1  and  N_2
REMARK    2  A    between atoms: C_3  and  C_5
REMARK    3  A    between atoms: C_5  and  C_6
REMARK    4  A    between atoms: C_5  and  N_13
REMARK    5  A    between atoms: C_6  and  C_7
REMARK    6  A    between atoms: C_14  and  C_16
REMARK    7  A    between atoms: C_16  and  N_17
REMARK    8  A    between atoms: C_16  and  C_22
REMARK    9  A    between atoms: C_18  and  C_20
REMARK   10  A    between atoms: C_20  and  S_21
REMARK   11  A    between atoms: C_22  and  C_23
REMARK   12  A    between atoms: C_22  and  O_24
REMARK                            x       y       z     vdW  Elec       q    Type
REMARK                         _______ _______ _______ _____ _____    ______ ____
ROOT
ATOM      1  N   UNL     1       4.613   4.287  17.759  0.00  0.00    +0.000 N 
ATOM      2  C   UNL     1       4.000   3.125  18.178  0.00  0.00    +0.000 C 
ATOM      3  O   UNL     1       4.163   2.046  17.613  0.00  0.00    +0.000 OA
ATOM      4  H   UNL     1       4.595   5.073  18.401  0.00  0.00    +0.000 HD
ENDROOT
BRANCH   1   5
ATOM      5  C   UNL     1       5.744   4.246  16.829  0.00  0.00    +0.000 C 
BRANCH   5   8
ATOM      6  C   UNL     1       7.966   5.622  19.628  0.00  0.00    +0.000 C 
ATOM      7  N   UNL     1       6.851   5.259  18.786  0.00  0.00    +0.000 N 
ATOM      8  C   UNL     1       7.046   4.545  17.622  0.00  0.00    +0.000 C 
ATOM      9  O   UNL     1       8.160   4.199  17.234  0.00  0.00    +0.000 OA
ATOM     10  H   UNL     1       5.930   5.602  19.025  0.00  0.00    +0.000 HD
ENDBRANCH   5   8
BRANCH   5  11
ATOM     11  C   UNL     1       5.543   5.184  15.616  0.00  0.00    +0.000 C 
BRANCH  11  12
ATOM     12  C   UNL     1       6.144   4.672  14.327  0.00  0.00    +0.000 A 
ATOM     13  C   UNL     1       7.327   5.225  13.817  0.00  0.00    +0.000 A 
ATOM     14  C   UNL     1       7.774   4.880  12.542  0.00  0.00    +0.000 A 
ATOM     15  C   UNL     1       7.060   3.960  11.776  0.00  0.00    +0.000 A 
ATOM     16  C   UNL     1       5.928   3.345  12.307  0.00  0.00    +0.000 A 
ATOM     17  C   UNL     1       5.476   3.693  13.578  0.00  0.00    +0.000 A 
ENDBRANCH  11  12
ENDBRANCH   5  11
ENDBRANCH   1   5
BRANCH   2  18
ATOM     18  C   UNL     1       2.983   3.324  19.318  0.00  0.00    +0.000 C 
BRANCH  18  19
ATOM     19  N   UNL     1       2.477   4.697  19.203  0.00  0.00    +0.000 N 
ATOM     20  C   UNL     1       2.332   5.514  20.300  0.00  0.00    +0.000 C 
ATOM     21  O   UNL     1       2.520   5.121  21.451  0.00  0.00    +0.000 OA
ATOM     22  H   UNL     1       2.454   5.097  18.273  0.00  0.00    +0.000 HD
BRANCH  20  23
ATOM     23  C   UNL     1       1.915   6.940  19.978  0.00  0.00    +0.000 C 
BRANCH  23  24
ATOM     24  S   UNL     1       2.576   7.427  18.360  0.00  0.00    +0.000 S 
ATOM     25  H   UNL     1       3.828   6.997  18.590  0.00  0.00    +0.000 HD
ENDBRANCH  23  24
ENDBRANCH  20  23
ENDBRANCH  18  19
BRANCH  18  26
ATOM     26  C   UNL     1       1.822   2.313  19.195  0.00  0.00    +0.000 C 
ATOM     27  C   UNL     1       0.568   2.757  19.938  0.00  0.00    +0.000 C 
BRANCH  26  28
ATOM     28  O   UNL     1       1.470   2.123  17.812  0.00  0.00    +0.000 OA
ATOM     29  H   UNL     1       0.983   2.915  17.518  0.00  0.00    +0.000 HD
ENDBRANCH  26  28
ENDBRANCH  18  26
ENDBRANCH   2  18
TORSDOF 10
ENDMDL
MODEL 3
REMARK VINA RESULT:      -6.6      1.658      2.835
REMARK  Name = 
REMARK  12 active torsions:
REMARK  status: ('A' for Active; 'I' for Inactive)
REMARK    1  A    between atoms: C_1  and  N_2
REMARK    2  A    between atoms: C_3  and  C_5
REMARK    3  A    between atoms: C_5  and  C_6
REMARK    4  A    between atoms: C_5  and  N_13
REMARK    5  A    between atoms: C_6  and  C_7
REMARK    6  A    between atoms: C_14  and  C_16
REMARK    7  A    between atoms: C_16  and  N_17
REMARK    8  A    between atoms: C_16  and  C_22
REMARK    9  A    between atoms: C_18  and  C_20
REMARK   10  A    between atoms: C_20  and  S_21
REMARK   11  A    between atoms: C_22  and  C_23
REMARK   12  A    between atoms: C_22  and  O_24
REMARK                            x       y       z     vdW  Elec       q    Type
REMARK                         _______ _______ _______ _____ _____    ______ ____
ROOT
ATOM      1  N   UNL     1       3.881   6.556  18.407  0.00  0.00    +0.000 N 
ATOM      2  C   UNL     1       4.296   5.525  17.592  0.00  0.00    +0.000 C 
ATOM      3  O   UNL     1       3.538   4.642  17.196  0.00  0.00    +0.000 OA
ATOM      4  H   UNL     1       4.511   7.346  18.506  0.00  0.00    +0.000 HD
ENDROOT
BRANCH   1   5
ATOM      5  C   UNL     1       2.456   6.847  18.582  0.00  0.00    +0.000 C 
BRANCH   5   8
ATOM      6  C   UNL     1       1.133  10.428  18.894  0.00  0.00    +0.000 C 
ATOM      7  N   UNL     1       1.458   9.039  19.114  0.00  0.00    +0.000 N 
ATOM      8  C   UNL     1       2.205   8.331  18.196  0.00  0.00    +0.000 C 
ATOM      9  O   UNL     1       2.615   8.829  17.150  0.00  0.00    +0.000 OA
ATOM     10  H   UNL     1       1.064   8.570  19.920  0.00  0.00    +0.000 HD
ENDBRANCH   5   8
BRANCH   5  11
ATOM     11  C   UNL     1       1.953   6.497  20.001  0.00  0.00    +0.000 C 
BRANCH  11  12
ATOM     12  C   UNL     1       1.850   5.013  20.276  0.00  0.00    +0.000 A 
ATOM     13  C   UNL     1       1.100   4.179  19.435  0.00  0.00    +0.000 A 
ATOM     14  C   UNL     1       0.856   2.853  19.794  0.00  0.00    +0.000 A 
ATOM     15  C   UNL     1       1.381   2.342  20.979  0.00  0.00    +0.000 A 
ATOM     16  C   UNL     1       2.195   3.141  21.779  0.00  0.00    +0.000 A 
ATOM     17  C   UNL     1       2.434   4.468  21.426  0.00  0.00    +0.000 A 
ENDBRANCH  11  12
ENDBRANCH   5  11
ENDBRANCH   1   5
BRANCH   2  18
ATOM     18  C   UNL     1       5.816   5.492  17.341  0.00  0.00    +0.000 C 
BRANCH  18  19
ATOM     19  N   UNL     1       6.009   5.526  15.886  0.00  0.00    +0.000 N 
ATOM     20  C   UNL     1       7.057   4.877  15.276  0.00  0.00    +0.000 C 
ATOM     21  O   UNL     1       7.949   4.313  15.909  0.00  0.00    +0.000 OA
ATOM     22  H   UNL     1       5.226   5.848  15.331  0.00  0.00    +0.000 HD
BRANCH  20  23
ATOM     23  C   UNL     1       7.027   4.915  13.756  0.00  0.00    +0.000 C 
BRANCH  23  24
ATOM     24  S   UNL     1       5.906   3.635  13.127  0.00  0.00    +0.000 S 
ATOM     25  H   UNL     1       6.623   2.593  13.580  0.00  0.00    +0.000 HD
ENDBRANCH  23  24
ENDBRANCH  20  23
ENDBRANCH  18  19
BRANCH  18  26
ATOM     26  C   UNL     1       6.504   6.708  18.001  0.00  0.00    +0.000 C 
ATOM     27  C   UNL     1       7.823   6.349  18.673  0.00  0.00    +0.000 C 
BRANCH  26  28
ATOM     28  O   UNL     1       6.772   7.724  17.017  0.00  0.00    +0.000 OA
ATOM     29  H   UNL     1       7.263   7.308  16.287  0.00  0.00    +0.000 HD
ENDBRANCH  26  28
ENDBRANCH  18  26
ENDBRANCH   2  18
TORSDOF 10
ENDMDL
MODEL 4
REMARK VINA RESULT:      -6.4      3.408      6.998
REMARK  Name = 
REMARK  12 active torsions:
REMARK  status: ('A' for Active; 'I' for Inactive)
REMARK    1  A    between atoms: C_1  and  N_2
REMARK    2  A    between atoms: C_3  and  C_5
REMARK    3  A    between atoms: C_5  and  C_6
REMARK    4  A    between atoms: C_5  and  N_13
REMARK    5  A    between atoms: C_6  and  C_7
REMARK    6  A    between atoms: C_14  and  C_16
REMARK    7  A    between atoms: C_16  and  N_17
REMARK    8  A    between atoms: C_16  and  C_22
REMARK    9  A    between atoms: C_18  and  C_20
REMARK   10  A    between atoms: C_20  and  S_21
REMARK   11  A    between atoms: C_22  and  C_23
REMARK   12  A    between atoms: C_22  and  O_24
REMARK                            x       y       z     vdW  Elec       q    Type
REMARK                         _______ _______ _______ _____ _____    ______ ____
ROOT
ATOM      1  N   UNL     1       2.154   6.989  20.178  0.00  0.00    +0.000 N 
ATOM      2  C   UNL     1       1.778   8.167  19.567  0.00  0.00    +0.000 C 
ATOM      3  O   UNL     1       2.038   8.421  18.393  0.00  0.00    +0.000 OA
ATOM      4  H   UNL     1       1.717   6.774  21.068  0.00  0.00    +0.000 HD
ENDROOT
BRANCH   1   5
ATOM      5  C   UNL     1       2.590   5.839  19.382  0.00  0.00    +0.000 C 
BRANCH   5   8
ATOM      6  C   UNL     1       1.692   2.987  21.776  0.00  0.00    +0.000 C 
ATOM      7  N   UNL     1       2.270   4.155  21.156  0.00  0.00    +0.000 N 
ATOM      8  C   UNL     1       1.860   4.571  19.907  0.00  0.00    +0.000 C 
ATOM      9  O   UNL     1       1.007   3.973  19.255  0.00  0.00    +0.000 OA
ATOM     10  H   UNL     1       3.037   4.622  21.622  0.00  0.00    +0.000 HD
ENDBRANCH   5   8
BRANCH   5  11
ATOM     11  C   UNL     1       4.129   5.687  19.362  0.00  0.00    +0.000 C 
BRANCH  11  12
ATOM     12  C   UNL     1       4.720   5.534  17.979  0.00  0.00    +0.000 A 
ATOM     13  C   UNL     1       4.824   6.636  17.118  0.00  0.00    +0.000 A 
ATOM     14  C   UNL     1       5.195   6.456  15.785  0.00  0.00    +0.000 A 
ATOM     15  C   UNL     1       5.492   5.180  15.308  0.00  0.00    +0.000 A 
ATOM     16  C   UNL     1       5.469   4.092  16.177  0.00  0.00    +0.000 A 
ATOM     17  C   UNL     1       5.093   4.269  17.508  0.00  0.00    +0.000 A 
ENDBRANCH  11  12
ENDBRANCH   5  11
ENDBRANCH   1   5
BRANCH   2  18
ATOM     18  C   UNL     1       1.138   9.194  20.520  0.00  0.00    +0.000 C 
BRANCH  18  19
ATOM     19  N   UNL     1       0.051   9.846  19.778  0.00  0.00    +0.000 N 
ATOM     20  C   UNL     1       0.088  11.182  19.456  0.00  0.00    +0.000 C 
ATOM     21  O   UNL     1       0.977  11.936  19.850  0.00  0.00    +0.000 OA
ATOM     22  H   UNL     1      -0.612   9.236  19.317  0.00  0.00    +0.000 HD
BRANCH  20  23
ATOM     23  C   UNL     1      -1.061  11.654  18.579  0.00  0.00    +0.000 C 
BRANCH  23  24
ATOM     24  S   UNL     1      -1.763  10.250  17.669  0.00  0.00    +0.000 S 
ATOM     25  H   UNL     1      -2.752  10.004  18.544  0.00  0.00    +0.000 HD
ENDBRANCH  23  24
ENDBRANCH  20  23
ENDBRANCH  18  19
BRANCH  18  26
ATOM     26  C   UNL     1       0.582   8.496  21.781  0.00  0.00    +0.000 C 
ATOM     27  C   UNL     1       0.345   9.460  22.937  0.00  0.00    +0.000 C 
BRANCH  26  28
ATOM     28  O   UNL     1      -0.669   7.850  21.483  0.00  0.00    +0.000 OA
ATOM     29  H   UNL     1      -0.484   6.908  21.314  0.00  0.00    +0.000 HD
ENDBRANCH  26  28
ENDBRANCH  18  26
ENDBRANCH   2  18
TORSDOF 10
ENDMDL
MODEL 5
REMARK VINA RESULT:      -6.4      2.607      6.113
REMARK  Name = 
REMARK  12 active torsions:
REMARK  status: ('A' for Active; 'I' for Inactive)
REMARK    1  A    between atoms: C_1  and  N_2
REMARK    2  A    between atoms: C_3  and  C_5
REMARK    3  A    between atoms: C_5  and  C_6
REMARK    4  A    between atoms: C_5  and  N_13
REMARK    5  A    between atoms: C_6  and  C_7
REMARK    6  A    between atoms: C_14  and  C_16
REMARK    7  A    between atoms: C_16  and  N_17
REMARK    8  A    between atoms: C_16  and  C_22
REMARK    9  A    between atoms: C_18  and  C_20
REMARK   10  A    between atoms: C_20  and  S_21
REMARK   11  A    between atoms: C_22  and  C_23
REMARK   12  A    between atoms: C_22  and  O_24
REMARK                            x       y       z     vdW  Elec       q    Type
REMARK                         _______ _______ _______ _____ _____    ______ ____
ROOT
ATOM      1  N   UNL     1       5.289   5.248  17.865  0.00  0.00    +0.000 N 
ATOM      2  C   UNL     1       4.707   4.408  18.790  0.00  0.00    +0.000 C 
ATOM      3  O   UNL     1       5.356   3.618  19.474  0.00  0.00    +0.000 OA
ATOM      4  H   UNL     1       4.717   6.005  17.508  0.00  0.00    +0.000 HD
ENDROOT
BRANCH   1   5
ATOM      5  C   UNL     1       6.735   5.486  17.874  0.00  0.00    +0.000 C 
BRANCH   5   8
ATOM      6  C   UNL     1       8.346   8.957  18.034  0.00  0.00    +0.000 C 
ATOM      7  N   UNL     1       7.996   7.573  18.246  0.00  0.00    +0.000 N 
ATOM      8  C   UNL     1       6.991   6.976  17.514  0.00  0.00    +0.000 C 
ATOM      9  O   UNL     1       6.338   7.581  16.666  0.00  0.00    +0.000 OA
ATOM     10  H   UNL     1       8.449   7.067  18.996  0.00  0.00    +0.000 HD
ENDBRANCH   5   8
BRANCH   5  11
ATOM     11  C   UNL     1       7.500   4.502  16.959  0.00  0.00    +0.000 C 
BRANCH  11  12
ATOM     12  C   UNL     1       7.011   4.476  15.528  0.00  0.00    +0.000 A 
ATOM     13  C   UNL     1       5.875   3.735  15.171  0.00  0.00    +0.000 A 
ATOM     14  C   UNL     1       5.539   3.564  13.828  0.00  0.00    +0.000 A 
ATOM     15  C   UNL     1       6.317   4.153  12.833  0.00  0.00    +0.000 A 
ATOM     16  C   UNL     1       7.399   4.956  13.182  0.00  0.00    +0.000 A 
ATOM     17  C   UNL     1       7.741   5.124  14.522  0.00  0.00    +0.000 A 
ENDBRANCH  11  12
ENDBRANCH   5  11
ENDBRANCH   1   5
BRANCH   2  18
ATOM     18  C   UNL     1       3.167   4.438  18.788  0.00  0.00    +0.000 C 
BRANCH  18  19
ATOM     19  N   UNL     1       2.768   5.851  18.770  0.00  0.00    +0.000 N 
ATOM     20  C   UNL     1       2.152   6.447  19.845  0.00  0.00    +0.000 C 
ATOM     21  O   UNL     1       1.808   5.820  20.846  0.00  0.00    +0.000 OA
ATOM     22  H   UNL     1       3.163   6.425  18.035  0.00  0.00    +0.000 HD
BRANCH  20  23
ATOM     23  C   UNL     1       1.926   7.944  19.697  0.00  0.00    +0.000 C 
BRANCH  23  24
ATOM     24  S   UNL     1       2.218   8.446  17.978  0.00  0.00    +0.000 S 
ATOM     25  H   UNL     1       2.629   9.691  18.268  0.00  0.00    +0.000 HD
ENDBRANCH  23  24
ENDBRANCH  20  23
ENDBRANCH  18  19
BRANCH  18  26
ATOM     26  C   UNL     1       2.609   3.709  17.545  0.00  0.00    +0.000 C 
ATOM     27  C   UNL     1       2.745   2.194  17.636  0.00  0.00    +0.000 C 
BRANCH  26  28
ATOM     28  O   UNL     1       1.213   4.016  17.372  0.00  0.00    +0.000 OA
ATOM     29  H   UNL     1       0.963   4.660  18.060  0.00  0.00    +0.000 HD
ENDBRANCH  26  28
ENDBRANCH  18  26
ENDBRANCH   2  18
TORSDOF 10
ENDMDL
MODEL 6
REMARK VINA RESULT:      -6.4      2.726      6.451
REMARK  Name = 
REMARK  12 active torsions:
REMARK  status: ('A' for Active; 'I' for Inactive)
REMARK    1  A    between atoms: C_1  and  N_2
REMARK    2  A    between atoms: C_3  and  C_5
REMARK    3  A    between atoms: C_5  and  C_6
REMARK    4  A    between atoms: C_5  and  N_13
REMARK    5  A    between atoms: C_6  and  C_7
REMARK    6  A    between atoms: C_14  and  C_16
REMARK    7  A    between atoms: C_16  and  N_17
REMARK    8  A    between atoms: C_16  and  C_22
REMARK    9  A    between atoms: C_18  and  C_20
REMARK   10  A    between atoms: C_20  and  S_21
REMARK   11  A    between atoms: C_22  and  C_23
REMARK   12  A    between atoms: C_22  and  O_24
REMARK                            x       y       z     vdW  Elec       q    Type
REMARK                         _______ _______ _______ _____ _____    ______ ____
ROOT
ATOM      1  N   UNL     1       5.104   4.960  18.037  0.00  0.00    +0.000 N 
ATOM      2  C   UNL     1       4.564   3.693  18.091  0.00  0.00    +0.000 C 
ATOM      3  O   UNL     1       4.722   2.863  17.198  0.00  0.00    +0.000 OA
ATOM      4  H   UNL     1       5.107   5.496  18.899  0.00  0.00    +0.000 HD
ENDROOT
BRANCH   1   5
ATOM      5  C   UNL     1       6.164   5.283  17.078  0.00  0.00    +0.000 C 
BRANCH   5   8
ATOM      6  C   UNL     1       7.976   8.606  17.666  0.00  0.00    +0.000 C 
ATOM      7  N   UNL     1       7.122   7.554  17.168  0.00  0.00    +0.000 N 
ATOM      8  C   UNL     1       7.135   6.299  17.740  0.00  0.00    +0.000 C 
ATOM      9  O   UNL     1       7.873   6.006  18.679  0.00  0.00    +0.000 OA
ATOM     10  H   UNL     1       6.567   7.731  16.341  0.00  0.00    +0.000 HD
ENDBRANCH   5   8
BRANCH   5  11
ATOM     11  C   UNL     1       5.602   5.776  15.724  0.00  0.00    +0.000 C 
BRANCH  11  12
ATOM     12  C   UNL     1       6.135   5.029  14.521  0.00  0.00    +0.000 A 
ATOM     13  C   UNL     1       7.367   5.378  13.949  0.00  0.00    +0.000 A 
ATOM     14  C   UNL     1       7.764   4.816  12.736  0.00  0.00    +0.000 A 
ATOM     15  C   UNL     1       6.950   3.881  12.099  0.00  0.00    +0.000 A 
ATOM     16  C   UNL     1       5.764   3.469  12.702  0.00  0.00    +0.000 A 
ATOM     17  C   UNL     1       5.361   4.034  13.910  0.00  0.00    +0.000 A 
ENDBRANCH  11  12
ENDBRANCH   5  11
ENDBRANCH   1   5
BRANCH   2  18
ATOM     18  C   UNL     1       3.628   3.458  19.292  0.00  0.00    +0.000 C 
BRANCH  18  19
ATOM     19  N   UNL     1       2.903   4.714  19.521  0.00  0.00    +0.000 N 
ATOM     20  C   UNL     1       2.263   4.980  20.708  0.00  0.00    +0.000 C 
ATOM     21  O   UNL     1       2.172   4.151  21.614  0.00  0.00    +0.000 OA
ATOM     22  H   UNL     1       3.081   5.466  18.866  0.00  0.00    +0.000 HD
BRANCH  20  23
ATOM     23  C   UNL     1       1.674   6.377  20.812  0.00  0.00    +0.000 C 
BRANCH  23  24
ATOM     24  S   UNL     1       2.211   7.382  19.399  0.00  0.00    +0.000 S 
ATOM     25  H   UNL     1       1.491   6.718  18.480  0.00  0.00    +0.000 HD
ENDBRANCH  23  24
ENDBRANCH  20  23
ENDBRANCH  18  19
BRANCH  18  26
ATOM     26  C   UNL     1       2.635   2.313  18.994  0.00  0.00    +0.000 C 
ATOM     27  C   UNL     1       1.593   2.689  17.949  0.00  0.00    +0.000 C 
BRANCH  26  28
ATOM     28  O   UNL     1       3.341   1.153  18.515  0.00  0.00    +0.000 OA
ATOM     29  H   UNL     1       4.068   1.462  17.944  0.00  0.00    +0.000 HD
ENDBRANCH  26  28
ENDBRANCH  18  26
ENDBRANCH   2  18
TORSDOF 10
ENDMDL
MODEL 7
REMARK VINA RESULT:      -6.4      3.712      7.117
REMARK  Name = 
REMARK  12 active torsions:
REMARK  status: ('A' for Active; 'I' for Inactive)
REMARK    1  A    between atoms: C_1  and  N_2
REMARK    2  A    between atoms: C_3  and  C_5
REMARK    3  A    between atoms: C_5  and  C_6
REMARK    4  A    between atoms: C_5  and  N_13
REMARK    5  A    between atoms: C_6  and  C_7
REMARK    6  A    between atoms: C_14  and  C_16
REMARK    7  A    between atoms: C_16  and  N_17
REMARK    8  A    between atoms: C_16  and  C_22
REMARK    9  A    between atoms: C_18  and  C_20
REMARK   10  A    between atoms: C_20  and  S_21
REMARK   11  A    between atoms: C_22  and  C_23
REMARK   12  A    between atoms: C_22  and  O_24
REMARK                            x       y       z     vdW  Elec       q    Type
REMARK                         _______ _______ _______ _____ _____    ______ ____
ROOT
ATOM      1  N   UNL     1       2.061   7.035  20.494  0.00  0.00    +0.000 N 
ATOM      2  C   UNL     1       1.685   8.209  19.878  0.00  0.00    +0.000 C 
ATOM      3  O   UNL     1       1.864   8.420  18.680  0.00  0.00    +0.000 OA
ATOM      4  H   UNL     1       1.686   6.862  21.421  0.00  0.00    +0.000 HD
ENDROOT
BRANCH   1   5
ATOM      5  C   UNL     1       2.392   5.846  19.704  0.00  0.00    +0.000 C 
BRANCH   5   8
ATOM      6  C   UNL     1       2.191   2.585  21.703  0.00  0.00    +0.000 C 
ATOM      7  N   UNL     1       2.639   3.782  21.031  0.00  0.00    +0.000 N 
ATOM      8  C   UNL     1       1.745   4.607  20.383  0.00  0.00    +0.000 C 
ATOM      9  O   UNL     1       0.540   4.368  20.328  0.00  0.00    +0.000 OA
ATOM     10  H   UNL     1       3.632   3.966  20.979  0.00  0.00    +0.000 HD
ENDBRANCH   5   8
BRANCH   5  11
ATOM     11  C   UNL     1       3.915   5.690  19.486  0.00  0.00    +0.000 C 
BRANCH  11  12
ATOM     12  C   UNL     1       4.324   5.554  18.036  0.00  0.00    +0.000 A 
ATOM     13  C   UNL     1       4.536   4.290  17.467  0.00  0.00    +0.000 A 
ATOM     14  C   UNL     1       5.090   4.176  16.192  0.00  0.00    +0.000 A 
ATOM     15  C   UNL     1       5.411   5.320  15.464  0.00  0.00    +0.000 A 
ATOM     16  C   UNL     1       5.129   6.579  15.990  0.00  0.00    +0.000 A 
ATOM     17  C   UNL     1       4.581   6.696  17.266  0.00  0.00    +0.000 A 
ENDBRANCH  11  12
ENDBRANCH   5  11
ENDBRANCH   1   5
BRANCH   2  18
ATOM     18  C   UNL     1       1.158   9.287  20.844  0.00  0.00    +0.000 C 
BRANCH  18  19
ATOM     19  N   UNL     1       0.218  10.120  20.083  0.00  0.00    +0.000 N 
ATOM     20  C   UNL     1       0.416  11.469  19.910  0.00  0.00    +0.000 C 
ATOM     21  O   UNL     1       1.331  12.083  20.457  0.00  0.00    +0.000 OA
ATOM     22  H   UNL     1      -0.454   9.631  19.504  0.00  0.00    +0.000 HD
BRANCH  20  23
ATOM     23  C   UNL     1      -0.591  12.144  18.991  0.00  0.00    +0.000 C 
BRANCH  23  24
ATOM     24  S   UNL     1      -0.102  13.867  18.698  0.00  0.00    +0.000 S 
ATOM     25  H   UNL     1      -0.935  14.069  17.663  0.00  0.00    +0.000 HD
ENDBRANCH  23  24
ENDBRANCH  20  23
ENDBRANCH  18  19
BRANCH  18  26
ATOM     26  C   UNL     1       0.444   8.638  22.050  0.00  0.00    +0.000 C 
ATOM     27  C   UNL     1       0.012   9.653  23.100  0.00  0.00    +0.000 C 
BRANCH  26  28
ATOM     28  O   UNL     1      -0.730   7.929  21.612  0.00  0.00    +0.000 OA
ATOM     29  H   UNL     1      -1.165   7.559  22.401  0.00  0.00    +0.000 HD
ENDBRANCH  26  28
ENDBRANCH  18  26
ENDBRANCH   2  18
TORSDOF 10
ENDMDL
MODEL 8
REMARK VINA RESULT:      -6.4      2.670      6.638
REMARK  Name = 
REMARK  12 active torsions:
REMARK  status: ('A' for Active; 'I' for Inactive)
REMARK    1  A    between atoms: C_1  and  N_2
REMARK    2  A    between atoms: C_3  and  C_5
REMARK    3  A    between atoms: C_5  and  C_6
REMARK    4  A    between atoms: C_5  and  N_13
REMARK    5  A    between atoms: C_6  and  C_7
REMARK    6  A    between atoms: C_14  and  C_16
REMARK    7  A    between atoms: C_16  and  N_17
REMARK    8  A    between atoms: C_16  and  C_22
REMARK    9  A    between atoms: C_18  and  C_20
REMARK   10  A    between atoms: C_20  and  S_21
REMARK   11  A    between atoms: C_22  and  C_23
REMARK   12  A    between atoms: C_22  and  O_24
REMARK                            x       y       z     vdW  Elec       q    Type
REMARK                         _______ _______ _______ _____ _____    ______ ____
ROOT
ATOM      1  N   UNL     1       5.160   5.309  17.454  0.00  0.00    +0.000 N 
ATOM      2  C   UNL     1       4.338   4.478  18.186  0.00  0.00    +0.000 C 
ATOM      3  O   UNL     1       4.418   3.253  18.137  0.00  0.00    +0.000 OA
ATOM      4  H   UNL     1       5.170   6.290  17.715  0.00  0.00    +0.000 HD
ENDROOT
BRANCH   1   5
ATOM      5  C   UNL     1       6.385   4.798  16.835  0.00  0.00    +0.000 C 
BRANCH   5   8
ATOM      6  C   UNL     1       8.198   5.536  20.127  0.00  0.00    +0.000 C 
ATOM      7  N   UNL     1       7.258   5.501  19.032  0.00  0.00    +0.000 N 
ATOM      8  C   UNL     1       7.489   4.712  17.925  0.00  0.00    +0.000 C 
ATOM      9  O   UNL     1       8.497   4.019  17.802  0.00  0.00    +0.000 OA
ATOM     10  H   UNL     1       6.461   6.124  19.056  0.00  0.00    +0.000 HD
ENDBRANCH   5   8
BRANCH   5  11
ATOM     11  C   UNL     1       6.813   5.628  15.603  0.00  0.00    +0.000 C 
BRANCH  11  12
ATOM     12  C   UNL     1       6.578   4.939  14.277  0.00  0.00    +0.000 A 
ATOM     13  C   UNL     1       5.475   4.093  14.095  0.00  0.00    +0.000 A 
ATOM     14  C   UNL     1       5.365   3.319  12.940  0.00  0.00    +0.000 A 
ATOM     15  C   UNL     1       6.338   3.403  11.946  0.00  0.00    +0.000 A 
ATOM     16  C   UNL     1       7.394   4.301  12.084  0.00  0.00    +0.000 A 
ATOM     17  C   UNL     1       7.510   5.071  13.240  0.00  0.00    +0.000 A 
ENDBRANCH  11  12
ENDBRANCH   5  11
ENDBRANCH   1   5
BRANCH   2  18
ATOM     18  C   UNL     1       3.220   5.211  18.950  0.00  0.00    +0.000 C 
BRANCH  18  19
ATOM     19  N   UNL     1       2.889   6.413  18.175  0.00  0.00    +0.000 N 
ATOM     20  C   UNL     1       2.426   7.561  18.773  0.00  0.00    +0.000 C 
ATOM     21  O   UNL     1       2.165   7.626  19.974  0.00  0.00    +0.000 OA
ATOM     22  H   UNL     1       3.227   6.445  17.221  0.00  0.00    +0.000 HD
BRANCH  20  23
ATOM     23  C   UNL     1       2.257   8.743  17.832  0.00  0.00    +0.000 C 
BRANCH  23  24
ATOM     24  S   UNL     1       0.933   9.829  18.433  0.00  0.00    +0.000 S 
ATOM     25  H   UNL     1       1.620  10.974  18.286  0.00  0.00    +0.000 HD
ENDBRANCH  23  24
ENDBRANCH  20  23
ENDBRANCH  18  19
BRANCH  18  26
ATOM     26  C   UNL     1       1.975   4.308  19.095  0.00  0.00    +0.000 C 
ATOM     27  C   UNL     1       1.377   3.904  17.753  0.00  0.00    +0.000 C 
BRANCH  26  28
ATOM     28  O   UNL     1       2.313   3.103  19.807  0.00  0.00    +0.000 OA
ATOM     29  H   UNL     1       2.153   2.350  19.210  0.00  0.00    +0.000 HD
ENDBRANCH  26  28
ENDBRANCH  18  26
ENDBRANCH   2  18
TORSDOF 10
ENDMDL
MODEL 9
REMARK VINA RESULT:      -6.4      2.729      4.750
REMARK  Name = 
REMARK  12 active torsions:
REMARK  status: ('A' for Active; 'I' for Inactive)
REMARK    1  A    between atoms: C_1  and  N_2
REMARK    2  A    between atoms: C_3  and  C_5
REMARK    3  A    between atoms: C_5  and  C_6
REMARK    4  A    between atoms: C_5  and  N_13
REMARK    5  A    between atoms: C_6  and  C_7
REMARK    6  A    between atoms: C_14  and  C_16
REMARK    7  A    between atoms: C_16  and  N_17
REMARK    8  A    between atoms: C_16  and  C_22
REMARK    9  A    between atoms: C_18  and  C_20
REMARK   10  A    between atoms: C_20  and  S_21
REMARK   11  A    between atoms: C_22  and  C_23
REMARK   12  A    between atoms: C_22  and  O_24
REMARK                            x       y       z     vdW  Elec       q    Type
REMARK                         _______ _______ _______ _____ _____    ______ ____
ROOT
ATOM      1  N   UNL     1       4.769   6.052  18.142  0.00  0.00    +0.000 N 
ATOM      2  C   UNL     1       5.569   5.203  18.876  0.00  0.00    +0.000 C 
ATOM      3  O   UNL     1       5.284   4.837  20.014  0.00  0.00    +0.000 OA
ATOM      4  H   UNL     1       4.968   6.127  17.149  0.00  0.00    +0.000 HD
ENDROOT
BRANCH   1   5
ATOM      5  C   UNL     1       3.381   6.303  18.538  0.00  0.00    +0.000 C 
BRANCH   5   8
ATOM      6  C   UNL     1       2.519   2.775  17.323  0.00  0.00    +0.000 C 
ATOM      7  N   UNL     1       3.146   4.054  17.553  0.00  0.00    +0.000 N 
ATOM      8  C   UNL     1       2.584   4.975  18.411  0.00  0.00    +0.000 C 
ATOM      9  O   UNL     1       1.527   4.770  19.005  0.00  0.00    +0.000 OA
ATOM     10  H   UNL     1       3.969   4.295  17.015  0.00  0.00    +0.000 HD
ENDBRANCH   5   8
BRANCH   5  11
ATOM     11  C   UNL     1       2.745   7.469  17.746  0.00  0.00    +0.000 C 
BRANCH  11  12
ATOM     12  C   UNL     1       1.905   8.406  18.585  0.00  0.00    +0.000 A 
ATOM     13  C   UNL     1       1.775   8.208  19.967  0.00  0.00    +0.000 A 
ATOM     14  C   UNL     1       0.856   8.957  20.702  0.00  0.00    +0.000 A 
ATOM     15  C   UNL     1       0.080   9.927  20.070  0.00  0.00    +0.000 A 
ATOM     16  C   UNL     1       0.261  10.185  18.714  0.00  0.00    +0.000 A 
ATOM     17  C   UNL     1       1.174   9.434  17.976  0.00  0.00    +0.000 A 
ENDBRANCH  11  12
ENDBRANCH   5  11
ENDBRANCH   1   5
BRANCH   2  18
ATOM     18  C   UNL     1       6.918   4.874  18.208  0.00  0.00    +0.000 C 
BRANCH  18  19
ATOM     19  N   UNL     1       6.805   5.271  16.799  0.00  0.00    +0.000 N 
ATOM     20  C   UNL     1       6.267   4.438  15.848  0.00  0.00    +0.000 C 
ATOM     21  O   UNL     1       5.939   3.277  16.091  0.00  0.00    +0.000 OA
ATOM     22  H   UNL     1       6.925   6.256  16.595  0.00  0.00    +0.000 HD
BRANCH  20  23
ATOM     23  C   UNL     1       6.115   5.063  14.470  0.00  0.00    +0.000 C 
BRANCH  23  24
ATOM     24  S   UNL     1       6.143   3.769  13.198  0.00  0.00    +0.000 S 
ATOM     25  H   UNL     1       7.285   4.174  12.618  0.00  0.00    +0.000 HD
ENDBRANCH  23  24
ENDBRANCH  20  23
ENDBRANCH  18  19
BRANCH  18  26
ATOM     26  C   UNL     1       8.069   5.645  18.892  0.00  0.00    +0.000 C 
ATOM     27  C   UNL     1       8.094   7.123  18.523  0.00  0.00    +0.000 C 
BRANCH  26  28
ATOM     28  O   UNL     1       7.950   5.551  20.324  0.00  0.00    +0.000 OA
ATOM     29  H   UNL     1       7.764   4.621  20.546  0.00  0.00    +0.000 HD
ENDBRANCH  26  28
ENDBRANCH  18  26
ENDBRANCH   2  18
TORSDOF 10
ENDMDL
