MODEL 1
REMARK VINA RESULT:      -7.5      0.000      0.000
REMARK  Name = 
REMARK  6 active torsions:
REMARK  status: ('A' for Active; 'I' for Inactive)
REMARK    1  A    between atoms: C_2  and  C_14
REMARK    2  A    between atoms: N_3  and  C_4
REMARK    3  A    between atoms: C_7  and  O_8
REMARK    4  A    between atoms: C_10  and  C_11
REMARK    5  A    between atoms: C_11  and  O_13
REMARK    6  A    between atoms: C_18  and  N_19
REMARK                            x       y       z     vdW  Elec       q    Type
REMARK                         _______ _______ _______ _____ _____    ______ ____
ROOT
ATOM      1  O   UNL     1       6.573   4.547  16.980  0.00  0.00    +0.000 OA
ATOM      2  C   UNL     1       5.761   4.771  16.090  0.00  0.00    +0.000 C 
ATOM      3  N   UNL     1       4.430   5.110  16.251  0.00  0.00    +0.000 N 
ATOM      4  H   UNL     1       3.824   5.021  15.433  0.00  0.00    +0.000 HD
ENDROOT
BRANCH   3   5
ATOM      5  C   UNL     1       3.758   5.302  17.491  0.00  0.00    +0.000 A 
ATOM      6  C   UNL     1       3.640   6.574  18.072  0.00  0.00    +0.000 A 
ATOM      7  C   UNL     1       3.014   6.755  19.307  0.00  0.00    +0.000 A 
ATOM      8  C   UNL     1       2.498   5.658  19.980  0.00  0.00    +0.000 A 
ATOM      9  C   UNL     1       2.580   4.385  19.427  0.00  0.00    +0.000 A 
ATOM     10  C   UNL     1       3.182   4.204  18.170  0.00  0.00    +0.000 A 
BRANCH   8  11
ATOM     11  O   UNL     1       1.894   5.791  21.191  0.00  0.00    +0.000 OA
ATOM     12  H   UNL     1       2.215   6.606  21.615  0.00  0.00    +0.000 HD
ENDBRANCH   8  11
BRANCH  10  13
ATOM     13  C   UNL     1       3.244   2.840  17.582  0.00  0.00    +0.000 C 
ATOM     14  O   UNL     1       2.248   2.236  17.215  0.00  0.00    +0.000 OA
BRANCH  13  15
ATOM     15  O   UNL     1       4.475   2.289  17.576  0.00  0.00    +0.000 OA
ATOM     16  H   UNL     1       5.072   2.588  16.864  0.00  0.00    +0.000 HD
ENDBRANCH  13  15
ENDBRANCH  10  13
ENDBRANCH   3   5
BRANCH   2  17
ATOM     17  C   UNL     1       6.231   4.612  14.691  0.00  0.00    +0.000 A 
ATOM     18  C   UNL     1       7.392   5.237  14.222  0.00  0.00    +0.000 A 
ATOM     19  C   UNL     1       7.831   5.001  12.915  0.00  0.00    +0.000 A 
ATOM     20  C   UNL     1       7.110   4.146  12.074  0.00  0.00    +0.000 A 
ATOM     21  C   UNL     1       5.952   3.519  12.553  0.00  0.00    +0.000 A 
ATOM     22  C   UNL     1       5.512   3.741  13.861  0.00  0.00    +0.000 A 
BRANCH  21  23
ATOM     23  N   UNL     1       5.196   2.615  11.678  0.00  0.00    +0.000 N 
ATOM     24  O   UNL     1       5.705   1.517  11.412  0.00  0.00    +0.000 OA
ATOM     25  O   UNL     1       4.100   3.004  11.252  0.00  0.00    +0.000 OA
ENDBRANCH  21  23
ENDBRANCH   2  17
TORSDOF 6
ENDMDL
MODEL 2
REMARK VINA RESULT:      -7.4      4.101      6.474
REMARK  Name = 
REMARK  6 active torsions:
REMARK  status: ('A' for Active; 'I' for Inactive)
REMARK    1  A    between atoms: C_2  and  C_14
REMARK    2  A    between atoms: N_3  and  C_4
REMARK    3  A    between atoms: C_7  and  O_8
REMARK    4  A    between atoms: C_10  and  C_11
REMARK    5  A    between atoms: C_11  and  O_13
REMARK    6  A    between atoms: C_18  and  N_19
REMARK                            x       y       z     vdW  Elec       q    Type
REMARK                         _______ _______ _______ _____ _____    ______ ____
ROOT
ATOM      1  O   UNL     1       1.505   5.613  20.652  0.00  0.00    +0.000 OA
ATOM      2  C   UNL     1       2.220   6.240  19.879  0.00  0.00    +0.000 C 
ATOM      3  N   UNL     1       2.214   7.608  19.674  0.00  0.00    +0.000 N 
ATOM      4  H   UNL     1       2.679   7.955  18.833  0.00  0.00    +0.000 HD
ENDROOT
BRANCH   3   5
ATOM      5  C   UNL     1       1.398   8.555  20.356  0.00  0.00    +0.000 A 
ATOM      6  C   UNL     1       1.261   8.533  21.753  0.00  0.00    +0.000 A 
ATOM      7  C   UNL     1       0.430   9.438  22.417  0.00  0.00    +0.000 A 
ATOM      8  C   UNL     1      -0.279  10.379  21.685  0.00  0.00    +0.000 A 
ATOM      9  C   UNL     1      -0.154  10.442  20.303  0.00  0.00    +0.000 A 
ATOM     10  C   UNL     1       0.705   9.553  19.634  0.00  0.00    +0.000 A 
BRANCH   8  11
ATOM     11  O   UNL     1      -1.109  11.268  22.294  0.00  0.00    +0.000 OA
ATOM     12  H   UNL     1      -1.544  10.830  23.046  0.00  0.00    +0.000 HD
ENDBRANCH   8  11
BRANCH  10  13
ATOM     13  C   UNL     1       0.844   9.646  18.158  0.00  0.00    +0.000 C 
ATOM     14  O   UNL     1       1.922   9.557  17.591  0.00  0.00    +0.000 OA
BRANCH  13  15
ATOM     15  O   UNL     1      -0.301   9.932  17.505  0.00  0.00    +0.000 OA
ATOM     16  H   UNL     1      -0.543   9.324  16.781  0.00  0.00    +0.000 HD
ENDBRANCH  13  15
ENDBRANCH  10  13
ENDBRANCH   3   5
BRANCH   2  17
ATOM     17  C   UNL     1       3.152   5.456  19.032  0.00  0.00    +0.000 A 
ATOM     18  C   UNL     1       2.713   4.734  17.916  0.00  0.00    +0.000 A 
ATOM     19  C   UNL     1       3.641   4.065  17.110  0.00  0.00    +0.000 A 
ATOM     20  C   UNL     1       5.004   4.112  17.419  0.00  0.00    +0.000 A 
ATOM     21  C   UNL     1       5.436   4.842  18.534  0.00  0.00    +0.000 A 
ATOM     22  C   UNL     1       4.518   5.521  19.339  0.00  0.00    +0.000 A 
BRANCH  21  23
ATOM     23  N   UNL     1       6.867   4.901  18.859  0.00  0.00    +0.000 N 
ATOM     24  O   UNL     1       7.188   5.432  19.932  0.00  0.00    +0.000 OA
ATOM     25  O   UNL     1       7.667   4.426  18.042  0.00  0.00    +0.000 OA
ENDBRANCH  21  23
ENDBRANCH   2  17
TORSDOF 6
ENDMDL
MODEL 3
REMARK VINA RESULT:      -7.3      1.547      2.157
REMARK  Name = 
REMARK  6 active torsions:
REMARK  status: ('A' for Active; 'I' for Inactive)
REMARK    1  A    between atoms: C_2  and  C_14
REMARK    2  A    between atoms: N_3  and  C_4
REMARK    3  A    between atoms: C_7  and  O_8
REMARK    4  A    between atoms: C_10  and  C_11
REMARK    5  A    between atoms: C_11  and  O_13
REMARK    6  A    between atoms: C_18  and  N_19
REMARK                            x       y       z     vdW  Elec       q    Type
REMARK                         _______ _______ _______ _____ _____    ______ ____
ROOT
ATOM      1  O   UNL     1       5.413   6.581  15.696  0.00  0.00    +0.000 OA
ATOM      2  C   UNL     1       5.350   5.380  15.459  0.00  0.00    +0.000 C 
ATOM      3  N   UNL     1       4.776   4.409  16.259  0.00  0.00    +0.000 N 
ATOM      4  H   UNL     1       5.017   3.437  16.056  0.00  0.00    +0.000 HD
ENDROOT
BRANCH   3   5
ATOM      5  C   UNL     1       4.112   4.629  17.498  0.00  0.00    +0.000 A 
ATOM      6  C   UNL     1       2.717   4.515  17.613  0.00  0.00    +0.000 A 
ATOM      7  C   UNL     1       2.063   4.769  18.821  0.00  0.00    +0.000 A 
ATOM      8  C   UNL     1       2.802   5.143  19.933  0.00  0.00    +0.000 A 
ATOM      9  C   UNL     1       4.186   5.247  19.862  0.00  0.00    +0.000 A 
ATOM     10  C   UNL     1       4.850   4.964  18.656  0.00  0.00    +0.000 A 
BRANCH   8  11
ATOM     11  O   UNL     1       2.200   5.412  21.123  0.00  0.00    +0.000 OA
ATOM     12  H   UNL     1       1.278   5.673  20.958  0.00  0.00    +0.000 HD
ENDBRANCH   8  11
BRANCH  10  13
ATOM     13  C   UNL     1       6.332   5.059  18.601  0.00  0.00    +0.000 C 
ATOM     14  O   UNL     1       6.931   6.110  18.767  0.00  0.00    +0.000 OA
BRANCH  13  15
ATOM     15  O   UNL     1       6.953   3.912  18.258  0.00  0.00    +0.000 OA
ATOM     16  H   UNL     1       6.629   3.478  17.446  0.00  0.00    +0.000 HD
ENDBRANCH  13  15
ENDBRANCH  10  13
ENDBRANCH   3   5
BRANCH   2  17
ATOM     17  C   UNL     1       6.001   4.903  14.214  0.00  0.00    +0.000 A 
ATOM     18  C   UNL     1       7.280   5.325  13.835  0.00  0.00    +0.000 A 
ATOM     19  C   UNL     1       7.878   4.794  12.687  0.00  0.00    +0.000 A 
ATOM     20  C   UNL     1       7.200   3.845  11.916  0.00  0.00    +0.000 A 
ATOM     21  C   UNL     1       5.922   3.422  12.304  0.00  0.00    +0.000 A 
ATOM     22  C   UNL     1       5.321   3.940  13.455  0.00  0.00    +0.000 A 
BRANCH  21  23
ATOM     23  N   UNL     1       5.208   2.421  11.503  0.00  0.00    +0.000 N 
ATOM     24  O   UNL     1       4.082   2.721  11.083  0.00  0.00    +0.000 OA
ATOM     25  O   UNL     1       5.768   1.335  11.300  0.00  0.00    +0.000 OA
ENDBRANCH  21  23
ENDBRANCH   2  17
TORSDOF 6
ENDMDL
MODEL 4
REMARK VINA RESULT:      -7.3      1.418      2.287
REMARK  Name = 
REMARK  6 active torsions:
REMARK  status: ('A' for Active; 'I' for Inactive)
REMARK    1  A    between atoms: C_2  and  C_14
REMARK    2  A    between atoms: N_3  and  C_4
REMARK    3  A    between atoms: C_7  and  O_8
REMARK    4  A    between atoms: C_10  and  C_11
REMARK    5  A    between atoms: C_11  and  O_13
REMARK    6  A    between atoms: C_18  and  N_19
REMARK                            x       y       z     vdW  Elec       q    Type
REMARK                         _______ _______ _______ _____ _____    ______ ____
ROOT
ATOM      1  O   UNL     1       6.892   4.375  17.072  0.00  0.00    +0.000 OA
ATOM      2  C   UNL     1       5.974   4.377  16.260  0.00  0.00    +0.000 C 
ATOM      3  N   UNL     1       4.623   4.300  16.540  0.00  0.00    +0.000 N 
ATOM      4  H   UNL     1       3.999   4.062  15.767  0.00  0.00    +0.000 HD
ENDROOT
BRANCH   3   5
ATOM      5  C   UNL     1       4.037   4.244  17.836  0.00  0.00    +0.000 A 
ATOM      6  C   UNL     1       3.914   3.032  18.534  0.00  0.00    +0.000 A 
ATOM      7  C   UNL     1       3.304   2.973  19.789  0.00  0.00    +0.000 A 
ATOM      8  C   UNL     1       2.805   4.133  20.362  0.00  0.00    +0.000 A 
ATOM      9  C   UNL     1       2.925   5.354  19.709  0.00  0.00    +0.000 A 
ATOM     10  C   UNL     1       3.565   5.422  18.460  0.00  0.00    +0.000 A 
BRANCH   8  11
ATOM     11  O   UNL     1       2.192   4.114  21.576  0.00  0.00    +0.000 OA
ATOM     12  H   UNL     1       1.357   3.621  21.499  0.00  0.00    +0.000 HD
ENDBRANCH   8  11
BRANCH  10  13
ATOM     13  C   UNL     1       3.704   6.737  17.784  0.00  0.00    +0.000 C 
ATOM     14  O   UNL     1       4.762   7.129  17.316  0.00  0.00    +0.000 OA
BRANCH  13  15
ATOM     15  O   UNL     1       2.594   7.502  17.814  0.00  0.00    +0.000 OA
ATOM     16  H   UNL     1       1.756   7.047  17.602  0.00  0.00    +0.000 HD
ENDBRANCH  13  15
ENDBRANCH  10  13
ENDBRANCH   3   5
BRANCH   2  17
ATOM     17  C   UNL     1       6.344   4.410  14.823  0.00  0.00    +0.000 A 
ATOM     18  C   UNL     1       7.420   5.169  14.350  0.00  0.00    +0.000 A 
ATOM     19  C   UNL     1       7.770   5.114  12.996  0.00  0.00    +0.000 A 
ATOM     20  C   UNL     1       7.046   4.305  12.115  0.00  0.00    +0.000 A 
ATOM     21  C   UNL     1       5.974   3.542  12.597  0.00  0.00    +0.000 A 
ATOM     22  C   UNL     1       5.623   3.584  13.949  0.00  0.00    +0.000 A 
BRANCH  21  23
ATOM     23  N   UNL     1       5.214   2.685  11.678  0.00  0.00    +0.000 N 
ATOM     24  O   UNL     1       5.720   1.600  11.358  0.00  0.00    +0.000 OA
ATOM     25  O   UNL     1       4.120   3.099  11.272  0.00  0.00    +0.000 OA
ENDBRANCH  21  23
ENDBRANCH   2  17
TORSDOF 6
ENDMDL
MODEL 5
REMARK VINA RESULT:      -7.1      3.492      5.978
REMARK  Name = 
REMARK  6 active torsions:
REMARK  status: ('A' for Active; 'I' for Inactive)
REMARK    1  A    between atoms: C_2  and  C_14
REMARK    2  A    between atoms: N_3  and  C_4
REMARK    3  A    between atoms: C_7  and  O_8
REMARK    4  A    between atoms: C_10  and  C_11
REMARK    5  A    between atoms: C_11  and  O_13
REMARK    6  A    between atoms: C_18  and  N_19
REMARK                            x       y       z     vdW  Elec       q    Type
REMARK                         _______ _______ _______ _____ _____    ______ ____
ROOT
ATOM      1  O   UNL     1       1.598   5.538  20.452  0.00  0.00    +0.000 OA
ATOM      2  C   UNL     1       2.240   6.180  19.628  0.00  0.00    +0.000 C 
ATOM      3  N   UNL     1       2.230   7.552  19.461  0.00  0.00    +0.000 N 
ATOM      4  H   UNL     1       2.613   7.918  18.587  0.00  0.00    +0.000 HD
ENDROOT
BRANCH   3   5
ATOM      5  C   UNL     1       1.499   8.488  20.246  0.00  0.00    +0.000 A 
ATOM      6  C   UNL     1       1.443   8.385  21.645  0.00  0.00    +0.000 A 
ATOM      7  C   UNL     1       0.693   9.281  22.411  0.00  0.00    +0.000 A 
ATOM      8  C   UNL     1      -0.014  10.294  21.781  0.00  0.00    +0.000 A 
ATOM      9  C   UNL     1       0.033  10.438  20.400  0.00  0.00    +0.000 A 
ATOM     10  C   UNL     1       0.811   9.557  19.629  0.00  0.00    +0.000 A 
BRANCH   8  11
ATOM     11  O   UNL     1      -0.766  11.177  22.490  0.00  0.00    +0.000 OA
ATOM     12  H   UNL     1      -0.180  11.706  23.059  0.00  0.00    +0.000 HD
ENDBRANCH   8  11
BRANCH  10  13
ATOM     13  C   UNL     1       0.869   9.736  18.155  0.00  0.00    +0.000 C 
ATOM     14  O   UNL     1       1.909   9.647  17.521  0.00  0.00    +0.000 OA
BRANCH  13  15
ATOM     15  O   UNL     1      -0.301  10.098  17.589  0.00  0.00    +0.000 OA
ATOM     16  H   UNL     1      -0.237  10.523  16.712  0.00  0.00    +0.000 HD
ENDBRANCH  13  15
ENDBRANCH  10  13
ENDBRANCH   3   5
BRANCH   2  17
ATOM     17  C   UNL     1       3.072   5.409  18.672  0.00  0.00    +0.000 A 
ATOM     18  C   UNL     1       2.944   4.024  18.523  0.00  0.00    +0.000 A 
ATOM     19  C   UNL     1       3.705   3.352  17.560  0.00  0.00    +0.000 A 
ATOM     20  C   UNL     1       4.595   4.062  16.748  0.00  0.00    +0.000 A 
ATOM     21  C   UNL     1       4.714   5.450  16.898  0.00  0.00    +0.000 A 
ATOM     22  C   UNL     1       3.951   6.130  17.851  0.00  0.00    +0.000 A 
BRANCH  21  23
ATOM     23  N   UNL     1       5.642   6.201  16.043  0.00  0.00    +0.000 N 
ATOM     24  O   UNL     1       6.854   6.079  16.269  0.00  0.00    +0.000 OA
ATOM     25  O   UNL     1       5.161   6.916  15.154  0.00  0.00    +0.000 OA
ENDBRANCH  21  23
ENDBRANCH   2  17
TORSDOF 6
ENDMDL
MODEL 6
REMARK VINA RESULT:      -7.1      1.526      2.437
REMARK  Name = 
REMARK  6 active torsions:
REMARK  status: ('A' for Active; 'I' for Inactive)
REMARK    1  A    between atoms: C_2  and  C_14
REMARK    2  A    between atoms: N_3  and  C_4
REMARK    3  A    between atoms: C_7  and  O_8
REMARK    4  A    between atoms: C_10  and  C_11
REMARK    5  A    between atoms: C_11  and  O_13
REMARK    6  A    between atoms: C_18  and  N_19
REMARK                            x       y       z     vdW  Elec       q    Type
REMARK                         _______ _______ _______ _____ _____    ______ ____
ROOT
ATOM      1  O   UNL     1       6.034   4.023  17.558  0.00  0.00    +0.000 OA
ATOM      2  C   UNL     1       5.265   4.021  16.603  0.00  0.00    +0.000 C 
ATOM      3  N   UNL     1       3.901   3.799  16.641  0.00  0.00    +0.000 N 
ATOM      4  H   UNL     1       3.440   3.581  15.755  0.00  0.00    +0.000 HD
ENDROOT
BRANCH   3   5
ATOM      5  C   UNL     1       3.121   3.569  17.809  0.00  0.00    +0.000 A 
ATOM      6  C   UNL     1       2.786   2.270  18.222  0.00  0.00    +0.000 A 
ATOM      7  C   UNL     1       1.987   2.047  19.347  0.00  0.00    +0.000 A 
ATOM      8  C   UNL     1       1.512   3.129  20.073  0.00  0.00    +0.000 A 
ATOM      9  C   UNL     1       1.838   4.428  19.704  0.00  0.00    +0.000 A 
ATOM     10  C   UNL     1       2.666   4.655  18.591  0.00  0.00    +0.000 A 
BRANCH   8  11
ATOM     11  O   UNL     1       0.721   2.954  21.165  0.00  0.00    +0.000 OA
ATOM     12  H   UNL     1       1.263   2.609  21.895  0.00  0.00    +0.000 HD
ENDBRANCH   8  11
BRANCH  10  13
ATOM     13  C   UNL     1       3.024   6.049  18.221  0.00  0.00    +0.000 C 
ATOM     14  O   UNL     1       2.208   6.844  17.782  0.00  0.00    +0.000 OA
BRANCH  13  15
ATOM     15  O   UNL     1       4.339   6.333  18.318  0.00  0.00    +0.000 OA
ATOM     16  H   UNL     1       4.665   7.049  17.740  0.00  0.00    +0.000 HD
ENDBRANCH  13  15
ENDBRANCH  10  13
ENDBRANCH   3   5
BRANCH   2  17
ATOM     17  C   UNL     1       5.859   4.222  15.258  0.00  0.00    +0.000 A 
ATOM     18  C   UNL     1       6.996   5.013  15.058  0.00  0.00    +0.000 A 
ATOM     19  C   UNL     1       7.557   5.117  13.780  0.00  0.00    +0.000 A 
ATOM     20  C   UNL     1       6.983   4.436  12.703  0.00  0.00    +0.000 A 
ATOM     21  C   UNL     1       5.848   3.641  12.911  0.00  0.00    +0.000 A 
ATOM     22  C   UNL     1       5.287   3.523  14.186  0.00  0.00    +0.000 A 
BRANCH  21  23
ATOM     23  N   UNL     1       5.244   2.917  11.785  0.00  0.00    +0.000 N 
ATOM     24  O   UNL     1       4.216   3.393  11.285  0.00  0.00    +0.000 OA
ATOM     25  O   UNL     1       5.793   1.874  11.406  0.00  0.00    +0.000 OA
ENDBRANCH  21  23
ENDBRANCH   2  17
TORSDOF 6
ENDMDL
MODEL 7
REMARK VINA RESULT:      -7.1      3.680      8.248
REMARK  Name = 
REMARK  6 active torsions:
REMARK  status: ('A' for Active; 'I' for Inactive)
REMARK    1  A    between atoms: C_2  and  C_14
REMARK    2  A    between atoms: N_3  and  C_4
REMARK    3  A    between atoms: C_7  and  O_8
REMARK    4  A    between atoms: C_10  and  C_11
REMARK    5  A    between atoms: C_11  and  O_13
REMARK    6  A    between atoms: C_18  and  N_19
REMARK                            x       y       z     vdW  Elec       q    Type
REMARK                         _______ _______ _______ _____ _____    ______ ____
ROOT
ATOM      1  O   UNL     1       2.683   8.901  16.970  0.00  0.00    +0.000 OA
ATOM      2  C   UNL     1       2.276   8.395  18.009  0.00  0.00    +0.000 C 
ATOM      3  N   UNL     1       2.598   7.143  18.499  0.00  0.00    +0.000 N 
ATOM      4  H   UNL     1       1.998   6.762  19.234  0.00  0.00    +0.000 HD
ENDROOT
BRANCH   3   5
ATOM      5  C   UNL     1       3.500   6.216  17.905  0.00  0.00    +0.000 A 
ATOM      6  C   UNL     1       4.786   6.603  17.497  0.00  0.00    +0.000 A 
ATOM      7  C   UNL     1       5.656   5.701  16.879  0.00  0.00    +0.000 A 
ATOM      8  C   UNL     1       5.244   4.395  16.660  0.00  0.00    +0.000 A 
ATOM      9  C   UNL     1       3.985   3.972  17.067  0.00  0.00    +0.000 A 
ATOM     10  C   UNL     1       3.119   4.868  17.716  0.00  0.00    +0.000 A 
BRANCH   8  11
ATOM     11  O   UNL     1       6.056   3.492  16.049  0.00  0.00    +0.000 OA
ATOM     12  H   UNL     1       6.286   3.823  15.163  0.00  0.00    +0.000 HD
ENDBRANCH   8  11
BRANCH  10  13
ATOM     13  C   UNL     1       1.783   4.395  18.165  0.00  0.00    +0.000 C 
ATOM     14  O   UNL     1       0.932   3.993  17.387  0.00  0.00    +0.000 OA
BRANCH  13  15
ATOM     15  O   UNL     1       1.556   4.535  19.487  0.00  0.00    +0.000 OA
ATOM     16  H   UNL     1       0.618   4.579  19.756  0.00  0.00    +0.000 HD
ENDBRANCH  13  15
ENDBRANCH  10  13
ENDBRANCH   3   5
BRANCH   2  17
ATOM     17  C   UNL     1       1.294   9.176  18.801  0.00  0.00    +0.000 A 
ATOM     18  C   UNL     1       0.208   9.828  18.205  0.00  0.00    +0.000 A 
ATOM     19  C   UNL     1      -0.728  10.495  19.002  0.00  0.00    +0.000 A 
ATOM     20  C   UNL     1      -0.580  10.515  20.392  0.00  0.00    +0.000 A 
ATOM     21  C   UNL     1       0.506   9.856  20.983  0.00  0.00    +0.000 A 
ATOM     22  C   UNL     1       1.440   9.178  20.195  0.00  0.00    +0.000 A 
BRANCH  21  23
ATOM     23  N   UNL     1       0.662   9.867  22.443  0.00  0.00    +0.000 N 
ATOM     24  O   UNL     1       1.652   9.292  22.917  0.00  0.00    +0.000 OA
ATOM     25  O   UNL     1      -0.204  10.443  23.114  0.00  0.00    +0.000 OA
ENDBRANCH  21  23
ENDBRANCH   2  17
TORSDOF 6
ENDMDL
MODEL 8
REMARK VINA RESULT:      -7.1      4.218      7.916
REMARK  Name = 
REMARK  6 active torsions:
REMARK  status: ('A' for Active; 'I' for Inactive)
REMARK    1  A    between atoms: C_2  and  C_14
REMARK    2  A    between atoms: N_3  and  C_4
REMARK    3  A    between atoms: C_7  and  O_8
REMARK    4  A    between atoms: C_10  and  C_11
REMARK    5  A    between atoms: C_11  and  O_13
REMARK    6  A    between atoms: C_18  and  N_19
REMARK                            x       y       z     vdW  Elec       q    Type
REMARK                         _______ _______ _______ _____ _____    ______ ____
ROOT
ATOM      1  O   UNL     1       3.530   7.113  17.705  0.00  0.00    +0.000 OA
ATOM      2  C   UNL     1       2.691   6.972  18.587  0.00  0.00    +0.000 C 
ATOM      3  N   UNL     1       2.287   5.780  19.160  0.00  0.00    +0.000 N 
ATOM      4  H   UNL     1       1.416   5.791  19.694  0.00  0.00    +0.000 HD
ENDROOT
BRANCH   3   5
ATOM      5  C   UNL     1       2.802   4.488  18.859  0.00  0.00    +0.000 A 
ATOM      6  C   UNL     1       3.608   4.264  17.731  0.00  0.00    +0.000 A 
ATOM      7  C   UNL     1       4.080   2.987  17.415  0.00  0.00    +0.000 A 
ATOM      8  C   UNL     1       3.746   1.915  18.228  0.00  0.00    +0.000 A 
ATOM      9  C   UNL     1       2.965   2.101  19.363  0.00  0.00    +0.000 A 
ATOM     10  C   UNL     1       2.514   3.389  19.700  0.00  0.00    +0.000 A 
BRANCH   8  11
ATOM     11  O   UNL     1       4.174   0.655  17.947  0.00  0.00    +0.000 OA
ATOM     12  H   UNL     1       5.038   0.513  18.371  0.00  0.00    +0.000 HD
ENDBRANCH   8  11
BRANCH  10  13
ATOM     13  C   UNL     1       1.698   3.576  20.928  0.00  0.00    +0.000 C 
ATOM     14  O   UNL     1       2.086   3.238  22.035  0.00  0.00    +0.000 OA
BRANCH  13  15
ATOM     15  O   UNL     1       0.458   4.061  20.706  0.00  0.00    +0.000 OA
ATOM     16  H   UNL     1      -0.040   4.335  21.500  0.00  0.00    +0.000 HD
ENDBRANCH  13  15
ENDBRANCH  10  13
ENDBRANCH   3   5
BRANCH   2  17
ATOM     17  C   UNL     1       1.993   8.194  19.057  0.00  0.00    +0.000 A 
ATOM     18  C   UNL     1       1.798   9.304  18.227  0.00  0.00    +0.000 A 
ATOM     19  C   UNL     1       1.075  10.406  18.695  0.00  0.00    +0.000 A 
ATOM     20  C   UNL     1       0.548  10.403  19.990  0.00  0.00    +0.000 A 
ATOM     21  C   UNL     1       0.741   9.286  20.813  0.00  0.00    +0.000 A 
ATOM     22  C   UNL     1       1.454   8.176  20.351  0.00  0.00    +0.000 A 
BRANCH  21  23
ATOM     23  N   UNL     1       0.184   9.273  22.172  0.00  0.00    +0.000 N 
ATOM     24  O   UNL     1       0.728   9.994  23.020  0.00  0.00    +0.000 OA
ATOM     25  O   UNL     1      -0.789   8.539  22.392  0.00  0.00    +0.000 OA
ENDBRANCH  21  23
ENDBRANCH   2  17
TORSDOF 6
ENDMDL
MODEL 9
REMARK VINA RESULT:      -7.0      4.273      7.908
REMARK  Name = 
REMARK  6 active torsions:
REMARK  status: ('A' for Active; 'I' for Inactive)
REMARK    1  A    between atoms: C_2  and  C_14
REMARK    2  A    between atoms: N_3  and  C_4
REMARK    3  A    between atoms: C_7  and  O_8
REMARK    4  A    between atoms: C_10  and  C_11
REMARK    5  A    between atoms: C_11  and  O_13
REMARK    6  A    between atoms: C_18  and  N_19
REMARK                            x       y       z     vdW  Elec       q    Type
REMARK                         _______ _______ _______ _____ _____    ______ ____
ROOT
ATOM      1  O   UNL     1       2.096   6.370  20.574  0.00  0.00    +0.000 OA
ATOM      2  C   UNL     1       2.159   6.793  19.426  0.00  0.00    +0.000 C 
ATOM      3  N   UNL     1       2.535   6.081  18.302  0.00  0.00    +0.000 N 
ATOM      4  H   UNL     1       2.780   6.620  17.468  0.00  0.00    +0.000 HD
ENDROOT
BRANCH   3   5
ATOM      5  C   UNL     1       2.884   4.701  18.261  0.00  0.00    +0.000 A 
ATOM      6  C   UNL     1       1.921   3.708  18.026  0.00  0.00    +0.000 A 
ATOM      7  C   UNL     1       2.258   2.352  18.025  0.00  0.00    +0.000 A 
ATOM      8  C   UNL     1       3.571   1.974  18.263  0.00  0.00    +0.000 A 
ATOM      9  C   UNL     1       4.555   2.931  18.482  0.00  0.00    +0.000 A 
ATOM     10  C   UNL     1       4.225   4.296  18.454  0.00  0.00    +0.000 A 
BRANCH   8  11
ATOM     11  O   UNL     1       3.936   0.665  18.284  0.00  0.00    +0.000 OA
ATOM     12  H   UNL     1       4.684   0.536  17.676  0.00  0.00    +0.000 HD
ENDBRANCH   8  11
BRANCH  10  13
ATOM     13  C   UNL     1       5.292   5.308  18.668  0.00  0.00    +0.000 C 
ATOM     14  O   UNL     1       5.454   6.262  17.923  0.00  0.00    +0.000 OA
BRANCH  13  15
ATOM     15  O   UNL     1       6.123   5.035  19.695  0.00  0.00    +0.000 OA
ATOM     16  H   UNL     1       6.863   5.659  19.822  0.00  0.00    +0.000 HD
ENDBRANCH  13  15
ENDBRANCH  10  13
ENDBRANCH   3   5
BRANCH   2  17
ATOM     17  C   UNL     1       1.856   8.231  19.218  0.00  0.00    +0.000 A 
ATOM     18  C   UNL     1       2.207   8.902  18.041  0.00  0.00    +0.000 A 
ATOM     19  C   UNL     1       1.839  10.240  17.866  0.00  0.00    +0.000 A 
ATOM     20  C   UNL     1       1.124  10.910  18.864  0.00  0.00    +0.000 A 
ATOM     21  C   UNL     1       0.770  10.230  20.037  0.00  0.00    +0.000 A 
ATOM     22  C   UNL     1       1.125   8.890  20.217  0.00  0.00    +0.000 A 
BRANCH  21  23
ATOM     23  N   UNL     1       0.014  10.925  21.085  0.00  0.00    +0.000 N 
ATOM     24  O   UNL     1      -1.009  11.535  20.744  0.00  0.00    +0.000 OA
ATOM     25  O   UNL     1       0.444  10.868  22.245  0.00  0.00    +0.000 OA
ENDBRANCH  21  23
ENDBRANCH   2  17
TORSDOF 6
ENDMDL
