MODEL 1
REMARK VINA RESULT:      -8.1      0.000      0.000
REMARK  Name = 
REMARK  5 active torsions:
REMARK  status: ('A' for Active; 'I' for Inactive)
REMARK    1  A    between atoms: C_2  and  C_5
REMARK    2  A    between atoms: C_9  and  C_10
REMARK    3  A    between atoms: C_10  and  N_11
REMARK    4  A    between atoms: N_14  and  C_15
REMARK    5  A    between atoms: C_20  and  C_21
REMARK                            x       y       z     vdW  Elec       q    Type
REMARK                         _______ _______ _______ _____ _____    ______ ____
ROOT
ATOM      1  N   UNL     1       6.471   5.668  16.859  0.00  0.00    +0.000 NA
ATOM      2  C   UNL     1       5.060   6.016  16.539  0.00  0.00    +0.000 C 
ATOM      3  C   UNL     1       3.965   5.067  17.104  0.00  0.00    +0.000 C 
ATOM      4  N   UNL     1       4.178   4.880  18.553  0.00  0.00    +0.000 N 
ATOM      5  C   UNL     1       5.528   4.368  18.849  0.00  0.00    +0.000 C 
ATOM      6  C   UNL     1       6.565   5.388  18.317  0.00  0.00    +0.000 C 
ENDROOT
BRANCH   4   7
ATOM      7  C   UNL     1       3.139   4.270  19.252  0.00  0.00    +0.000 A 
ATOM      8  N   UNL     1       3.076   2.914  19.242  0.00  0.00    +0.000 NA
ATOM      9  C   UNL     1       2.064   2.297  19.894  0.00  0.00    +0.000 A 
ATOM     10  C   UNL     1       1.078   2.965  20.585  0.00  0.00    +0.000 A 
ATOM     11  C   UNL     1       1.125   4.348  20.585  0.00  0.00    +0.000 A 
ATOM     12  C   UNL     1       2.151   5.025  19.889  0.00  0.00    +0.000 A 
BRANCH  12  13
ATOM     13  C   UNL     1       2.095   6.525  19.858  0.00  0.00    +0.000 C 
ATOM     14  F   UNL     1       1.263   7.137  20.745  0.00  0.00    +0.000 F 
ATOM     15  F   UNL     1       3.322   7.086  20.086  0.00  0.00    +0.000 F 
ATOM     16  F   UNL     1       1.716   6.989  18.629  0.00  0.00    +0.000 F 
ENDBRANCH  12  13
ENDBRANCH   4   7
BRANCH   1  17
ATOM     17  C   UNL     1       6.966   4.515  16.093  0.00  0.00    +0.000 C 
BRANCH  17  22
ATOM     18  C   UNL     1       5.944   3.923  12.469  0.00  0.00    +0.000 A 
ATOM     19  C   UNL     1       6.957   4.582  11.764  0.00  0.00    +0.000 A 
ATOM     20  C   UNL     1       7.969   5.254  12.453  0.00  0.00    +0.000 A 
ATOM     21  C   UNL     1       7.984   5.265  13.851  0.00  0.00    +0.000 A 
ATOM     22  C   UNL     1       6.963   4.647  14.581  0.00  0.00    +0.000 A 
ATOM     23  C   UNL     1       5.941   3.991  13.872  0.00  0.00    +0.000 A 
BRANCH  18  25
ATOM     24  F   UNL     1       4.523   3.596  10.555  0.00  0.00    +0.000 F 
ATOM     25  C   UNL     1       4.900   3.094  11.764  0.00  0.00    +0.000 C 
ATOM     26  F   UNL     1       3.755   2.958  12.488  0.00  0.00    +0.000 F 
ATOM     27  F   UNL     1       5.334   1.825  11.516  0.00  0.00    +0.000 F 
ENDBRANCH  18  25
ENDBRANCH  17  22
ENDBRANCH   1  17
TORSDOF 5
ENDMDL
MODEL 2
REMARK VINA RESULT:      -8.0      0.543      1.238
REMARK  Name = 
REMARK  5 active torsions:
REMARK  status: ('A' for Active; 'I' for Inactive)
REMARK    1  A    between atoms: C_2  and  C_5
REMARK    2  A    between atoms: C_9  and  C_10
REMARK    3  A    between atoms: C_10  and  N_11
REMARK    4  A    between atoms: N_14  and  C_15
REMARK    5  A    between atoms: C_20  and  C_21
REMARK                            x       y       z     vdW  Elec       q    Type
REMARK                         _______ _______ _______ _____ _____    ______ ____
ROOT
ATOM      1  N   UNL     1       6.418   5.577  16.691  0.00  0.00    +0.000 NA
ATOM      2  C   UNL     1       4.998   5.899  16.384  0.00  0.00    +0.000 C 
ATOM      3  C   UNL     1       3.923   4.959  17.000  0.00  0.00    +0.000 C 
ATOM      4  N   UNL     1       4.163   4.826  18.451  0.00  0.00    +0.000 N 
ATOM      5  C   UNL     1       5.523   4.338  18.742  0.00  0.00    +0.000 C 
ATOM      6  C   UNL     1       6.540   5.350  18.156  0.00  0.00    +0.000 C 
ENDROOT
BRANCH   4   7
ATOM      7  C   UNL     1       3.142   4.230  19.188  0.00  0.00    +0.000 A 
ATOM      8  N   UNL     1       3.067   2.875  19.190  0.00  0.00    +0.000 NA
ATOM      9  C   UNL     1       2.072   2.271  19.880  0.00  0.00    +0.000 A 
ATOM     10  C   UNL     1       1.116   2.952  20.600  0.00  0.00    +0.000 A 
ATOM     11  C   UNL     1       1.175   4.335  20.588  0.00  0.00    +0.000 A 
ATOM     12  C   UNL     1       2.183   4.998  19.854  0.00  0.00    +0.000 A 
BRANCH  12  13
ATOM     13  C   UNL     1       2.140   6.498  19.814  0.00  0.00    +0.000 C 
ATOM     14  F   UNL     1       3.310   7.162  20.027  0.00  0.00    +0.000 F 
ATOM     15  F   UNL     1       1.689   6.964  18.610  0.00  0.00    +0.000 F 
ATOM     16  F   UNL     1       1.267   7.002  20.738  0.00  0.00    +0.000 F 
ENDBRANCH  12  13
ENDBRANCH   4   7
BRANCH   1  17
ATOM     17  C   UNL     1       6.912   4.403  15.957  0.00  0.00    +0.000 C 
BRANCH  17  22
ATOM     18  C   UNL     1       6.429   3.463  12.296  0.00  0.00    +0.000 A 
ATOM     19  C   UNL     1       7.186   4.438  11.637  0.00  0.00    +0.000 A 
ATOM     20  C   UNL     1       7.839   5.432  12.367  0.00  0.00    +0.000 A 
ATOM     21  C   UNL     1       7.751   5.456  13.762  0.00  0.00    +0.000 A 
ATOM     22  C   UNL     1       6.969   4.517  14.445  0.00  0.00    +0.000 A 
ATOM     23  C   UNL     1       6.303   3.533  13.693  0.00  0.00    +0.000 A 
BRANCH  18  25
ATOM     24  F   UNL     1       5.630   1.193  12.310  0.00  0.00    +0.000 F 
ATOM     25  C   UNL     1       5.803   2.310  11.551  0.00  0.00    +0.000 C 
ATOM     26  F   UNL     1       6.533   1.921  10.469  0.00  0.00    +0.000 F 
ATOM     27  F   UNL     1       4.566   2.622  11.070  0.00  0.00    +0.000 F 
ENDBRANCH  18  25
ENDBRANCH  17  22
ENDBRANCH   1  17
TORSDOF 5
ENDMDL
MODEL 3
REMARK VINA RESULT:      -7.9      0.487      1.133
REMARK  Name = 
REMARK  5 active torsions:
REMARK  status: ('A' for Active; 'I' for Inactive)
REMARK    1  A    between atoms: C_2  and  C_5
REMARK    2  A    between atoms: C_9  and  C_10
REMARK    3  A    between atoms: C_10  and  N_11
REMARK    4  A    between atoms: N_14  and  C_15
REMARK    5  A    between atoms: C_20  and  C_21
REMARK                            x       y       z     vdW  Elec       q    Type
REMARK                         _______ _______ _______ _____ _____    ______ ____
ROOT
ATOM      1  N   UNL     1       6.406   5.785  16.718  0.00  0.00    +0.000 NA
ATOM      2  C   UNL     1       4.936   5.967  16.576  0.00  0.00    +0.000 C 
ATOM      3  C   UNL     1       4.034   4.982  17.375  0.00  0.00    +0.000 C 
ATOM      4  N   UNL     1       4.460   4.964  18.788  0.00  0.00    +0.000 N 
ATOM      5  C   UNL     1       5.884   4.612  18.930  0.00  0.00    +0.000 C 
ATOM      6  C   UNL     1       6.726   5.665  18.165  0.00  0.00    +0.000 C 
ENDROOT
BRANCH   4   7
ATOM      7  C   UNL     1       3.596   4.334  19.681  0.00  0.00    +0.000 A 
ATOM      8  N   UNL     1       3.826   3.029  19.974  0.00  0.00    +0.000 NA
ATOM      9  C   UNL     1       2.987   2.387  20.820  0.00  0.00    +0.000 A 
ATOM     10  C   UNL     1       1.901   2.983  21.421  0.00  0.00    +0.000 A 
ATOM     11  C   UNL     1       1.651   4.308  21.114  0.00  0.00    +0.000 A 
ATOM     12  C   UNL     1       2.487   5.000  20.211  0.00  0.00    +0.000 A 
BRANCH  12  13
ATOM     13  C   UNL     1       2.111   6.409  19.855  0.00  0.00    +0.000 C 
ATOM     14  F   UNL     1       1.605   6.624  18.609  0.00  0.00    +0.000 F 
ATOM     15  F   UNL     1       1.166   6.915  20.706  0.00  0.00    +0.000 F 
ATOM     16  F   UNL     1       3.177   7.258  19.963  0.00  0.00    +0.000 F 
ENDBRANCH  12  13
ENDBRANCH   4   7
BRANCH   1  17
ATOM     17  C   UNL     1       6.912   4.611  15.992  0.00  0.00    +0.000 C 
BRANCH  17  22
ATOM     18  C   UNL     1       5.900   3.922  12.383  0.00  0.00    +0.000 A 
ATOM     19  C   UNL     1       6.928   4.542  11.663  0.00  0.00    +0.000 A 
ATOM     20  C   UNL     1       7.947   5.218  12.336  0.00  0.00    +0.000 A 
ATOM     21  C   UNL     1       7.956   5.273  13.733  0.00  0.00    +0.000 A 
ATOM     22  C   UNL     1       6.920   4.696  14.477  0.00  0.00    +0.000 A 
ATOM     23  C   UNL     1       5.891   4.035  13.783  0.00  0.00    +0.000 A 
BRANCH  18  25
ATOM     24  F   UNL     1       3.714   2.920  12.436  0.00  0.00    +0.000 F 
ATOM     25  C   UNL     1       4.845   3.090  11.698  0.00  0.00    +0.000 C 
ATOM     26  F   UNL     1       5.282   1.838  11.384  0.00  0.00    +0.000 F 
ATOM     27  F   UNL     1       4.438   3.645  10.521  0.00  0.00    +0.000 F 
ENDBRANCH  18  25
ENDBRANCH  17  22
ENDBRANCH   1  17
TORSDOF 5
ENDMDL
MODEL 4
REMARK VINA RESULT:      -7.8      0.781      1.150
REMARK  Name = 
REMARK  5 active torsions:
REMARK  status: ('A' for Active; 'I' for Inactive)
REMARK    1  A    between atoms: C_2  and  C_5
REMARK    2  A    between atoms: C_9  and  C_10
REMARK    3  A    between atoms: C_10  and  N_11
REMARK    4  A    between atoms: N_14  and  C_15
REMARK    5  A    between atoms: C_20  and  C_21
REMARK                            x       y       z     vdW  Elec       q    Type
REMARK                         _______ _______ _______ _____ _____    ______ ____
ROOT
ATOM      1  N   UNL     1       6.363   5.664  16.483  0.00  0.00    +0.000 NA
ATOM      2  C   UNL     1       4.885   5.809  16.375  0.00  0.00    +0.000 C 
ATOM      3  C   UNL     1       4.028   4.845  17.243  0.00  0.00    +0.000 C 
ATOM      4  N   UNL     1       4.492   4.902  18.643  0.00  0.00    +0.000 N 
ATOM      5  C   UNL     1       5.927   4.586  18.761  0.00  0.00    +0.000 C 
ATOM      6  C   UNL     1       6.724   5.619  17.925  0.00  0.00    +0.000 C 
ENDROOT
BRANCH   4   7
ATOM      7  C   UNL     1       3.666   4.297  19.588  0.00  0.00    +0.000 A 
ATOM      8  N   UNL     1       3.901   2.997  19.898  0.00  0.00    +0.000 NA
ATOM      9  C   UNL     1       3.099   2.379  20.796  0.00  0.00    +0.000 A 
ATOM     10  C   UNL     1       2.045   2.995  21.433  0.00  0.00    +0.000 A 
ATOM     11  C   UNL     1       1.788   4.315  21.109  0.00  0.00    +0.000 A 
ATOM     12  C   UNL     1       2.587   4.981  20.153  0.00  0.00    +0.000 A 
BRANCH  12  13
ATOM     13  C   UNL     1       2.202   6.386  19.784  0.00  0.00    +0.000 C 
ATOM     14  F   UNL     1       1.692   6.585  18.538  0.00  0.00    +0.000 F 
ATOM     15  F   UNL     1       1.258   6.895  20.633  0.00  0.00    +0.000 F 
ATOM     16  F   UNL     1       3.264   7.241  19.881  0.00  0.00    +0.000 F 
ENDBRANCH  12  13
ENDBRANCH   4   7
BRANCH   1  17
ATOM     17  C   UNL     1       6.874   4.469  15.798  0.00  0.00    +0.000 C 
BRANCH  17  22
ATOM     18  C   UNL     1       6.413   3.378  12.176  0.00  0.00    +0.000 A 
ATOM     19  C   UNL     1       7.163   4.333  11.481  0.00  0.00    +0.000 A 
ATOM     20  C   UNL     1       7.804   5.362  12.173  0.00  0.00    +0.000 A 
ATOM     21  C   UNL     1       7.711   5.441  13.566  0.00  0.00    +0.000 A 
ATOM     22  C   UNL     1       6.936   4.523  14.283  0.00  0.00    +0.000 A 
ATOM     23  C   UNL     1       6.281   3.503  13.569  0.00  0.00    +0.000 A 
BRANCH  18  25
ATOM     24  F   UNL     1       6.484   1.792  10.368  0.00  0.00    +0.000 F 
ATOM     25  C   UNL     1       5.800   2.191  11.476  0.00  0.00    +0.000 C 
ATOM     26  F   UNL     1       4.522   2.421  11.065  0.00  0.00    +0.000 F 
ATOM     27  F   UNL     1       5.738   1.095  12.284  0.00  0.00    +0.000 F 
ENDBRANCH  18  25
ENDBRANCH  17  22
ENDBRANCH   1  17
TORSDOF 5
ENDMDL
MODEL 5
REMARK VINA RESULT:      -7.6      1.934      2.392
REMARK  Name = 
REMARK  5 active torsions:
REMARK  status: ('A' for Active; 'I' for Inactive)
REMARK    1  A    between atoms: C_2  and  C_5
REMARK    2  A    between atoms: C_9  and  C_10
REMARK    3  A    between atoms: C_10  and  N_11
REMARK    4  A    between atoms: N_14  and  C_15
REMARK    5  A    between atoms: C_20  and  C_21
REMARK                            x       y       z     vdW  Elec       q    Type
REMARK                         _______ _______ _______ _____ _____    ______ ____
ROOT
ATOM      1  N   UNL     1       6.849   5.653  16.875  0.00  0.00    +0.000 NA
ATOM      2  C   UNL     1       5.575   6.347  16.543  0.00  0.00    +0.000 C 
ATOM      3  C   UNL     1       4.265   5.666  17.032  0.00  0.00    +0.000 C 
ATOM      4  N   UNL     1       4.377   5.366  18.473  0.00  0.00    +0.000 N 
ATOM      5  C   UNL     1       5.552   4.529  18.772  0.00  0.00    +0.000 C 
ATOM      6  C   UNL     1       6.823   5.291  18.318  0.00  0.00    +0.000 C 
ENDROOT
BRANCH   4   7
ATOM      7  C   UNL     1       3.198   4.994  19.115  0.00  0.00    +0.000 A 
ATOM      8  N   UNL     1       2.756   5.773  20.134  0.00  0.00    +0.000 NA
ATOM      9  C   UNL     1       1.626   5.421  20.790  0.00  0.00    +0.000 A 
ATOM     10  C   UNL     1       0.876   4.308  20.482  0.00  0.00    +0.000 A 
ATOM     11  C   UNL     1       1.330   3.499  19.454  0.00  0.00    +0.000 A 
ATOM     12  C   UNL     1       2.522   3.820  18.769  0.00  0.00    +0.000 A 
BRANCH  12  13
ATOM     13  C   UNL     1       3.003   2.856  17.724  0.00  0.00    +0.000 C 
ATOM     14  F   UNL     1       3.321   3.368  16.503  0.00  0.00    +0.000 F 
ATOM     15  F   UNL     1       4.127   2.187  18.125  0.00  0.00    +0.000 F 
ATOM     16  F   UNL     1       2.079   1.879  17.476  0.00  0.00    +0.000 F 
ENDBRANCH  12  13
ENDBRANCH   4   7
BRANCH   1  17
ATOM     17  C   UNL     1       7.078   4.451  16.060  0.00  0.00    +0.000 C 
BRANCH  17  22
ATOM     18  C   UNL     1       5.940   3.953  12.456  0.00  0.00    +0.000 A 
ATOM     19  C   UNL     1       6.923   4.643  11.738  0.00  0.00    +0.000 A 
ATOM     20  C   UNL     1       7.951   5.305  12.411  0.00  0.00    +0.000 A 
ATOM     21  C   UNL     1       8.013   5.276  13.807  0.00  0.00    +0.000 A 
ATOM     22  C   UNL     1       7.023   4.627  14.554  0.00  0.00    +0.000 A 
ATOM     23  C   UNL     1       5.984   3.981  13.860  0.00  0.00    +0.000 A 
BRANCH  18  25
ATOM     24  F   UNL     1       3.748   2.964  12.498  0.00  0.00    +0.000 F 
ATOM     25  C   UNL     1       4.880   3.135  11.762  0.00  0.00    +0.000 C 
ATOM     26  F   UNL     1       5.309   1.884  11.435  0.00  0.00    +0.000 F 
ATOM     27  F   UNL     1       4.477   3.706  10.592  0.00  0.00    +0.000 F 
ENDBRANCH  18  25
ENDBRANCH  17  22
ENDBRANCH   1  17
TORSDOF 5
ENDMDL
MODEL 6
REMARK VINA RESULT:      -7.2      1.868      2.539
REMARK  Name = 
REMARK  5 active torsions:
REMARK  status: ('A' for Active; 'I' for Inactive)
REMARK    1  A    between atoms: C_2  and  C_5
REMARK    2  A    between atoms: C_9  and  C_10
REMARK    3  A    between atoms: C_10  and  N_11
REMARK    4  A    between atoms: N_14  and  C_15
REMARK    5  A    between atoms: C_20  and  C_21
REMARK                            x       y       z     vdW  Elec       q    Type
REMARK                         _______ _______ _______ _____ _____    ______ ____
ROOT
ATOM      1  N   UNL     1       6.573   4.216  16.586  0.00  0.00    +0.000 NA
ATOM      2  C   UNL     1       6.813   4.554  18.015  0.00  0.00    +0.000 C 
ATOM      3  C   UNL     1       5.701   5.373  18.732  0.00  0.00    +0.000 C 
ATOM      4  N   UNL     1       4.398   4.711  18.528  0.00  0.00    +0.000 N 
ATOM      5  C   UNL     1       4.087   4.535  17.098  0.00  0.00    +0.000 C 
ATOM      6  C   UNL     1       5.198   3.662  16.462  0.00  0.00    +0.000 C 
ENDROOT
BRANCH   4   7
ATOM      7  C   UNL     1       3.346   5.173  19.316  0.00  0.00    +0.000 A 
ATOM      8  N   UNL     1       3.098   6.507  19.327  0.00  0.00    +0.000 NA
ATOM      9  C   UNL     1       2.097   6.984  20.103  0.00  0.00    +0.000 A 
ATOM     10  C   UNL     1       1.293   6.191  20.890  0.00  0.00    +0.000 A 
ATOM     11  C   UNL     1       1.551   4.832  20.898  0.00  0.00    +0.000 A 
ATOM     12  C   UNL     1       2.608   4.304  20.124  0.00  0.00    +0.000 A 
BRANCH  12  13
ATOM     13  C   UNL     1       2.889   2.833  20.244  0.00  0.00    +0.000 C 
ATOM     14  F   UNL     1       4.156   2.466  20.579  0.00  0.00    +0.000 F 
ATOM     15  F   UNL     1       2.093   2.237  21.183  0.00  0.00    +0.000 F 
ATOM     16  F   UNL     1       2.617   2.172  19.078  0.00  0.00    +0.000 F 
ENDBRANCH  12  13
ENDBRANCH   4   7
BRANCH   1  17
ATOM     17  C   UNL     1       6.734   5.368  15.688  0.00  0.00    +0.000 C 
BRANCH  17  22
ATOM     18  C   UNL     1       5.836   3.930  12.274  0.00  0.00    +0.000 A 
ATOM     19  C   UNL     1       6.984   4.210  11.524  0.00  0.00    +0.000 A 
ATOM     20  C   UNL     1       8.053   4.894  12.104  0.00  0.00    +0.000 A 
ATOM     21  C   UNL     1       7.991   5.298  13.442  0.00  0.00    +0.000 A 
ATOM     22  C   UNL     1       6.840   5.067  14.204  0.00  0.00    +0.000 A 
ATOM     23  C   UNL     1       5.765   4.392  13.599  0.00  0.00    +0.000 A 
BRANCH  18  25
ATOM     24  F   UNL     1       4.160   3.606  10.580  0.00  0.00    +0.000 F 
ATOM     25  C   UNL     1       4.710   3.097  11.716  0.00  0.00    +0.000 C 
ATOM     26  F   UNL     1       3.682   2.942  12.596  0.00  0.00    +0.000 F 
ATOM     27  F   UNL     1       5.116   1.835  11.396  0.00  0.00    +0.000 F 
ENDBRANCH  18  25
ENDBRANCH  17  22
ENDBRANCH   1  17
TORSDOF 5
ENDMDL
MODEL 7
REMARK VINA RESULT:      -7.2      1.844      2.635
REMARK  Name = 
REMARK  5 active torsions:
REMARK  status: ('A' for Active; 'I' for Inactive)
REMARK    1  A    between atoms: C_2  and  C_5
REMARK    2  A    between atoms: C_9  and  C_10
REMARK    3  A    between atoms: C_10  and  N_11
REMARK    4  A    between atoms: N_14  and  C_15
REMARK    5  A    between atoms: C_20  and  C_21
REMARK                            x       y       z     vdW  Elec       q    Type
REMARK                         _______ _______ _______ _____ _____    ______ ____
ROOT
ATOM      1  N   UNL     1       6.513   4.212  16.628  0.00  0.00    +0.000 NA
ATOM      2  C   UNL     1       6.742   4.539  18.062  0.00  0.00    +0.000 C 
ATOM      3  C   UNL     1       5.631   5.363  18.773  0.00  0.00    +0.000 C 
ATOM      4  N   UNL     1       4.323   4.715  18.552  0.00  0.00    +0.000 N 
ATOM      5  C   UNL     1       4.025   4.551  17.118  0.00  0.00    +0.000 C 
ATOM      6  C   UNL     1       5.134   3.672  16.486  0.00  0.00    +0.000 C 
ENDROOT
BRANCH   4   7
ATOM      7  C   UNL     1       3.269   5.181  19.334  0.00  0.00    +0.000 A 
ATOM      8  N   UNL     1       3.067   6.522  19.395  0.00  0.00    +0.000 NA
ATOM      9  C   UNL     1       2.064   7.002  20.165  0.00  0.00    +0.000 A 
ATOM     10  C   UNL     1       1.213   6.207  20.899  0.00  0.00    +0.000 A 
ATOM     11  C   UNL     1       1.423   4.839  20.856  0.00  0.00    +0.000 A 
ATOM     12  C   UNL     1       2.480   4.306  20.086  0.00  0.00    +0.000 A 
BRANCH  12  13
ATOM     13  C   UNL     1       2.706   2.823  20.150  0.00  0.00    +0.000 C 
ATOM     14  F   UNL     1       2.564   2.120  18.992  0.00  0.00    +0.000 F 
ATOM     15  F   UNL     1       3.964   2.517  20.591  0.00  0.00    +0.000 F 
ATOM     16  F   UNL     1       1.862   2.223  21.042  0.00  0.00    +0.000 F 
ENDBRANCH  12  13
ENDBRANCH   4   7
BRANCH   1  17
ATOM     17  C   UNL     1       6.693   5.369  15.739  0.00  0.00    +0.000 C 
BRANCH  17  22
ATOM     18  C   UNL     1       5.858   3.924  12.313  0.00  0.00    +0.000 A 
ATOM     19  C   UNL     1       7.005   4.234  11.573  0.00  0.00    +0.000 A 
ATOM     20  C   UNL     1       8.052   4.942  12.165  0.00  0.00    +0.000 A 
ATOM     21  C   UNL     1       7.969   5.339  13.503  0.00  0.00    +0.000 A 
ATOM     22  C   UNL     1       6.818   5.077  14.256  0.00  0.00    +0.000 A 
ATOM     23  C   UNL     1       5.765   4.378  13.639  0.00  0.00    +0.000 A 
BRANCH  18  25
ATOM     24  F   UNL     1       3.676   2.942  12.561  0.00  0.00    +0.000 F 
ATOM     25  C   UNL     1       4.757   3.066  11.743  0.00  0.00    +0.000 C 
ATOM     26  F   UNL     1       5.166   1.797  11.466  0.00  0.00    +0.000 F 
ATOM     27  F   UNL     1       4.275   3.564  10.568  0.00  0.00    +0.000 F 
ENDBRANCH  18  25
ENDBRANCH  17  22
ENDBRANCH   1  17
TORSDOF 5
ENDMDL
MODEL 8
REMARK VINA RESULT:      -7.1      6.124      9.355
REMARK  Name = 
REMARK  5 active torsions:
REMARK  status: ('A' for Active; 'I' for Inactive)
REMARK    1  A    between atoms: C_2  and  C_5
REMARK    2  A    between atoms: C_9  and  C_10
REMARK    3  A    between atoms: C_10  and  N_11
REMARK    4  A    between atoms: N_14  and  C_15
REMARK    5  A    between atoms: C_20  and  C_21
REMARK                            x       y       z     vdW  Elec       q    Type
REMARK                         _______ _______ _______ _____ _____    ______ ____
ROOT
ATOM      1  N   UNL     1      -0.090   8.629  21.082  0.00  0.00    +0.000 NA
ATOM      2  C   UNL     1      -0.549   9.072  22.426  0.00  0.00    +0.000 C 
ATOM      3  C   UNL     1      -0.195  10.531  22.836  0.00  0.00    +0.000 C 
ATOM      4  N   UNL     1      -0.620  11.457  21.769  0.00  0.00    +0.000 N 
ATOM      5  C   UNL     1      -0.020  11.111  20.468  0.00  0.00    +0.000 C 
ATOM      6  C   UNL     1      -0.463   9.675  20.092  0.00  0.00    +0.000 C 
ENDROOT
BRANCH   4   7
ATOM      7  C   UNL     1      -0.609  12.812  22.092  0.00  0.00    +0.000 A 
ATOM      8  N   UNL     1       0.545  13.500  21.907  0.00  0.00    +0.000 NA
ATOM      9  C   UNL     1       0.590  14.812  22.235  0.00  0.00    +0.000 A 
ATOM     10  C   UNL     1      -0.481  15.510  22.747  0.00  0.00    +0.000 A 
ATOM     11  C   UNL     1      -1.657  14.811  22.956  0.00  0.00    +0.000 A 
ATOM     12  C   UNL     1      -1.728  13.434  22.653  0.00  0.00    +0.000 A 
BRANCH  12  13
ATOM     13  C   UNL     1      -3.006  12.716  22.982  0.00  0.00    +0.000 C 
ATOM     14  F   UNL     1      -2.918  11.629  23.797  0.00  0.00    +0.000 F 
ATOM     15  F   UNL     1      -3.910  13.539  23.596  0.00  0.00    +0.000 F 
ATOM     16  F   UNL     1      -3.639  12.272  21.855  0.00  0.00    +0.000 F 
ENDBRANCH  12  13
ENDBRANCH   4   7
BRANCH   1  17
ATOM     17  C   UNL     1       1.357   8.376  21.024  0.00  0.00    +0.000 C 
BRANCH  17  22
ATOM     18  C   UNL     1       2.124   4.779  20.026  0.00  0.00    +0.000 A 
ATOM     19  C   UNL     1       2.820   4.947  18.824  0.00  0.00    +0.000 A 
ATOM     20  C   UNL     1       3.025   6.226  18.304  0.00  0.00    +0.000 A 
ATOM     21  C   UNL     1       2.545   7.350  18.983  0.00  0.00    +0.000 A 
ATOM     22  C   UNL     1       1.812   7.209  20.167  0.00  0.00    +0.000 A 
ATOM     23  C   UNL     1       1.599   5.912  20.668  0.00  0.00    +0.000 A 
BRANCH  18  25
ATOM     24  F   UNL     1       2.766   3.256  21.774  0.00  0.00    +0.000 F 
ATOM     25  C   UNL     1       1.981   3.425  20.674  0.00  0.00    +0.000 C 
ATOM     26  F   UNL     1       2.288   2.400  19.832  0.00  0.00    +0.000 F 
ATOM     27  F   UNL     1       0.705   3.190  21.094  0.00  0.00    +0.000 F 
ENDBRANCH  18  25
ENDBRANCH  17  22
ENDBRANCH   1  17
TORSDOF 5
ENDMDL
MODEL 9
REMARK VINA RESULT:      -7.0      4.381      8.122
REMARK  Name = 
REMARK  5 active torsions:
REMARK  status: ('A' for Active; 'I' for Inactive)
REMARK    1  A    between atoms: C_2  and  C_5
REMARK    2  A    between atoms: C_9  and  C_10
REMARK    3  A    between atoms: C_10  and  N_11
REMARK    4  A    between atoms: N_14  and  C_15
REMARK    5  A    between atoms: C_20  and  C_21
REMARK                            x       y       z     vdW  Elec       q    Type
REMARK                         _______ _______ _______ _____ _____    ______ ____
ROOT
ATOM      1  N   UNL     1       1.562   8.756  20.089  0.00  0.00    +0.000 NA
ATOM      2  C   UNL     1       1.970   7.677  21.028  0.00  0.00    +0.000 C 
ATOM      3  C   UNL     1       1.774   6.215  20.534  0.00  0.00    +0.000 C 
ATOM      4  N   UNL     1       2.396   6.060  19.204  0.00  0.00    +0.000 N 
ATOM      5  C   UNL     1       1.858   7.025  18.229  0.00  0.00    +0.000 C 
ATOM      6  C   UNL     1       2.141   8.456  18.752  0.00  0.00    +0.000 C 
ENDROOT
BRANCH   4   7
ATOM      7  C   UNL     1       2.533   4.754  18.740  0.00  0.00    +0.000 A 
ATOM      8  N   UNL     1       1.430   3.963  18.731  0.00  0.00    +0.000 NA
ATOM      9  C   UNL     1       1.541   2.683  18.307  0.00  0.00    +0.000 A 
ATOM     10  C   UNL     1       2.719   2.120  17.869  0.00  0.00    +0.000 A 
ATOM     11  C   UNL     1       3.852   2.915  17.892  0.00  0.00    +0.000 A 
ATOM     12  C   UNL     1       3.778   4.246  18.357  0.00  0.00    +0.000 A 
BRANCH  12  13
ATOM     13  C   UNL     1       5.059   5.026  18.437  0.00  0.00    +0.000 C 
ATOM     14  F   UNL     1       5.410   5.526  19.654  0.00  0.00    +0.000 F 
ATOM     15  F   UNL     1       6.135   4.281  18.042  0.00  0.00    +0.000 F 
ATOM     16  F   UNL     1       5.046   6.103  17.595  0.00  0.00    +0.000 F 
ENDBRANCH  12  13
ENDBRANCH   4   7
BRANCH   1  17
ATOM     17  C   UNL     1       0.103   8.905  19.983  0.00  0.00    +0.000 C 
BRANCH  17  22
ATOM     18  C   UNL     1      -1.917  11.187  17.695  0.00  0.00    +0.000 A 
ATOM     19  C   UNL     1      -1.310  12.430  17.905  0.00  0.00    +0.000 A 
ATOM     20  C   UNL     1      -0.257  12.553  18.812  0.00  0.00    +0.000 A 
ATOM     21  C   UNL     1       0.206  11.434  19.513  0.00  0.00    +0.000 A 
ATOM     22  C   UNL     1      -0.408  10.187  19.352  0.00  0.00    +0.000 A 
ATOM     23  C   UNL     1      -1.480  10.084  18.447  0.00  0.00    +0.000 A 
BRANCH  18  25
ATOM     24  F   UNL     1      -3.520   9.743  16.630  0.00  0.00    +0.000 F 
ATOM     25  C   UNL     1      -2.980  10.994  16.643  0.00  0.00    +0.000 C 
ATOM     26  F   UNL     1      -2.522  11.218  15.381  0.00  0.00    +0.000 F 
ATOM     27  F   UNL     1      -4.031  11.847  16.813  0.00  0.00    +0.000 F 
ENDBRANCH  18  25
ENDBRANCH  17  22
ENDBRANCH   1  17
TORSDOF 5
ENDMDL
