MODEL 1
REMARK VINA RESULT:      -7.0      0.000      0.000
REMARK  Name = 
REMARK  9 active torsions:
REMARK  status: ('A' for Active; 'I' for Inactive)
REMARK    1  A    between atoms: C_1  and  O_2
REMARK    2  A    between atoms: O_2  and  C_3
REMARK    3  A    between atoms: C_6  and  C_7
REMARK    4  A    between atoms: C_15  and  O_16
REMARK    5  A    between atoms: O_16  and  C_17
REMARK    6  A    between atoms: C_18  and  O_19
REMARK    7  A    between atoms: O_19  and  C_20
REMARK    8  A    between atoms: C_23  and  O_24
REMARK    9  A    between atoms: O_24  and  C_25
REMARK                            x       y       z     vdW  Elec       q    Type
REMARK                         _______ _______ _______ _____ _____    ______ ____
ROOT
ATOM      1  C   UNL     1       2.486   7.683  18.643  0.00  0.00    +0.000 C 
ATOM      2  C   UNL     1       1.333   8.566  18.553  0.00  0.00    +0.000 C 
ATOM      3  C   UNL     1       1.505   8.660  20.131  0.00  0.00    +0.000 C 
ATOM      4  O   UNL     1       1.303   7.776  20.953  0.00  0.00    +0.000 OA
ATOM      5  O   UNL     1       1.790   9.941  20.464  0.00  0.00    +0.000 OA
ATOM      6  C   UNL     1       0.558  10.378  20.948  0.00  0.00    +0.000 C 
ATOM      7  C   UNL     1      -0.343  10.416  19.750  0.00  0.00    +0.000 A 
ATOM      8  C   UNL     1      -1.454  11.287  19.988  0.00  0.00    +0.000 A 
ATOM      9  C   UNL     1      -2.392  11.633  19.046  0.00  0.00    +0.000 A 
ATOM     10  C   UNL     1      -2.216  11.084  17.771  0.00  0.00    +0.000 A 
ATOM     11  C   UNL     1      -1.071  10.107  17.515  0.00  0.00    +0.000 A 
ATOM     12  C   UNL     1      -0.062   9.684  18.541  0.00  0.00    +0.000 A 
ENDROOT
BRANCH   1  16
ATOM     13  C   UNL     1       5.026   4.678  16.205  0.00  0.00    +0.000 A 
ATOM     14  C   UNL     1       5.268   6.051  16.145  0.00  0.00    +0.000 A 
ATOM     15  C   UNL     1       4.529   7.010  16.957  0.00  0.00    +0.000 A 
ATOM     16  C   UNL     1       3.541   6.647  17.919  0.00  0.00    +0.000 A 
ATOM     17  C   UNL     1       3.306   5.242  17.919  0.00  0.00    +0.000 A 
ATOM     18  C   UNL     1       4.043   4.292  17.101  0.00  0.00    +0.000 A 
BRANCH  13  20
ATOM     19  C   UNL     1       6.490   4.383  14.282  0.00  0.00    +0.000 C 
ATOM     20  O   UNL     1       5.779   3.843  15.411  0.00  0.00    +0.000 OA
ENDBRANCH  13  20
BRANCH  17  21
ATOM     21  O   UNL     1       2.300   4.837  18.764  0.00  0.00    +0.000 OA
ATOM     22  C   UNL     1       1.429   3.840  18.257  0.00  0.00    +0.000 C 
ENDBRANCH  17  21
ENDBRANCH   1  16
BRANCH   9  23
ATOM     23  O   UNL     1      -3.313  12.505  19.574  0.00  0.00    +0.000 OA
ATOM     24  C   UNL     1      -3.237  13.187  20.822  0.00  0.00    +0.000 C 
ENDBRANCH   9  23
BRANCH  10  25
ATOM     25  O   UNL     1      -3.184  11.627  16.991  0.00  0.00    +0.000 OA
ATOM     26  C   UNL     1      -4.424  11.300  16.424  0.00  0.00    +0.000 C 
ENDBRANCH  10  25
TORSDOF 5
ENDMDL
MODEL 2
REMARK VINA RESULT:      -6.9      1.684      2.246
REMARK  Name = 
REMARK  9 active torsions:
REMARK  status: ('A' for Active; 'I' for Inactive)
REMARK    1  A    between atoms: C_1  and  O_2
REMARK    2  A    between atoms: O_2  and  C_3
REMARK    3  A    between atoms: C_6  and  C_7
REMARK    4  A    between atoms: C_15  and  O_16
REMARK    5  A    between atoms: O_16  and  C_17
REMARK    6  A    between atoms: C_18  and  O_19
REMARK    7  A    between atoms: O_19  and  C_20
REMARK    8  A    between atoms: C_23  and  O_24
REMARK    9  A    between atoms: O_24  and  C_25
REMARK                            x       y       z     vdW  Elec       q    Type
REMARK                         _______ _______ _______ _____ _____    ______ ____
ROOT
ATOM      1  C   UNL     1       1.647   8.582  18.636  0.00  0.00    +0.000 C 
ATOM      2  C   UNL     1       0.419   9.114  18.066  0.00  0.00    +0.000 C 
ATOM      3  C   UNL     1       0.277   9.823  19.482  0.00  0.00    +0.000 C 
ATOM      4  O   UNL     1       0.052   9.288  20.560  0.00  0.00    +0.000 OA
ATOM      5  O   UNL     1       0.312  11.164  19.305  0.00  0.00    +0.000 OA
ATOM      6  C   UNL     1      -1.037  11.491  19.425  0.00  0.00    +0.000 C 
ATOM      7  C   UNL     1      -1.695  10.896  18.217  0.00  0.00    +0.000 A 
ATOM      8  C   UNL     1      -2.942  11.547  17.954  0.00  0.00    +0.000 A 
ATOM      9  C   UNL     1      -3.727  11.319  16.850  0.00  0.00    +0.000 A 
ATOM     10  C   UNL     1      -3.240  10.381  15.932  0.00  0.00    +0.000 A 
ATOM     11  C   UNL     1      -1.941   9.634  16.225  0.00  0.00    +0.000 A 
ATOM     12  C   UNL     1      -1.093   9.838  17.444  0.00  0.00    +0.000 A 
ENDROOT
BRANCH   1  16
ATOM     13  C   UNL     1       4.949   5.388  18.067  0.00  0.00    +0.000 A 
ATOM     14  C   UNL     1       4.852   6.492  17.219  0.00  0.00    +0.000 A 
ATOM     15  C   UNL     1       3.866   7.548  17.422  0.00  0.00    +0.000 A 
ATOM     16  C   UNL     1       2.954   7.588  18.517  0.00  0.00    +0.000 A 
ATOM     17  C   UNL     1       3.069   6.425  19.333  0.00  0.00    +0.000 A 
ATOM     18  C   UNL     1       4.051   5.374  19.121  0.00  0.00    +0.000 A 
BRANCH  13  20
ATOM     19  C   UNL     1       6.721   4.557  16.621  0.00  0.00    +0.000 C 
ATOM     20  O   UNL     1       5.917   4.445  17.808  0.00  0.00    +0.000 OA
ENDBRANCH  13  20
BRANCH  17  21
ATOM     21  O   UNL     1       2.155   6.362  20.358  0.00  0.00    +0.000 OA
ATOM     22  C   UNL     1       1.571   5.091  20.589  0.00  0.00    +0.000 C 
ENDBRANCH  17  21
ENDBRANCH   1  16
BRANCH   9  23
ATOM     23  O   UNL     1      -4.843  12.119  16.873  0.00  0.00    +0.000 OA
ATOM     24  C   UNL     1      -5.767  12.278  17.944  0.00  0.00    +0.000 C 
ENDBRANCH   9  23
BRANCH  10  25
ATOM     25  O   UNL     1      -4.112  10.385  14.893  0.00  0.00    +0.000 OA
ATOM     26  C   UNL     1      -4.189  10.003  13.546  0.00  0.00    +0.000 C 
ENDBRANCH  10  25
TORSDOF 5
ENDMDL
MODEL 3
REMARK VINA RESULT:      -6.9      2.112      9.206
REMARK  Name = 
REMARK  9 active torsions:
REMARK  status: ('A' for Active; 'I' for Inactive)
REMARK    1  A    between atoms: C_1  and  O_2
REMARK    2  A    between atoms: O_2  and  C_3
REMARK    3  A    between atoms: C_6  and  C_7
REMARK    4  A    between atoms: C_15  and  O_16
REMARK    5  A    between atoms: O_16  and  C_17
REMARK    6  A    between atoms: C_18  and  O_19
REMARK    7  A    between atoms: O_19  and  C_20
REMARK    8  A    between atoms: C_23  and  O_24
REMARK    9  A    between atoms: O_24  and  C_25
REMARK                            x       y       z     vdW  Elec       q    Type
REMARK                         _______ _______ _______ _____ _____    ______ ____
ROOT
ATOM      1  C   UNL     1       0.223  10.133  20.276  0.00  0.00    +0.000 C 
ATOM      2  C   UNL     1       0.909   8.863  20.093  0.00  0.00    +0.000 C 
ATOM      3  C   UNL     1       1.132   9.399  18.613  0.00  0.00    +0.000 C 
ATOM      4  O   UNL     1       0.282   9.555  17.745  0.00  0.00    +0.000 OA
ATOM      5  O   UNL     1       2.460   9.540  18.393  0.00  0.00    +0.000 OA
ATOM      6  C   UNL     1       2.732   8.410  17.625  0.00  0.00    +0.000 C 
ATOM      7  C   UNL     1       2.552   7.249  18.556  0.00  0.00    +0.000 A 
ATOM      8  C   UNL     1       3.254   6.101  18.066  0.00  0.00    +0.000 A 
ATOM      9  C   UNL     1       3.388   4.917  18.749  0.00  0.00    +0.000 A 
ATOM     10  C   UNL     1       2.791   4.863  20.014  0.00  0.00    +0.000 A 
ATOM     11  C   UNL     1       1.988   6.057  20.527  0.00  0.00    +0.000 A 
ATOM     12  C   UNL     1       1.794   7.342  19.779  0.00  0.00    +0.000 A 
ENDROOT
BRANCH   1  16
ATOM     13  C   UNL     1      -2.785  12.605  22.780  0.00  0.00    +0.000 A 
ATOM     14  C   UNL     1      -1.874  11.738  23.386  0.00  0.00    +0.000 A 
ATOM     15  C   UNL     1      -0.870  11.004  22.624  0.00  0.00    +0.000 A 
ATOM     16  C   UNL     1      -0.682  11.136  21.217  0.00  0.00    +0.000 A 
ATOM     17  C   UNL     1      -1.655  12.003  20.641  0.00  0.00    +0.000 A 
ATOM     18  C   UNL     1      -2.657  12.727  21.407  0.00  0.00    +0.000 A 
BRANCH  13  20
ATOM     19  C   UNL     1      -4.395  12.547  24.605  0.00  0.00    +0.000 C 
ATOM     20  O   UNL     1      -3.690  13.267  23.577  0.00  0.00    +0.000 OA
ENDBRANCH  13  20
BRANCH  17  21
ATOM     21  O   UNL     1      -1.583  12.103  19.272  0.00  0.00    +0.000 OA
ATOM     22  C   UNL     1      -2.736  11.690  18.559  0.00  0.00    +0.000 C 
ENDBRANCH  17  21
ENDBRANCH   1  16
BRANCH   9  23
ATOM     23  O   UNL     1       4.140   4.022  18.027  0.00  0.00    +0.000 OA
ATOM     24  C   UNL     1       4.730   4.228  16.748  0.00  0.00    +0.000 C 
ENDBRANCH   9  23
BRANCH  10  25
ATOM     25  O   UNL     1       3.125   3.657  20.536  0.00  0.00    +0.000 OA
ATOM     26  C   UNL     1       2.593   2.648  21.351  0.00  0.00    +0.000 C 
ENDBRANCH  10  25
TORSDOF 5
ENDMDL
MODEL 4
REMARK VINA RESULT:      -6.8      2.429      2.932
REMARK  Name = 
REMARK  9 active torsions:
REMARK  status: ('A' for Active; 'I' for Inactive)
REMARK    1  A    between atoms: C_1  and  O_2
REMARK    2  A    between atoms: O_2  and  C_3
REMARK    3  A    between atoms: C_6  and  C_7
REMARK    4  A    between atoms: C_15  and  O_16
REMARK    5  A    between atoms: O_16  and  C_17
REMARK    6  A    between atoms: C_18  and  O_19
REMARK    7  A    between atoms: O_19  and  C_20
REMARK    8  A    between atoms: C_23  and  O_24
REMARK    9  A    between atoms: O_24  and  C_25
REMARK                            x       y       z     vdW  Elec       q    Type
REMARK                         _______ _______ _______ _____ _____    ______ ____
ROOT
ATOM      1  C   UNL     1       1.500   8.103  20.332  0.00  0.00    +0.000 C 
ATOM      2  C   UNL     1       0.901   9.419  20.493  0.00  0.00    +0.000 C 
ATOM      3  C   UNL     1       0.175   8.741  21.734  0.00  0.00    +0.000 C 
ATOM      4  O   UNL     1      -0.692   7.877  21.706  0.00  0.00    +0.000 OA
ATOM      5  O   UNL     1       0.568   9.369  22.867  0.00  0.00    +0.000 OA
ATOM      6  C   UNL     1      -0.540  10.170  23.134  0.00  0.00    +0.000 C 
ATOM      7  C   UNL     1      -0.558  11.193  22.038  0.00  0.00    +0.000 A 
ATOM      8  C   UNL     1      -1.313  12.342  22.439  0.00  0.00    +0.000 A 
ATOM      9  C   UNL     1      -1.417  13.502  21.710  0.00  0.00    +0.000 A 
ATOM     10  C   UNL     1      -0.718  13.533  20.498  0.00  0.00    +0.000 A 
ATOM     11  C   UNL     1       0.044  12.296  20.028  0.00  0.00    +0.000 A 
ATOM     12  C   UNL     1       0.134  11.006  20.788  0.00  0.00    +0.000 A 
ENDROOT
BRANCH   1  16
ATOM     13  C   UNL     1       3.634   5.021  17.616  0.00  0.00    +0.000 A 
ATOM     14  C   UNL     1       3.724   6.392  17.370  0.00  0.00    +0.000 A 
ATOM     15  C   UNL     1       3.120   7.384  18.252  0.00  0.00    +0.000 A 
ATOM     16  C   UNL     1       2.438   7.066  19.463  0.00  0.00    +0.000 A 
ATOM     17  C   UNL     1       2.344   5.657  19.652  0.00  0.00    +0.000 A 
ATOM     18  C   UNL     1       2.943   4.673  18.764  0.00  0.00    +0.000 A 
BRANCH  13  20
ATOM     19  C   UNL     1       5.389   4.594  15.984  0.00  0.00    +0.000 C 
ATOM     20  O   UNL     1       4.244   4.156  16.737  0.00  0.00    +0.000 OA
ENDBRANCH  13  20
BRANCH  17  21
ATOM     21  O   UNL     1       1.619   5.283  20.759  0.00  0.00    +0.000 OA
ATOM     22  C   UNL     1       1.664   3.905  21.091  0.00  0.00    +0.000 C 
ENDBRANCH  17  21
ENDBRANCH   1  16
BRANCH   9  23
ATOM     23  O   UNL     1      -2.186  14.426  22.375  0.00  0.00    +0.000 OA
ATOM     24  C   UNL     1      -3.024  14.198  23.504  0.00  0.00    +0.000 C 
ENDBRANCH   9  23
BRANCH  10  25
ATOM     25  O   UNL     1      -0.882  14.784  20.003  0.00  0.00    +0.000 OA
ATOM     26  C   UNL     1      -0.334  15.645  19.041  0.00  0.00    +0.000 C 
ENDBRANCH  10  25
TORSDOF 5
ENDMDL
MODEL 5
REMARK VINA RESULT:      -6.8      1.253      1.516
REMARK  Name = 
REMARK  9 active torsions:
REMARK  status: ('A' for Active; 'I' for Inactive)
REMARK    1  A    between atoms: C_1  and  O_2
REMARK    2  A    between atoms: O_2  and  C_3
REMARK    3  A    between atoms: C_6  and  C_7
REMARK    4  A    between atoms: C_15  and  O_16
REMARK    5  A    between atoms: O_16  and  C_17
REMARK    6  A    between atoms: C_18  and  O_19
REMARK    7  A    between atoms: O_19  and  C_20
REMARK    8  A    between atoms: C_23  and  O_24
REMARK    9  A    between atoms: O_24  and  C_25
REMARK                            x       y       z     vdW  Elec       q    Type
REMARK                         _______ _______ _______ _____ _____    ______ ____
ROOT
ATOM      1  C   UNL     1       1.781   8.279  19.669  0.00  0.00    +0.000 C 
ATOM      2  C   UNL     1       0.635   9.166  19.534  0.00  0.00    +0.000 C 
ATOM      3  C   UNL     1       0.939   9.502  21.057  0.00  0.00    +0.000 C 
ATOM      4  O   UNL     1       0.796   8.762  22.023  0.00  0.00    +0.000 OA
ATOM      5  O   UNL     1       1.266  10.811  21.160  0.00  0.00    +0.000 OA
ATOM      6  C   UNL     1       0.085  11.349  21.666  0.00  0.00    +0.000 C 
ATOM      7  C   UNL     1      -0.913  11.222  20.555  0.00  0.00    +0.000 A 
ATOM      8  C   UNL     1      -1.990  12.147  20.741  0.00  0.00    +0.000 A 
ATOM      9  C   UNL     1      -2.999  12.364  19.834  0.00  0.00    +0.000 A 
ATOM     10  C   UNL     1      -2.937  11.618  18.652  0.00  0.00    +0.000 A 
ATOM     11  C   UNL     1      -1.829  10.585  18.463  0.00  0.00    +0.000 A 
ATOM     12  C   UNL     1      -0.743  10.302  19.458  0.00  0.00    +0.000 A 
ENDROOT
BRANCH   1  16
ATOM     13  C   UNL     1       4.049   4.815  17.601  0.00  0.00    +0.000 A 
ATOM     14  C   UNL     1       4.194   6.135  17.173  0.00  0.00    +0.000 A 
ATOM     15  C   UNL     1       3.546   7.251  17.854  0.00  0.00    +0.000 A 
ATOM     16  C   UNL     1       2.759   7.117  19.035  0.00  0.00    +0.000 A 
ATOM     17  C   UNL     1       2.614   5.750  19.411  0.00  0.00    +0.000 A 
ATOM     18  C   UNL     1       3.258   4.643  18.724  0.00  0.00    +0.000 A 
BRANCH  13  20
ATOM     19  C   UNL     1       5.723   4.179  15.952  0.00  0.00    +0.000 C 
ATOM     20  O   UNL     1       4.706   3.825  16.907  0.00  0.00    +0.000 OA
ENDBRANCH  13  20
BRANCH  17  21
ATOM     21  O   UNL     1       1.792   5.547  20.495  0.00  0.00    +0.000 OA
ATOM     22  C   UNL     1       1.162   4.279  20.564  0.00  0.00    +0.000 C 
ENDBRANCH  17  21
ENDBRANCH   1  16
BRANCH   9  23
ATOM     23  O   UNL     1      -3.862  13.331  20.291  0.00  0.00    +0.000 OA
ATOM     24  C   UNL     1      -5.058  13.135  21.038  0.00  0.00    +0.000 C 
ENDBRANCH   9  23
BRANCH  10  25
ATOM     25  O   UNL     1      -3.960  12.056  17.878  0.00  0.00    +0.000 OA
ATOM     26  C   UNL     1      -5.025  11.560  17.112  0.00  0.00    +0.000 C 
ENDBRANCH  10  25
TORSDOF 5
ENDMDL
MODEL 6
REMARK VINA RESULT:      -6.8      1.866      2.304
REMARK  Name = 
REMARK  9 active torsions:
REMARK  status: ('A' for Active; 'I' for Inactive)
REMARK    1  A    between atoms: C_1  and  O_2
REMARK    2  A    between atoms: O_2  and  C_3
REMARK    3  A    between atoms: C_6  and  C_7
REMARK    4  A    between atoms: C_15  and  O_16
REMARK    5  A    between atoms: O_16  and  C_17
REMARK    6  A    between atoms: C_18  and  O_19
REMARK    7  A    between atoms: O_19  and  C_20
REMARK    8  A    between atoms: C_23  and  O_24
REMARK    9  A    between atoms: O_24  and  C_25
REMARK                            x       y       z     vdW  Elec       q    Type
REMARK                         _______ _______ _______ _____ _____    ______ ____
ROOT
ATOM      1  C   UNL     1       3.419   6.511  18.061  0.00  0.00    +0.000 C 
ATOM      2  C   UNL     1       2.542   7.630  18.369  0.00  0.00    +0.000 C 
ATOM      3  C   UNL     1       2.144   6.742  19.627  0.00  0.00    +0.000 C 
ATOM      4  O   UNL     1       1.514   5.692  19.624  0.00  0.00    +0.000 OA
ATOM      5  O   UNL     1       2.499   7.399  20.756  0.00  0.00    +0.000 OA
ATOM      6  C   UNL     1       1.268   7.890  21.184  0.00  0.00    +0.000 C 
ATOM      7  C   UNL     1       0.881   8.922  20.168  0.00  0.00    +0.000 A 
ATOM      8  C   UNL     1      -0.079   9.831  20.718  0.00  0.00    +0.000 A 
ATOM      9  C   UNL     1      -0.540  10.959  20.085  0.00  0.00    +0.000 A 
ATOM     10  C   UNL     1      -0.009  11.213  18.815  0.00  0.00    +0.000 A 
ATOM     11  C   UNL     1       0.971  10.224  18.189  0.00  0.00    +0.000 A 
ATOM     12  C   UNL     1       1.454   8.965  18.846  0.00  0.00    +0.000 A 
ENDROOT
BRANCH   1  16
ATOM     13  C   UNL     1       5.910   4.231  14.894  0.00  0.00    +0.000 A 
ATOM     14  C   UNL     1       5.760   5.618  14.840  0.00  0.00    +0.000 A 
ATOM     15  C   UNL     1       5.041   6.366  15.865  0.00  0.00    +0.000 A 
ATOM     16  C   UNL     1       4.476   5.776  17.034  0.00  0.00    +0.000 A 
ATOM     17  C   UNL     1       4.626   4.359  17.027  0.00  0.00    +0.000 A 
ATOM     18  C   UNL     1       5.339   3.620  15.997  0.00  0.00    +0.000 A 
BRANCH  13  20
ATOM     19  C   UNL     1       6.072   3.567  12.558  0.00  0.00    +0.000 C 
ATOM     20  O   UNL     1       6.615   3.609  13.890  0.00  0.00    +0.000 OA
ENDBRANCH  13  20
BRANCH  17  21
ATOM     21  O   UNL     1       4.025   3.721  18.086  0.00  0.00    +0.000 OA
ATOM     22  C   UNL     1       2.998   2.802  17.753  0.00  0.00    +0.000 C 
ENDBRANCH  17  21
ENDBRANCH   1  16
BRANCH   9  23
ATOM     23  O   UNL     1      -1.430  11.636  20.883  0.00  0.00    +0.000 OA
ATOM     24  C   UNL     1      -1.191  12.165  22.183  0.00  0.00    +0.000 C 
ENDBRANCH   9  23
BRANCH  10  25
ATOM     25  O   UNL     1      -0.524  12.405  18.425  0.00  0.00    +0.000 OA
ATOM     26  C   UNL     1      -0.229  13.775  18.469  0.00  0.00    +0.000 C 
ENDBRANCH  10  25
TORSDOF 5
ENDMDL
MODEL 7
REMARK VINA RESULT:      -6.8      0.972      1.006
REMARK  Name = 
REMARK  9 active torsions:
REMARK  status: ('A' for Active; 'I' for Inactive)
REMARK    1  A    between atoms: C_1  and  O_2
REMARK    2  A    between atoms: O_2  and  C_3
REMARK    3  A    between atoms: C_6  and  C_7
REMARK    4  A    between atoms: C_15  and  O_16
REMARK    5  A    between atoms: O_16  and  C_17
REMARK    6  A    between atoms: C_18  and  O_19
REMARK    7  A    between atoms: O_19  and  C_20
REMARK    8  A    between atoms: C_23  and  O_24
REMARK    9  A    between atoms: O_24  and  C_25
REMARK                            x       y       z     vdW  Elec       q    Type
REMARK                         _______ _______ _______ _____ _____    ______ ____
ROOT
ATOM      1  C   UNL     1       2.360   7.918  18.368  0.00  0.00    +0.000 C 
ATOM      2  C   UNL     1       1.126   8.648  18.122  0.00  0.00    +0.000 C 
ATOM      3  C   UNL     1       1.307   9.114  19.631  0.00  0.00    +0.000 C 
ATOM      4  O   UNL     1       1.203   8.425  20.637  0.00  0.00    +0.000 OA
ATOM      5  O   UNL     1       1.471  10.457  19.657  0.00  0.00    +0.000 OA
ATOM      6  C   UNL     1       0.209  10.878  20.072  0.00  0.00    +0.000 C 
ATOM      7  C   UNL     1      -0.707  10.560  18.929  0.00  0.00    +0.000 A 
ATOM      8  C   UNL     1      -1.894  11.357  19.003  0.00  0.00    +0.000 A 
ATOM      9  C   UNL     1      -2.873  11.392  18.040  0.00  0.00    +0.000 A 
ATOM     10  C   UNL     1      -2.661  10.586  16.916  0.00  0.00    +0.000 A 
ATOM     11  C   UNL     1      -1.430   9.686  16.847  0.00  0.00    +0.000 A 
ATOM     12  C   UNL     1      -0.372   9.601  17.907  0.00  0.00    +0.000 A 
ENDROOT
BRANCH   1  16
ATOM     13  C   UNL     1       5.215   4.806  16.473  0.00  0.00    +0.000 A 
ATOM     14  C   UNL     1       5.491   6.173  16.419  0.00  0.00    +0.000 A 
ATOM     15  C   UNL     1       4.645   7.167  17.071  0.00  0.00    +0.000 A 
ATOM     16  C   UNL     1       3.502   6.846  17.860  0.00  0.00    +0.000 A 
ATOM     17  C   UNL     1       3.242   5.445  17.857  0.00  0.00    +0.000 A 
ATOM     18  C   UNL     1       4.088   4.462  17.199  0.00  0.00    +0.000 A 
BRANCH  13  20
ATOM     19  C   UNL     1       6.178   3.958  14.405  0.00  0.00    +0.000 C 
ATOM     20  O   UNL     1       6.074   3.938  15.840  0.00  0.00    +0.000 OA
ENDBRANCH  13  20
BRANCH  17  21
ATOM     21  O   UNL     1       2.100   5.080  18.530  0.00  0.00    +0.000 OA
ATOM     22  C   UNL     1       2.196   3.906  19.318  0.00  0.00    +0.000 C 
ENDBRANCH  17  21
ENDBRANCH   1  16
BRANCH   9  23
ATOM     23  O   UNL     1      -3.868  12.273  18.389  0.00  0.00    +0.000 OA
ATOM     24  C   UNL     1      -5.016  12.004  19.187  0.00  0.00    +0.000 C 
ENDBRANCH   9  23
BRANCH  10  25
ATOM     25  O   UNL     1      -3.687  10.846  16.068  0.00  0.00    +0.000 OA
ATOM     26  C   UNL     1      -4.085  10.599  14.746  0.00  0.00    +0.000 C 
ENDBRANCH  10  25
TORSDOF 5
ENDMDL
MODEL 8
REMARK VINA RESULT:      -6.6      1.759      1.898
REMARK  Name = 
REMARK  9 active torsions:
REMARK  status: ('A' for Active; 'I' for Inactive)
REMARK    1  A    between atoms: C_1  and  O_2
REMARK    2  A    between atoms: O_2  and  C_3
REMARK    3  A    between atoms: C_6  and  C_7
REMARK    4  A    between atoms: C_15  and  O_16
REMARK    5  A    between atoms: O_16  and  C_17
REMARK    6  A    between atoms: C_18  and  O_19
REMARK    7  A    between atoms: O_19  and  C_20
REMARK    8  A    between atoms: C_23  and  O_24
REMARK    9  A    between atoms: O_24  and  C_25
REMARK                            x       y       z     vdW  Elec       q    Type
REMARK                         _______ _______ _______ _____ _____    ______ ____
ROOT
ATOM      1  C   UNL     1       2.820   6.906  19.092  0.00  0.00    +0.000 C 
ATOM      2  C   UNL     1       2.018   8.109  19.249  0.00  0.00    +0.000 C 
ATOM      3  C   UNL     1       1.552   7.410  20.598  0.00  0.00    +0.000 C 
ATOM      4  O   UNL     1       0.852   6.412  20.713  0.00  0.00    +0.000 OA
ATOM      5  O   UNL     1       1.941   8.175  21.644  0.00  0.00    +0.000 OA
ATOM      6  C   UNL     1       0.742   8.796  21.991  0.00  0.00    +0.000 C 
ATOM      7  C   UNL     1       0.433   9.718  20.850  0.00  0.00    +0.000 A 
ATOM      8  C   UNL     1      -0.467  10.749  21.270  0.00  0.00    +0.000 A 
ATOM      9  C   UNL     1      -0.847  11.819  20.497  0.00  0.00    +0.000 A 
ATOM     10  C   UNL     1      -0.290  11.880  19.214  0.00  0.00    +0.000 A 
ATOM     11  C   UNL     1       0.626  10.759  18.728  0.00  0.00    +0.000 A 
ATOM     12  C   UNL     1       1.018   9.562  19.542  0.00  0.00    +0.000 A 
ENDROOT
BRANCH   1  16
ATOM     13  C   UNL     1       5.217   4.265  16.141  0.00  0.00    +0.000 A 
ATOM     14  C   UNL     1       5.452   5.637  16.244  0.00  0.00    +0.000 A 
ATOM     15  C   UNL     1       4.761   6.476  17.216  0.00  0.00    +0.000 A 
ATOM     16  C   UNL     1       3.833   5.982  18.180  0.00  0.00    +0.000 A 
ATOM     17  C   UNL     1       3.602   4.586  18.012  0.00  0.00    +0.000 A 
ATOM     18  C   UNL     1       4.291   3.757  17.036  0.00  0.00    +0.000 A 
BRANCH  13  20
ATOM     19  C   UNL     1       6.210   4.137  13.922  0.00  0.00    +0.000 C 
ATOM     20  O   UNL     1       5.923   3.548  15.203  0.00  0.00    +0.000 OA
ENDBRANCH  13  20
BRANCH  17  21
ATOM     21  O   UNL     1       2.649   4.066  18.856  0.00  0.00    +0.000 OA
ATOM     22  C   UNL     1       1.486   3.549  18.232  0.00  0.00    +0.000 C 
ENDBRANCH  17  21
ENDBRANCH   1  16
BRANCH   9  23
ATOM     23  O   UNL     1      -1.695  12.645  21.193  0.00  0.00    +0.000 OA
ATOM     24  C   UNL     1      -1.523  13.138  22.518  0.00  0.00    +0.000 C 
ENDBRANCH   9  23
BRANCH  10  25
ATOM     25  O   UNL     1      -0.721  13.047  18.674  0.00  0.00    +0.000 OA
ATOM     26  C   UNL     1      -0.356  14.398  18.590  0.00  0.00    +0.000 C 
ENDBRANCH  10  25
TORSDOF 5
ENDMDL
MODEL 9
REMARK VINA RESULT:      -6.6      2.786      9.669
REMARK  Name = 
REMARK  9 active torsions:
REMARK  status: ('A' for Active; 'I' for Inactive)
REMARK    1  A    between atoms: C_1  and  O_2
REMARK    2  A    between atoms: O_2  and  C_3
REMARK    3  A    between atoms: C_6  and  C_7
REMARK    4  A    between atoms: C_15  and  O_16
REMARK    5  A    between atoms: O_16  and  C_17
REMARK    6  A    between atoms: C_18  and  O_19
REMARK    7  A    between atoms: O_19  and  C_20
REMARK    8  A    between atoms: C_23  and  O_24
REMARK    9  A    between atoms: O_24  and  C_25
REMARK                            x       y       z     vdW  Elec       q    Type
REMARK                         _______ _______ _______ _____ _____    ______ ____
ROOT
ATOM      1  C   UNL     1      -0.394  11.422  21.294  0.00  0.00    +0.000 C 
ATOM      2  C   UNL     1       0.289  10.217  20.848  0.00  0.00    +0.000 C 
ATOM      3  C   UNL     1       0.241  10.928  19.427  0.00  0.00    +0.000 C 
ATOM      4  O   UNL     1      -0.748  11.139  18.737  0.00  0.00    +0.000 OA
ATOM      5  O   UNL     1       1.507  11.158  19.010  0.00  0.00    +0.000 OA
ATOM      6  C   UNL     1       1.678  10.138  18.077  0.00  0.00    +0.000 C 
ATOM      7  C   UNL     1       1.693   8.871  18.879  0.00  0.00    +0.000 A 
ATOM      8  C   UNL     1       2.335   7.822  18.145  0.00  0.00    +0.000 A 
ATOM      9  C   UNL     1       2.618   6.576  18.648  0.00  0.00    +0.000 A 
ATOM     10  C   UNL     1       2.246   6.349  19.978  0.00  0.00    +0.000 A 
ATOM     11  C   UNL     1       1.508   7.436  20.757  0.00  0.00    +0.000 A 
ATOM     12  C   UNL     1       1.152   8.787  20.212  0.00  0.00    +0.000 A 
ENDROOT
BRANCH   1  16
ATOM     13  C   UNL     1      -2.708  14.167  24.215  0.00  0.00    +0.000 A 
ATOM     14  C   UNL     1      -3.218  12.928  23.825  0.00  0.00    +0.000 A 
ATOM     15  C   UNL     1      -2.475  12.015  22.963  0.00  0.00    +0.000 A 
ATOM     16  C   UNL     1      -1.155  12.266  22.486  0.00  0.00    +0.000 A 
ATOM     17  C   UNL     1      -0.693  13.554  22.882  0.00  0.00    +0.000 A 
ATOM     18  C   UNL     1      -1.443  14.461  23.737  0.00  0.00    +0.000 A 
BRANCH  13  20
ATOM     19  C   UNL     1      -4.037  16.182  24.533  0.00  0.00    +0.000 C 
ATOM     20  O   UNL     1      -3.473  14.960  25.041  0.00  0.00    +0.000 OA
ENDBRANCH  13  20
BRANCH  17  21
ATOM     21  O   UNL     1       0.541  13.892  22.379  0.00  0.00    +0.000 OA
ATOM     22  C   UNL     1       0.651  15.196  21.834  0.00  0.00    +0.000 C 
ENDBRANCH  17  21
ENDBRANCH   1  16
BRANCH   9  23
ATOM     23  O   UNL     1       3.262   5.807  17.709  0.00  0.00    +0.000 OA
ATOM     24  C   UNL     1       4.490   6.100  17.051  0.00  0.00    +0.000 C 
ENDBRANCH   9  23
BRANCH  10  25
ATOM     25  O   UNL     1       2.700   5.110  20.289  0.00  0.00    +0.000 OA
ATOM     26  C   UNL     1       2.393   4.025  21.122  0.00  0.00    +0.000 C 
ENDBRANCH  10  25
TORSDOF 5
ENDMDL
