MODEL 1
REMARK VINA RESULT:      -7.6      0.000      0.000
REMARK  Name = 
REMARK  6 active torsions:
REMARK  status: ('A' for Active; 'I' for Inactive)
REMARK    1  A    between atoms: C_1  and  C_2
REMARK    2  A    between atoms: C_5  and  C_7
REMARK    3  A    between atoms: C_10  and  C_11
REMARK    4  A    between atoms: N_13  and  C_14
REMARK    5  A    between atoms: C_15  and  O_16
REMARK    6  A    between atoms: C_15  and  C_17
REMARK                            x       y       z     vdW  Elec       q    Type
REMARK                         _______ _______ _______ _____ _____    ______ ____
ROOT
ATOM      1  C   UNL     1       8.048   6.086  18.949  0.00  0.00    +0.000 C 
ATOM      2  C   UNL     1       7.048   5.244  18.231  0.00  0.00    +0.000 C 
ATOM      3  N   UNL     1       5.840   5.081  18.656  0.00  0.00    +0.000 NA
ATOM      4  N   UNL     1       5.163   4.425  17.655  0.00  0.00    +0.000 N 
ATOM      5  C   UNL     1       3.775   4.308  17.638  0.00  0.00    +0.000 C 
ATOM      6  O   UNL     1       3.217   3.755  16.679  0.00  0.00    +0.000 OA
ATOM      7  C   UNL     1       5.979   4.267  16.434  0.00  0.00    +0.000 C 
ATOM      8  C   UNL     1       7.390   4.517  16.971  0.00  0.00    +0.000 C 
ENDROOT
BRANCH   5   9
ATOM      9  C   UNL     1       3.034   4.896  18.743  0.00  0.00    +0.000 A 
ATOM     10  C   UNL     1       2.659   6.207  18.956  0.00  0.00    +0.000 A 
ATOM     11 BR   UNL     1       2.959   7.689  17.846  0.00  0.00    +0.000 Br
ATOM     12  C   UNL     1       1.993   6.248  20.201  0.00  0.00    +0.000 A 
ATOM     13  C   UNL     1       1.386   7.379  20.948  0.00  0.00    +0.000 C 
ATOM     14  N   UNL     1       1.964   5.033  20.758  0.00  0.00    +0.000 NA
ATOM     15  N   UNL     1       2.653   4.252  19.903  0.00  0.00    +0.000 N 
ATOM     16  C   UNL     1       3.094   2.973  20.409  0.00  0.00    +0.000 C 
ENDBRANCH   5   9
BRANCH   7  17
ATOM     17  C   UNL     1       5.586   5.298  15.323  0.00  0.00    +0.000 C 
ATOM     18  F   UNL     1       4.906   6.363  15.817  0.00  0.00    +0.000 F 
ATOM     19  F   UNL     1       6.668   5.805  14.683  0.00  0.00    +0.000 F 
ATOM     20  F   UNL     1       4.801   4.728  14.379  0.00  0.00    +0.000 F 
ENDBRANCH   7  17
BRANCH   7  21
ATOM     21  O   UNL     1       5.914   2.903  15.996  0.00  0.00    +0.000 OA
ATOM     22  H   UNL     1       6.796   2.705  15.616  0.00  0.00    +0.000 HD
ENDBRANCH   7  21
TORSDOF 3
ENDMDL
MODEL 2
REMARK VINA RESULT:      -6.8      1.881      2.654
REMARK  Name = 
REMARK  6 active torsions:
REMARK  status: ('A' for Active; 'I' for Inactive)
REMARK    1  A    between atoms: C_1  and  C_2
REMARK    2  A    between atoms: C_5  and  C_7
REMARK    3  A    between atoms: C_10  and  C_11
REMARK    4  A    between atoms: N_13  and  C_14
REMARK    5  A    between atoms: C_15  and  O_16
REMARK    6  A    between atoms: C_15  and  C_17
REMARK                            x       y       z     vdW  Elec       q    Type
REMARK                         _______ _______ _______ _____ _____    ______ ____
ROOT
ATOM      1  C   UNL     1       8.196   5.556  20.057  0.00  0.00    +0.000 C 
ATOM      2  C   UNL     1       7.232   5.214  18.971  0.00  0.00    +0.000 C 
ATOM      3  N   UNL     1       6.062   4.721  19.207  0.00  0.00    +0.000 NA
ATOM      4  N   UNL     1       5.391   4.726  18.007  0.00  0.00    +0.000 N 
ATOM      5  C   UNL     1       4.017   4.514  17.914  0.00  0.00    +0.000 C 
ATOM      6  O   UNL     1       3.458   4.587  16.810  0.00  0.00    +0.000 OA
ATOM      7  C   UNL     1       6.155   5.396  16.937  0.00  0.00    +0.000 C 
ATOM      8  C   UNL     1       7.568   5.410  17.528  0.00  0.00    +0.000 C 
ENDROOT
BRANCH   5   9
ATOM      9  C   UNL     1       3.287   4.262  19.147  0.00  0.00    +0.000 A 
ATOM     10  C   UNL     1       2.903   3.066  19.717  0.00  0.00    +0.000 A 
ATOM     11 BR   UNL     1       3.234   1.329  19.090  0.00  0.00    +0.000 Br
ATOM     12  C   UNL     1       2.185   3.380  20.892  0.00  0.00    +0.000 A 
ATOM     13  C   UNL     1       1.526   2.509  21.898  0.00  0.00    +0.000 C 
ATOM     14  N   UNL     1       2.100   4.705  21.049  0.00  0.00    +0.000 NA
ATOM     15  N   UNL     1       2.705   5.215  19.959  0.00  0.00    +0.000 N 
ATOM     16  C   UNL     1       2.455   6.609  19.674  0.00  0.00    +0.000 C 
ENDBRANCH   5   9
BRANCH   7  17
ATOM     17  C   UNL     1       5.629   6.844  16.653  0.00  0.00    +0.000 C 
ATOM     18  F   UNL     1       5.028   6.951  15.442  0.00  0.00    +0.000 F 
ATOM     19  F   UNL     1       4.712   7.248  17.567  0.00  0.00    +0.000 F 
ATOM     20  F   UNL     1       6.637   7.747  16.680  0.00  0.00    +0.000 F 
ENDBRANCH   7  17
BRANCH   7  21
ATOM     21  O   UNL     1       6.177   4.558  15.774  0.00  0.00    +0.000 OA
ATOM     22  H   UNL     1       6.421   3.665  16.097  0.00  0.00    +0.000 HD
ENDBRANCH   7  21
TORSDOF 3
ENDMDL
MODEL 3
REMARK VINA RESULT:      -6.7      1.664      2.238
REMARK  Name = 
REMARK  6 active torsions:
REMARK  status: ('A' for Active; 'I' for Inactive)
REMARK    1  A    between atoms: C_1  and  C_2
REMARK    2  A    between atoms: C_5  and  C_7
REMARK    3  A    between atoms: C_10  and  C_11
REMARK    4  A    between atoms: N_13  and  C_14
REMARK    5  A    between atoms: C_15  and  O_16
REMARK    6  A    between atoms: C_15  and  C_17
REMARK                            x       y       z     vdW  Elec       q    Type
REMARK                         _______ _______ _______ _____ _____    ______ ____
ROOT
ATOM      1  C   UNL     1       8.010   6.323  19.029  0.00  0.00    +0.000 C 
ATOM      2  C   UNL     1       6.879   5.535  18.458  0.00  0.00    +0.000 C 
ATOM      3  N   UNL     1       5.652   5.712  18.822  0.00  0.00    +0.000 NA
ATOM      4  N   UNL     1       4.883   4.971  17.957  0.00  0.00    +0.000 N 
ATOM      5  C   UNL     1       3.499   5.117  17.868  0.00  0.00    +0.000 C 
ATOM      6  O   UNL     1       2.865   4.463  17.028  0.00  0.00    +0.000 OA
ATOM      7  C   UNL     1       5.679   4.369  16.869  0.00  0.00    +0.000 C 
ATOM      8  C   UNL     1       7.098   4.472  17.432  0.00  0.00    +0.000 C 
ENDROOT
BRANCH   5   9
ATOM      9  C   UNL     1       2.866   6.086  18.749  0.00  0.00    +0.000 A 
ATOM     10  C   UNL     1       2.187   5.890  19.934  0.00  0.00    +0.000 A 
ATOM     11 BR   UNL     1       1.881   4.274  20.836  0.00  0.00    +0.000 Br
ATOM     12  C   UNL     1       1.737   7.157  20.367  0.00  0.00    +0.000 A 
ATOM     13  C   UNL     1       0.948   7.560  21.559  0.00  0.00    +0.000 C 
ATOM     14  N   UNL     1       2.093   8.104  19.493  0.00  0.00    +0.000 NA
ATOM     15  N   UNL     1       2.707   7.434  18.499  0.00  0.00    +0.000 N 
ATOM     16  C   UNL     1       2.881   8.145  17.253  0.00  0.00    +0.000 C 
ENDBRANCH   5   9
BRANCH   7  17
ATOM     17  C   UNL     1       5.527   5.153  15.522  0.00  0.00    +0.000 C 
ATOM     18  F   UNL     1       6.715   5.360  14.903  0.00  0.00    +0.000 F 
ATOM     19  F   UNL     1       4.745   4.498  14.629  0.00  0.00    +0.000 F 
ATOM     20  F   UNL     1       4.964   6.368  15.722  0.00  0.00    +0.000 F 
ENDBRANCH   7  17
BRANCH   7  21
ATOM     21  O   UNL     1       5.352   2.977  16.759  0.00  0.00    +0.000 OA
ATOM     22  H   UNL     1       5.410   2.767  15.803  0.00  0.00    +0.000 HD
ENDBRANCH   7  21
TORSDOF 3
ENDMDL
MODEL 4
REMARK VINA RESULT:      -6.6      2.983      5.564
REMARK  Name = 
REMARK  6 active torsions:
REMARK  status: ('A' for Active; 'I' for Inactive)
REMARK    1  A    between atoms: C_1  and  C_2
REMARK    2  A    between atoms: C_5  and  C_7
REMARK    3  A    between atoms: C_10  and  C_11
REMARK    4  A    between atoms: N_13  and  C_14
REMARK    5  A    between atoms: C_15  and  O_16
REMARK    6  A    between atoms: C_15  and  C_17
REMARK                            x       y       z     vdW  Elec       q    Type
REMARK                         _______ _______ _______ _____ _____    ______ ____
ROOT
ATOM      1  C   UNL     1       2.838   7.586  18.298  0.00  0.00    +0.000 C 
ATOM      2  C   UNL     1       2.965   6.150  17.912  0.00  0.00    +0.000 C 
ATOM      3  N   UNL     1       3.816   5.737  17.034  0.00  0.00    +0.000 NA
ATOM      4  N   UNL     1       3.789   4.363  17.086  0.00  0.00    +0.000 N 
ATOM      5  C   UNL     1       4.757   3.569  16.473  0.00  0.00    +0.000 C 
ATOM      6  O   UNL     1       4.712   2.338  16.603  0.00  0.00    +0.000 OA
ATOM      7  C   UNL     1       2.938   3.858  18.181  0.00  0.00    +0.000 C 
ATOM      8  C   UNL     1       2.097   5.093  18.514  0.00  0.00    +0.000 C 
ENDROOT
BRANCH   5   9
ATOM      9  C   UNL     1       5.818   4.242  15.741  0.00  0.00    +0.000 A 
ATOM     10  C   UNL     1       6.061   4.290  14.383  0.00  0.00    +0.000 A 
ATOM     11 BR   UNL     1       5.058   3.511  13.002  0.00  0.00    +0.000 Br
ATOM     12  C   UNL     1       7.240   5.046  14.201  0.00  0.00    +0.000 A 
ATOM     13  C   UNL     1       7.984   5.416  12.970  0.00  0.00    +0.000 C 
ATOM     14  N   UNL     1       7.731   5.440  15.381  0.00  0.00    +0.000 NA
ATOM     15  N   UNL     1       6.904   4.891  16.292  0.00  0.00    +0.000 N 
ATOM     16  C   UNL     1       7.385   4.845  17.654  0.00  0.00    +0.000 C 
ENDBRANCH   5   9
BRANCH   7  17
ATOM     17  C   UNL     1       3.781   3.377  19.410  0.00  0.00    +0.000 C 
ATOM     18  F   UNL     1       4.017   2.042  19.390  0.00  0.00    +0.000 F 
ATOM     19  F   UNL     1       4.996   3.975  19.468  0.00  0.00    +0.000 F 
ATOM     20  F   UNL     1       3.149   3.653  20.576  0.00  0.00    +0.000 F 
ENDBRANCH   7  17
BRANCH   7  21
ATOM     21  O   UNL     1       2.054   2.853  17.667  0.00  0.00    +0.000 OA
ATOM     22  H   UNL     1       2.383   2.647  16.766  0.00  0.00    +0.000 HD
ENDBRANCH   7  21
TORSDOF 3
ENDMDL
MODEL 5
REMARK VINA RESULT:      -6.6      1.835      2.122
REMARK  Name = 
REMARK  6 active torsions:
REMARK  status: ('A' for Active; 'I' for Inactive)
REMARK    1  A    between atoms: C_1  and  C_2
REMARK    2  A    between atoms: C_5  and  C_7
REMARK    3  A    between atoms: C_10  and  C_11
REMARK    4  A    between atoms: N_13  and  C_14
REMARK    5  A    between atoms: C_15  and  O_16
REMARK    6  A    between atoms: C_15  and  C_17
REMARK                            x       y       z     vdW  Elec       q    Type
REMARK                         _______ _______ _______ _____ _____    ______ ____
ROOT
ATOM      1  C   UNL     1       7.888   5.514  19.924  0.00  0.00    +0.000 C 
ATOM      2  C   UNL     1       7.081   5.124  18.731  0.00  0.00    +0.000 C 
ATOM      3  N   UNL     1       6.015   4.399  18.817  0.00  0.00    +0.000 NA
ATOM      4  N   UNL     1       5.437   4.414  17.570  0.00  0.00    +0.000 N 
ATOM      5  C   UNL     1       4.138   3.963  17.339  0.00  0.00    +0.000 C 
ATOM      6  O   UNL     1       3.650   4.054  16.204  0.00  0.00    +0.000 OA
ATOM      7  C   UNL     1       6.126   5.329  16.640  0.00  0.00    +0.000 C 
ATOM      8  C   UNL     1       7.468   5.537  17.348  0.00  0.00    +0.000 C 
ENDROOT
BRANCH   5   9
ATOM      9  C   UNL     1       3.392   3.445  18.475  0.00  0.00    +0.000 A 
ATOM     10  C   UNL     1       2.747   4.121  19.491  0.00  0.00    +0.000 A 
ATOM     11 BR   UNL     1       2.592   5.976  19.726  0.00  0.00    +0.000 Br
ATOM     12  C   UNL     1       2.211   3.146  20.360  0.00  0.00    +0.000 A 
ATOM     13  C   UNL     1       1.435   3.280  21.619  0.00  0.00    +0.000 C 
ATOM     14  N   UNL     1       2.516   1.917  19.932  0.00  0.00    +0.000 NA
ATOM     15  N   UNL     1       3.280   2.119  18.841  0.00  0.00    +0.000 N 
ATOM     16  C   UNL     1       4.050   0.988  18.374  0.00  0.00    +0.000 C 
ENDBRANCH   5   9
BRANCH   7  17
ATOM     17  C   UNL     1       5.350   6.677  16.453  0.00  0.00    +0.000 C 
ATOM     18  F   UNL     1       4.254   6.761  17.247  0.00  0.00    +0.000 F 
ATOM     19  F   UNL     1       6.114   7.757  16.748  0.00  0.00    +0.000 F 
ATOM     20  F   UNL     1       4.930   6.828  15.175  0.00  0.00    +0.000 F 
ENDBRANCH   7  17
BRANCH   7  21
ATOM     21  O   UNL     1       6.386   4.644  15.407  0.00  0.00    +0.000 OA
ATOM     22  H   UNL     1       6.339   5.330  14.709  0.00  0.00    +0.000 HD
ENDBRANCH   7  21
TORSDOF 3
ENDMDL
MODEL 6
REMARK VINA RESULT:      -6.3      1.949      2.290
REMARK  Name = 
REMARK  6 active torsions:
REMARK  status: ('A' for Active; 'I' for Inactive)
REMARK    1  A    between atoms: C_1  and  C_2
REMARK    2  A    between atoms: C_5  and  C_7
REMARK    3  A    between atoms: C_10  and  C_11
REMARK    4  A    between atoms: N_13  and  C_14
REMARK    5  A    between atoms: C_15  and  O_16
REMARK    6  A    between atoms: C_15  and  C_17
REMARK                            x       y       z     vdW  Elec       q    Type
REMARK                         _______ _______ _______ _____ _____    ______ ____
ROOT
ATOM      1  C   UNL     1       7.885   5.868  19.319  0.00  0.00    +0.000 C 
ATOM      2  C   UNL     1       7.073   5.028  18.392  0.00  0.00    +0.000 C 
ATOM      3  N   UNL     1       5.952   4.489  18.740  0.00  0.00    +0.000 NA
ATOM      4  N   UNL     1       5.400   3.970  17.593  0.00  0.00    +0.000 N 
ATOM      5  C   UNL     1       4.074   3.544  17.523  0.00  0.00    +0.000 C 
ATOM      6  O   UNL     1       3.616   3.139  16.445  0.00  0.00    +0.000 OA
ATOM      7  C   UNL     1       6.176   4.318  16.387  0.00  0.00    +0.000 C 
ATOM      8  C   UNL     1       7.516   4.743  16.994  0.00  0.00    +0.000 C 
ENDROOT
BRANCH   5   9
ATOM      9  C   UNL     1       3.268   3.646  18.729  0.00  0.00    +0.000 A 
ATOM     10  C   UNL     1       3.334   2.918  19.899  0.00  0.00    +0.000 A 
ATOM     11 BR   UNL     1       4.535   1.546  20.340  0.00  0.00    +0.000 Br
ATOM     12  C   UNL     1       2.300   3.390  20.738  0.00  0.00    +0.000 A 
ATOM     13  C   UNL     1       1.882   2.976  22.101  0.00  0.00    +0.000 C 
ATOM     14  N   UNL     1       1.602   4.353  20.126  0.00  0.00    +0.000 NA
ATOM     15  N   UNL     1       2.154   4.443  18.900  0.00  0.00    +0.000 N 
ATOM     16  C   UNL     1       1.385   5.144  17.897  0.00  0.00    +0.000 C 
ENDBRANCH   5   9
BRANCH   7  17
ATOM     17  C   UNL     1       5.512   5.478  15.571  0.00  0.00    +0.000 C 
ATOM     18  F   UNL     1       4.526   6.103  16.261  0.00  0.00    +0.000 F 
ATOM     19  F   UNL     1       6.401   6.443  15.227  0.00  0.00    +0.000 F 
ATOM     20  F   UNL     1       4.965   5.019  14.421  0.00  0.00    +0.000 F 
ENDBRANCH   7  17
BRANCH   7  21
ATOM     21  O   UNL     1       6.404   3.133  15.613  0.00  0.00    +0.000 OA
ATOM     22  H   UNL     1       7.266   3.270  15.167  0.00  0.00    +0.000 HD
ENDBRANCH   7  21
TORSDOF 3
ENDMDL
MODEL 7
REMARK VINA RESULT:      -6.2      1.754      2.405
REMARK  Name = 
REMARK  6 active torsions:
REMARK  status: ('A' for Active; 'I' for Inactive)
REMARK    1  A    between atoms: C_1  and  C_2
REMARK    2  A    between atoms: C_5  and  C_7
REMARK    3  A    between atoms: C_10  and  C_11
REMARK    4  A    between atoms: N_13  and  C_14
REMARK    5  A    between atoms: C_15  and  O_16
REMARK    6  A    between atoms: C_15  and  C_17
REMARK                            x       y       z     vdW  Elec       q    Type
REMARK                         _______ _______ _______ _____ _____    ______ ____
ROOT
ATOM      1  C   UNL     1       8.151   5.654  19.250  0.00  0.00    +0.000 C 
ATOM      2  C   UNL     1       7.228   4.935  18.325  0.00  0.00    +0.000 C 
ATOM      3  N   UNL     1       6.075   4.488  18.699  0.00  0.00    +0.000 NA
ATOM      4  N   UNL     1       5.433   4.073  17.556  0.00  0.00    +0.000 N 
ATOM      5  C   UNL     1       4.072   3.776  17.525  0.00  0.00    +0.000 C 
ATOM      6  O   UNL     1       3.536   3.463  16.452  0.00  0.00    +0.000 OA
ATOM      7  C   UNL     1       6.193   4.399  16.333  0.00  0.00    +0.000 C 
ATOM      8  C   UNL     1       7.589   4.670  16.900  0.00  0.00    +0.000 C 
ENDROOT
BRANCH   5   9
ATOM      9  C   UNL     1       3.325   3.900  18.767  0.00  0.00    +0.000 A 
ATOM     10  C   UNL     1       2.925   2.926  19.658  0.00  0.00    +0.000 A 
ATOM     11 BR   UNL     1       3.249   1.080  19.573  0.00  0.00    +0.000 Br
ATOM     12  C   UNL     1       2.195   3.574  20.679  0.00  0.00    +0.000 A 
ATOM     13  C   UNL     1       1.516   3.039  21.886  0.00  0.00    +0.000 C 
ATOM     14  N   UNL     1       2.119   4.887  20.439  0.00  0.00    +0.000 NA
ATOM     15  N   UNL     1       2.742   5.052  19.256  0.00  0.00    +0.000 N 
ATOM     16  C   UNL     1       2.506   6.303  18.572  0.00  0.00    +0.000 C 
ENDBRANCH   5   9
BRANCH   7  17
ATOM     17  C   UNL     1       5.611   5.650  15.592  0.00  0.00    +0.000 C 
ATOM     18  F   UNL     1       4.903   5.318  14.485  0.00  0.00    +0.000 F 
ATOM     19  F   UNL     1       4.769   6.369  16.376  0.00  0.00    +0.000 F 
ATOM     20  F   UNL     1       6.597   6.491  15.199  0.00  0.00    +0.000 F 
ENDBRANCH   7  17
BRANCH   7  21
ATOM     21  O   UNL     1       6.277   3.233  15.504  0.00  0.00    +0.000 OA
ATOM     22  H   UNL     1       5.913   2.499  16.042  0.00  0.00    +0.000 HD
ENDBRANCH   7  21
TORSDOF 3
ENDMDL
MODEL 8
REMARK VINA RESULT:      -6.1      1.880      2.265
REMARK  Name = 
REMARK  6 active torsions:
REMARK  status: ('A' for Active; 'I' for Inactive)
REMARK    1  A    between atoms: C_1  and  C_2
REMARK    2  A    between atoms: C_5  and  C_7
REMARK    3  A    between atoms: C_10  and  C_11
REMARK    4  A    between atoms: N_13  and  C_14
REMARK    5  A    between atoms: C_15  and  O_16
REMARK    6  A    between atoms: C_15  and  C_17
REMARK                            x       y       z     vdW  Elec       q    Type
REMARK                         _______ _______ _______ _____ _____    ______ ____
ROOT
ATOM      1  C   UNL     1       7.914   8.060  17.778  0.00  0.00    +0.000 C 
ATOM      2  C   UNL     1       7.046   6.855  17.634  0.00  0.00    +0.000 C 
ATOM      3  N   UNL     1       5.893   6.753  18.209  0.00  0.00    +0.000 NA
ATOM      4  N   UNL     1       5.305   5.621  17.697  0.00  0.00    +0.000 N 
ATOM      5  C   UNL     1       3.955   5.328  17.879  0.00  0.00    +0.000 C 
ATOM      6  O   UNL     1       3.468   4.321  17.345  0.00  0.00    +0.000 OA
ATOM      7  C   UNL     1       6.099   5.016  16.609  0.00  0.00    +0.000 C 
ATOM      8  C   UNL     1       7.465   5.673  16.822  0.00  0.00    +0.000 C 
ENDROOT
BRANCH   5   9
ATOM      9  C   UNL     1       3.161   6.263  18.660  0.00  0.00    +0.000 A 
ATOM     10  C   UNL     1       2.471   6.066  19.839  0.00  0.00    +0.000 A 
ATOM     11 BR   UNL     1       2.358   4.498  20.863  0.00  0.00    +0.000 Br
ATOM     12  C   UNL     1       1.834   7.287  20.154  0.00  0.00    +0.000 A 
ATOM     13  C   UNL     1       0.953   7.666  21.287  0.00  0.00    +0.000 C 
ATOM     14  N   UNL     1       2.089   8.204  19.215  0.00  0.00    +0.000 NA
ATOM     15  N   UNL     1       2.826   7.552  18.296  0.00  0.00    +0.000 N 
ATOM     16  C   UNL     1       2.948   8.181  17.001  0.00  0.00    +0.000 C 
ENDBRANCH   5   9
BRANCH   7  17
ATOM     17  C   UNL     1       5.509   5.342  15.195  0.00  0.00    +0.000 C 
ATOM     18  F   UNL     1       4.865   6.535  15.162  0.00  0.00    +0.000 F 
ATOM     19  F   UNL     1       6.467   5.404  14.238  0.00  0.00    +0.000 F 
ATOM     20  F   UNL     1       4.621   4.398  14.805  0.00  0.00    +0.000 F 
ENDBRANCH   7  17
BRANCH   7  21
ATOM     21  O   UNL     1       6.247   3.612  16.856  0.00  0.00    +0.000 OA
ATOM     22  H   UNL     1       5.765   3.438  17.692  0.00  0.00    +0.000 HD
ENDBRANCH   7  21
TORSDOF 3
ENDMDL
MODEL 9
REMARK VINA RESULT:      -6.1      2.936      5.152
REMARK  Name = 
REMARK  6 active torsions:
REMARK  status: ('A' for Active; 'I' for Inactive)
REMARK    1  A    between atoms: C_1  and  C_2
REMARK    2  A    between atoms: C_5  and  C_7
REMARK    3  A    between atoms: C_10  and  C_11
REMARK    4  A    between atoms: N_13  and  C_14
REMARK    5  A    between atoms: C_15  and  O_16
REMARK    6  A    between atoms: C_15  and  C_17
REMARK                            x       y       z     vdW  Elec       q    Type
REMARK                         _______ _______ _______ _____ _____    ______ ____
ROOT
ATOM      1  C   UNL     1       1.752   6.357  20.449  0.00  0.00    +0.000 C 
ATOM      2  C   UNL     1       2.286   5.437  19.402  0.00  0.00    +0.000 C 
ATOM      3  N   UNL     1       3.294   5.743  18.654  0.00  0.00    +0.000 NA
ATOM      4  N   UNL     1       3.624   4.601  17.965  0.00  0.00    +0.000 N 
ATOM      5  C   UNL     1       4.819   4.467  17.260  0.00  0.00    +0.000 C 
ATOM      6  O   UNL     1       5.088   3.392  16.705  0.00  0.00    +0.000 OA
ATOM      7  C   UNL     1       2.838   3.431  18.404  0.00  0.00    +0.000 C 
ATOM      8  C   UNL     1       1.675   4.099  19.141  0.00  0.00    +0.000 C 
ENDROOT
BRANCH   5   9
ATOM      9  C   UNL     1       5.729   5.602  17.253  0.00  0.00    +0.000 A 
ATOM     10  C   UNL     1       6.700   5.961  18.166  0.00  0.00    +0.000 A 
ATOM     11 BR   UNL     1       7.199   5.061  19.734  0.00  0.00    +0.000 Br
ATOM     12  C   UNL     1       7.271   7.168  17.707  0.00  0.00    +0.000 A 
ATOM     13  C   UNL     1       8.342   8.023  18.281  0.00  0.00    +0.000 C 
ATOM     14  N   UNL     1       6.681   7.567  16.575  0.00  0.00    +0.000 NA
ATOM     15  N   UNL     1       5.716   6.653  16.358  0.00  0.00    +0.000 N 
ATOM     16  C   UNL     1       4.687   7.015  15.410  0.00  0.00    +0.000 C 
ENDBRANCH   5   9
BRANCH   7  17
ATOM     17  C   UNL     1       3.660   2.487  19.345  0.00  0.00    +0.000 C 
ATOM     18  F   UNL     1       4.013   1.326  18.740  0.00  0.00    +0.000 F 
ATOM     19  F   UNL     1       4.814   3.058  19.769  0.00  0.00    +0.000 F 
ATOM     20  F   UNL     1       2.952   2.160  20.452  0.00  0.00    +0.000 F 
ENDBRANCH   7  17
BRANCH   7  21
ATOM     21  O   UNL     1       2.301   2.764  17.254  0.00  0.00    +0.000 OA
ATOM     22  H   UNL     1       2.901   2.008  17.083  0.00  0.00    +0.000 HD
ENDBRANCH   7  21
TORSDOF 3
ENDMDL
