MODEL 1
REMARK VINA RESULT:      -8.2      0.000      0.000
REMARK  Name = 
REMARK  9 active torsions:
REMARK  status: ('A' for Active; 'I' for Inactive)
REMARK    1  A    between atoms: C_1  and  C_2
REMARK    2  A    between atoms: C_2  and  C_3
REMARK    3  A    between atoms: C_3  and  C_4
REMARK    4  A    between atoms: C_6  and  C_7
REMARK    5  A    between atoms: N_9  and  C_10
REMARK    6  A    between atoms: C_10  and  C_11
REMARK    7  A    between atoms: C_10  and  C_12
REMARK    8  A    between atoms: N_14  and  C_15
REMARK    9  A    between atoms: C_18  and  C_19
REMARK                            x       y       z     vdW  Elec       q    Type
REMARK                         _______ _______ _______ _____ _____    ______ ____
ROOT
ATOM      1  C   UNL     1       2.610   3.457  19.881  0.00  0.00    +0.000 C 
ATOM      2  C   UNL     1       3.006   2.891  21.238  0.00  0.00    +0.000 C 
ENDROOT
BRANCH   1   5
ATOM      3  C   UNL     1       3.818   3.696  17.719  0.00  0.00    +0.000 C 
ATOM      4  O   UNL     1       2.855   3.316  17.057  0.00  0.00    +0.000 OA
ATOM      5  N   UNL     1       3.792   3.782  19.087  0.00  0.00    +0.000 N 
ATOM      6  H   UNL     1       4.625   4.015  19.619  0.00  0.00    +0.000 HD
BRANCH   3   9
ATOM      7  C   UNL     1       6.504   4.343  15.129  0.00  0.00    +0.000 A 
ATOM      8  C   UNL     1       5.277   3.959  15.664  0.00  0.00    +0.000 A 
ATOM      9  C   UNL     1       5.094   4.058  17.048  0.00  0.00    +0.000 A 
ATOM     10  C   UNL     1       6.145   4.492  17.851  0.00  0.00    +0.000 A 
ATOM     11  C   UNL     1       7.330   4.846  17.237  0.00  0.00    +0.000 A 
ATOM     12  N   UNL     1       7.523   4.786  15.901  0.00  0.00    +0.000 NA
BRANCH   7  13
ATOM     13  C   UNL     1       6.771   4.274  13.645  0.00  0.00    +0.000 C 
BRANCH  13  15
ATOM     14  C   UNL     1       5.892   2.675  11.861  0.00  0.00    +0.000 C 
ATOM     15  C   UNL     1       5.573   3.827  12.802  0.00  0.00    +0.000 C 
ENDBRANCH  13  15
ENDBRANCH   7  13
ENDBRANCH   3   9
ENDBRANCH   1   5
BRANCH   1  16
ATOM     16  C   UNL     1       1.838   4.778  20.047  0.00  0.00    +0.000 C 
ATOM     17  O   UNL     1       0.681   4.758  20.474  0.00  0.00    +0.000 OA
ATOM     18  N   UNL     1       2.524   5.911  19.642  0.00  0.00    +0.000 N 
ATOM     19  H   UNL     1       3.397   5.796  19.134  0.00  0.00    +0.000 HD
BRANCH  18  20
ATOM     20  C   UNL     1       2.045   7.242  19.737  0.00  0.00    +0.000 A 
ATOM     21  C   UNL     1       1.497   7.778  20.904  0.00  0.00    +0.000 A 
ATOM     22  C   UNL     1       0.953   9.066  20.912  0.00  0.00    +0.000 A 
ATOM     23  C   UNL     1       0.959   9.852  19.757  0.00  0.00    +0.000 A 
ATOM     24  C   UNL     1       0.281  11.190  19.744  0.00  0.00    +0.000 C 
ATOM     25  C   UNL     1       1.569   9.349  18.602  0.00  0.00    +0.000 A 
ATOM     26  C   UNL     1       2.114   8.063  18.606  0.00  0.00    +0.000 A 
ATOM     27  F   UNL     1       2.676   7.594  17.480  0.00  0.00    +0.000 F 
ENDBRANCH  18  20
ENDBRANCH   1  16
TORSDOF 6
ENDMDL
MODEL 2
REMARK VINA RESULT:      -8.1      3.860      5.121
REMARK  Name = 
REMARK  9 active torsions:
REMARK  status: ('A' for Active; 'I' for Inactive)
REMARK    1  A    between atoms: C_1  and  C_2
REMARK    2  A    between atoms: C_2  and  C_3
REMARK    3  A    between atoms: C_3  and  C_4
REMARK    4  A    between atoms: C_6  and  C_7
REMARK    5  A    between atoms: N_9  and  C_10
REMARK    6  A    between atoms: C_10  and  C_11
REMARK    7  A    between atoms: C_10  and  C_12
REMARK    8  A    between atoms: N_14  and  C_15
REMARK    9  A    between atoms: C_18  and  C_19
REMARK                            x       y       z     vdW  Elec       q    Type
REMARK                         _______ _______ _______ _____ _____    ______ ____
ROOT
ATOM      1  C   UNL     1       7.604   5.206  18.104  0.00  0.00    +0.000 C 
ATOM      2  C   UNL     1       7.969   6.670  18.305  0.00  0.00    +0.000 C 
ENDROOT
BRANCH   1   5
ATOM      3  C   UNL     1       6.738   5.427  15.781  0.00  0.00    +0.000 C 
ATOM      4  O   UNL     1       5.886   6.252  16.102  0.00  0.00    +0.000 OA
ATOM      5  N   UNL     1       7.601   4.861  16.684  0.00  0.00    +0.000 N 
ATOM      6  H   UNL     1       8.239   4.119  16.413  0.00  0.00    +0.000 HD
BRANCH   3   9
ATOM      7  C   UNL     1       6.156   3.702  12.461  0.00  0.00    +0.000 A 
ATOM      8  C   UNL     1       5.978   4.045  13.799  0.00  0.00    +0.000 A 
ATOM      9  C   UNL     1       6.853   4.976  14.370  0.00  0.00    +0.000 A 
ATOM     10  C   UNL     1       7.894   5.498  13.607  0.00  0.00    +0.000 A 
ATOM     11  C   UNL     1       8.000   5.098  12.289  0.00  0.00    +0.000 A 
ATOM     12  N   UNL     1       7.152   4.222  11.707  0.00  0.00    +0.000 NA
BRANCH   7  13
ATOM     13  C   UNL     1       5.245   2.714  11.774  0.00  0.00    +0.000 C 
BRANCH  13  15
ATOM     14  C   UNL     1       3.539   3.714  10.162  0.00  0.00    +0.000 C 
ATOM     15  C   UNL     1       3.808   3.205  11.570  0.00  0.00    +0.000 C 
ENDBRANCH  13  15
ENDBRANCH   7  13
ENDBRANCH   3   9
ENDBRANCH   1   5
BRANCH   1  16
ATOM     16  C   UNL     1       6.177   4.926  18.608  0.00  0.00    +0.000 C 
ATOM     17  O   UNL     1       5.733   5.568  19.563  0.00  0.00    +0.000 OA
ATOM     18  N   UNL     1       5.513   3.907  17.947  0.00  0.00    +0.000 N 
ATOM     19  H   UNL     1       6.036   3.322  17.302  0.00  0.00    +0.000 HD
BRANCH  18  20
ATOM     20  C   UNL     1       4.179   3.496  18.197  0.00  0.00    +0.000 A 
ATOM     21  C   UNL     1       3.082   3.967  17.474  0.00  0.00    +0.000 A 
ATOM     22  C   UNL     1       1.780   3.600  17.827  0.00  0.00    +0.000 A 
ATOM     23  C   UNL     1       1.548   2.742  18.905  0.00  0.00    +0.000 A 
ATOM     24  C   UNL     1       0.147   2.435  19.344  0.00  0.00    +0.000 C 
ATOM     25  C   UNL     1       2.645   2.209  19.591  0.00  0.00    +0.000 A 
ATOM     26  C   UNL     1       3.942   2.578  19.227  0.00  0.00    +0.000 A 
ATOM     27  F   UNL     1       4.978   2.070  19.913  0.00  0.00    +0.000 F 
ENDBRANCH  18  20
ENDBRANCH   1  16
TORSDOF 6
ENDMDL
MODEL 3
REMARK VINA RESULT:      -7.8      3.067      4.752
REMARK  Name = 
REMARK  9 active torsions:
REMARK  status: ('A' for Active; 'I' for Inactive)
REMARK    1  A    between atoms: C_1  and  C_2
REMARK    2  A    between atoms: C_2  and  C_3
REMARK    3  A    between atoms: C_3  and  C_4
REMARK    4  A    between atoms: C_6  and  C_7
REMARK    5  A    between atoms: N_9  and  C_10
REMARK    6  A    between atoms: C_10  and  C_11
REMARK    7  A    between atoms: C_10  and  C_12
REMARK    8  A    between atoms: N_14  and  C_15
REMARK    9  A    between atoms: C_18  and  C_19
REMARK                            x       y       z     vdW  Elec       q    Type
REMARK                         _______ _______ _______ _____ _____    ______ ____
ROOT
ATOM      1  C   UNL     1       7.506   6.641  17.695  0.00  0.00    +0.000 C 
ATOM      2  C   UNL     1       7.421   8.154  17.851  0.00  0.00    +0.000 C 
ENDROOT
BRANCH   1   5
ATOM      3  C   UNL     1       7.443   4.970  15.852  0.00  0.00    +0.000 C 
ATOM      4  O   UNL     1       7.889   4.069  16.559  0.00  0.00    +0.000 OA
ATOM      5  N   UNL     1       7.239   6.245  16.314  0.00  0.00    +0.000 N 
ATOM      6  H   UNL     1       6.951   6.993  15.693  0.00  0.00    +0.000 HD
BRANCH   3   9
ATOM      7  C   UNL     1       5.769   3.849  12.646  0.00  0.00    +0.000 A 
ATOM      8  C   UNL     1       5.987   4.017  14.011  0.00  0.00    +0.000 A 
ATOM      9  C   UNL     1       7.127   4.716  14.423  0.00  0.00    +0.000 A 
ATOM     10  C   UNL     1       8.027   5.185  13.469  0.00  0.00    +0.000 A 
ATOM     11  C   UNL     1       7.735   4.969  12.137  0.00  0.00    +0.000 A 
ATOM     12  N   UNL     1       6.628   4.321  11.713  0.00  0.00    +0.000 NA
BRANCH   7  13
ATOM     13  C   UNL     1       4.557   3.115  12.127  0.00  0.00    +0.000 C 
BRANCH  13  15
ATOM     14  C   UNL     1       2.870   3.402  10.234  0.00  0.00    +0.000 C 
ATOM     15  C   UNL     1       4.334   3.238  10.616  0.00  0.00    +0.000 C 
ENDBRANCH  13  15
ENDBRANCH   7  13
ENDBRANCH   3   9
ENDBRANCH   1   5
BRANCH   1  16
ATOM     16  C   UNL     1       6.430   5.945  18.548  0.00  0.00    +0.000 C 
ATOM     17  O   UNL     1       6.730   5.499  19.659  0.00  0.00    +0.000 OA
ATOM     18  N   UNL     1       5.187   5.838  17.949  0.00  0.00    +0.000 N 
ATOM     19  H   UNL     1       5.099   6.071  16.964  0.00  0.00    +0.000 HD
BRANCH  18  20
ATOM     20  C   UNL     1       4.029   5.281  18.548  0.00  0.00    +0.000 A 
ATOM     21  C   UNL     1       3.348   5.883  19.607  0.00  0.00    +0.000 A 
ATOM     22  C   UNL     1       2.269   5.241  20.221  0.00  0.00    +0.000 A 
ATOM     23  C   UNL     1       1.838   3.987  19.780  0.00  0.00    +0.000 A 
ATOM     24  C   UNL     1       0.748   3.258  20.509  0.00  0.00    +0.000 C 
ATOM     25  C   UNL     1       2.470   3.408  18.674  0.00  0.00    +0.000 A 
ATOM     26  C   UNL     1       3.544   4.060  18.064  0.00  0.00    +0.000 A 
ATOM     27  F   UNL     1       4.148   3.475  17.017  0.00  0.00    +0.000 F 
ENDBRANCH  18  20
ENDBRANCH   1  16
TORSDOF 6
ENDMDL
MODEL 4
REMARK VINA RESULT:      -7.8      1.618      2.238
REMARK  Name = 
REMARK  9 active torsions:
REMARK  status: ('A' for Active; 'I' for Inactive)
REMARK    1  A    between atoms: C_1  and  C_2
REMARK    2  A    between atoms: C_2  and  C_3
REMARK    3  A    between atoms: C_3  and  C_4
REMARK    4  A    between atoms: C_6  and  C_7
REMARK    5  A    between atoms: N_9  and  C_10
REMARK    6  A    between atoms: C_10  and  C_11
REMARK    7  A    between atoms: C_10  and  C_12
REMARK    8  A    between atoms: N_14  and  C_15
REMARK    9  A    between atoms: C_18  and  C_19
REMARK                            x       y       z     vdW  Elec       q    Type
REMARK                         _______ _______ _______ _____ _____    ______ ____
ROOT
ATOM      1  C   UNL     1       3.624   3.489  18.087  0.00  0.00    +0.000 C 
ATOM      2  C   UNL     1       4.653   3.517  19.209  0.00  0.00    +0.000 C 
ENDROOT
BRANCH   1   5
ATOM      3  C   UNL     1       5.272   4.438  16.482  0.00  0.00    +0.000 C 
ATOM      4  O   UNL     1       5.675   5.278  17.284  0.00  0.00    +0.000 OA
ATOM      5  N   UNL     1       4.276   3.544  16.780  0.00  0.00    +0.000 N 
ATOM      6  H   UNL     1       3.900   2.917  16.077  0.00  0.00    +0.000 HD
BRANCH   3   9
ATOM      7  C   UNL     1       5.809   3.727  12.802  0.00  0.00    +0.000 A 
ATOM      8  C   UNL     1       5.205   3.711  14.056  0.00  0.00    +0.000 A 
ATOM      9  C   UNL     1       5.841   4.376  15.111  0.00  0.00    +0.000 A 
ATOM     10  C   UNL     1       7.069   4.994  14.891  0.00  0.00    +0.000 A 
ATOM     11  C   UNL     1       7.599   4.956  13.617  0.00  0.00    +0.000 A 
ATOM     12  N   UNL     1       6.992   4.345  12.577  0.00  0.00    +0.000 NA
BRANCH   7  13
ATOM     13  C   UNL     1       5.177   3.040  11.615  0.00  0.00    +0.000 C 
BRANCH  13  15
ATOM     14  C   UNL     1       3.337   3.714   9.980  0.00  0.00    +0.000 C 
ATOM     15  C   UNL     1       3.690   3.352  11.416  0.00  0.00    +0.000 C 
ENDBRANCH  13  15
ENDBRANCH   7  13
ENDBRANCH   3   9
ENDBRANCH   1   5
BRANCH   1  16
ATOM     16  C   UNL     1       2.711   4.726  18.153  0.00  0.00    +0.000 C 
ATOM     17  O   UNL     1       1.616   4.705  17.585  0.00  0.00    +0.000 OA
ATOM     18  N   UNL     1       3.242   5.808  18.833  0.00  0.00    +0.000 N 
ATOM     19  H   UNL     1       4.221   5.783  19.101  0.00  0.00    +0.000 HD
BRANCH  18  20
ATOM     20  C   UNL     1       2.578   7.039  19.068  0.00  0.00    +0.000 A 
ATOM     21  C   UNL     1       1.916   7.339  20.260  0.00  0.00    +0.000 A 
ATOM     22  C   UNL     1       1.198   8.530  20.400  0.00  0.00    +0.000 A 
ATOM     23  C   UNL     1       1.137   9.455  19.354  0.00  0.00    +0.000 A 
ATOM     24  C   UNL     1       0.280  10.681  19.471  0.00  0.00    +0.000 C 
ATOM     25  C   UNL     1       1.855   9.195  18.181  0.00  0.00    +0.000 A 
ATOM     26  C   UNL     1       2.574   8.004  18.054  0.00  0.00    +0.000 A 
ATOM     27  F   UNL     1       3.239   7.767  16.911  0.00  0.00    +0.000 F 
ENDBRANCH  18  20
ENDBRANCH   1  16
TORSDOF 6
ENDMDL
MODEL 5
REMARK VINA RESULT:      -7.7      1.160      2.600
REMARK  Name = 
REMARK  9 active torsions:
REMARK  status: ('A' for Active; 'I' for Inactive)
REMARK    1  A    between atoms: C_1  and  C_2
REMARK    2  A    between atoms: C_2  and  C_3
REMARK    3  A    between atoms: C_3  and  C_4
REMARK    4  A    between atoms: C_6  and  C_7
REMARK    5  A    between atoms: N_9  and  C_10
REMARK    6  A    between atoms: C_10  and  C_11
REMARK    7  A    between atoms: C_10  and  C_12
REMARK    8  A    between atoms: N_14  and  C_15
REMARK    9  A    between atoms: C_18  and  C_19
REMARK                            x       y       z     vdW  Elec       q    Type
REMARK                         _______ _______ _______ _____ _____    ______ ____
ROOT
ATOM      1  C   UNL     1       2.583   3.546  19.666  0.00  0.00    +0.000 C 
ATOM      2  C   UNL     1       3.032   2.827  20.931  0.00  0.00    +0.000 C 
ENDROOT
BRANCH   1   5
ATOM      3  C   UNL     1       3.811   3.976  17.544  0.00  0.00    +0.000 C 
ATOM      4  O   UNL     1       2.927   3.478  16.850  0.00  0.00    +0.000 OA
ATOM      5  N   UNL     1       3.734   4.039  18.912  0.00  0.00    +0.000 N 
ATOM      6  H   UNL     1       4.511   4.375  19.471  0.00  0.00    +0.000 HD
BRANCH   3   9
ATOM      7  C   UNL     1       6.839   6.096  16.723  0.00  0.00    +0.000 A 
ATOM      8  C   UNL     1       5.675   5.683  17.365  0.00  0.00    +0.000 A 
ATOM      9  C   UNL     1       5.044   4.517  16.916  0.00  0.00    +0.000 A 
ATOM     10  C   UNL     1       5.568   3.830  15.824  0.00  0.00    +0.000 A 
ATOM     11  C   UNL     1       6.723   4.315  15.243  0.00  0.00    +0.000 A 
ATOM     12  N   UNL     1       7.365   5.422  15.674  0.00  0.00    +0.000 NA
BRANCH   7  13
ATOM     13  C   UNL     1       7.579   7.338  17.158  0.00  0.00    +0.000 C 
BRANCH  13  15
ATOM     14  C   UNL     1       8.068   5.882  19.196  0.00  0.00    +0.000 C 
ATOM     15  C   UNL     1       8.173   7.264  18.568  0.00  0.00    +0.000 C 
ENDBRANCH  13  15
ENDBRANCH   7  13
ENDBRANCH   3   9
ENDBRANCH   1   5
BRANCH   1  16
ATOM     16  C   UNL     1       1.746   4.789  20.015  0.00  0.00    +0.000 C 
ATOM     17  O   UNL     1       0.599   4.648  20.447  0.00  0.00    +0.000 OA
ATOM     18  N   UNL     1       2.363   6.002  19.758  0.00  0.00    +0.000 N 
ATOM     19  H   UNL     1       3.231   6.004  19.230  0.00  0.00    +0.000 HD
BRANCH  18  20
ATOM     20  C   UNL     1       1.815   7.280  20.036  0.00  0.00    +0.000 A 
ATOM     21  C   UNL     1       1.273   7.629  21.273  0.00  0.00    +0.000 A 
ATOM     22  C   UNL     1       0.660   8.872  21.461  0.00  0.00    +0.000 A 
ATOM     23  C   UNL     1       0.589   9.799  20.418  0.00  0.00    +0.000 A 
ATOM     24  C   UNL     1      -0.160  11.086  20.594  0.00  0.00    +0.000 C 
ATOM     25  C   UNL     1       1.193   9.484  19.195  0.00  0.00    +0.000 A 
ATOM     26  C   UNL     1       1.807   8.241  19.019  0.00  0.00    +0.000 A 
ATOM     27  F   UNL     1       2.361   7.954  17.830  0.00  0.00    +0.000 F 
ENDBRANCH  18  20
ENDBRANCH   1  16
TORSDOF 6
ENDMDL
MODEL 6
REMARK VINA RESULT:      -7.7      3.177      4.914
REMARK  Name = 
REMARK  9 active torsions:
REMARK  status: ('A' for Active; 'I' for Inactive)
REMARK    1  A    between atoms: C_1  and  C_2
REMARK    2  A    between atoms: C_2  and  C_3
REMARK    3  A    between atoms: C_3  and  C_4
REMARK    4  A    between atoms: C_6  and  C_7
REMARK    5  A    between atoms: N_9  and  C_10
REMARK    6  A    between atoms: C_10  and  C_11
REMARK    7  A    between atoms: C_10  and  C_12
REMARK    8  A    between atoms: N_14  and  C_15
REMARK    9  A    between atoms: C_18  and  C_19
REMARK                            x       y       z     vdW  Elec       q    Type
REMARK                         _______ _______ _______ _____ _____    ______ ____
ROOT
ATOM      1  C   UNL     1       6.844   6.666  17.445  0.00  0.00    +0.000 C 
ATOM      2  C   UNL     1       7.066   8.168  17.558  0.00  0.00    +0.000 C 
ENDROOT
BRANCH   1   5
ATOM      3  C   UNL     1       6.894   4.927  15.665  0.00  0.00    +0.000 C 
ATOM      4  O   UNL     1       6.965   4.003  16.472  0.00  0.00    +0.000 OA
ATOM      5  N   UNL     1       6.845   6.244  16.046  0.00  0.00    +0.000 N 
ATOM      6  H   UNL     1       6.873   6.994  15.363  0.00  0.00    +0.000 HD
BRANCH   3   9
ATOM      7  C   UNL     1       6.013   3.636  12.216  0.00  0.00    +0.000 A 
ATOM      8  C   UNL     1       5.947   3.814  13.596  0.00  0.00    +0.000 A 
ATOM      9  C   UNL     1       6.888   4.652  14.205  0.00  0.00    +0.000 A 
ATOM     10  C   UNL     1       7.882   5.245  13.431  0.00  0.00    +0.000 A 
ATOM     11  C   UNL     1       7.877   5.008  12.071  0.00  0.00    +0.000 A 
ATOM     12  N   UNL     1       6.964   4.227  11.455  0.00  0.00    +0.000 NA
BRANCH   7  13
ATOM     13  C   UNL     1       5.026   2.756  11.488  0.00  0.00    +0.000 C 
BRANCH  13  15
ATOM     14  C   UNL     1       3.223   3.602   9.893  0.00  0.00    +0.000 C 
ATOM     15  C   UNL     1       3.625   3.357  11.340  0.00  0.00    +0.000 C 
ENDBRANCH  13  15
ENDBRANCH   7  13
ENDBRANCH   3   9
ENDBRANCH   1   5
BRANCH   1  16
ATOM     16  C   UNL     1       5.464   6.275  18.002  0.00  0.00    +0.000 C 
ATOM     17  O   UNL     1       4.466   6.914  17.655  0.00  0.00    +0.000 OA
ATOM     18  N   UNL     1       5.473   5.232  18.912  0.00  0.00    +0.000 N 
ATOM     19  H   UNL     1       6.367   4.902  19.265  0.00  0.00    +0.000 HD
BRANCH  18  20
ATOM     20  C   UNL     1       4.328   4.664  19.525  0.00  0.00    +0.000 A 
ATOM     21  C   UNL     1       3.299   5.425  20.081  0.00  0.00    +0.000 A 
ATOM     22  C   UNL     1       2.240   4.811  20.758  0.00  0.00    +0.000 A 
ATOM     23  C   UNL     1       2.181   3.420  20.881  0.00  0.00    +0.000 A 
ATOM     24  C   UNL     1       1.101   2.774  21.696  0.00  0.00    +0.000 C 
ATOM     25  C   UNL     1       3.172   2.647  20.265  0.00  0.00    +0.000 A 
ATOM     26  C   UNL     1       4.223   3.270  19.587  0.00  0.00    +0.000 A 
ATOM     27  F   UNL     1       5.173   2.507  19.023  0.00  0.00    +0.000 F 
ENDBRANCH  18  20
ENDBRANCH   1  16
TORSDOF 6
ENDMDL
MODEL 7
REMARK VINA RESULT:      -7.6      2.826      7.751
REMARK  Name = 
REMARK  9 active torsions:
REMARK  status: ('A' for Active; 'I' for Inactive)
REMARK    1  A    between atoms: C_1  and  C_2
REMARK    2  A    between atoms: C_2  and  C_3
REMARK    3  A    between atoms: C_3  and  C_4
REMARK    4  A    between atoms: C_6  and  C_7
REMARK    5  A    between atoms: N_9  and  C_10
REMARK    6  A    between atoms: C_10  and  C_11
REMARK    7  A    between atoms: C_10  and  C_12
REMARK    8  A    between atoms: N_14  and  C_15
REMARK    9  A    between atoms: C_18  and  C_19
REMARK                            x       y       z     vdW  Elec       q    Type
REMARK                         _______ _______ _______ _____ _____    ______ ____
ROOT
ATOM      1  C   UNL     1       6.561   6.639  17.153  0.00  0.00    +0.000 C 
ATOM      2  C   UNL     1       7.814   6.946  17.963  0.00  0.00    +0.000 C 
ENDROOT
BRANCH   1   5
ATOM      3  C   UNL     1       4.223   6.665  18.005  0.00  0.00    +0.000 C 
ATOM      4  O   UNL     1       3.896   7.605  17.284  0.00  0.00    +0.000 OA
ATOM      5  N   UNL     1       5.491   6.144  18.016  0.00  0.00    +0.000 N 
ATOM      6  H   UNL     1       5.763   5.426  18.680  0.00  0.00    +0.000 HD
BRANCH   3   9
ATOM      7  C   UNL     1       2.168   4.206  20.022  0.00  0.00    +0.000 A 
ATOM      8  C   UNL     1       3.105   4.675  19.104  0.00  0.00    +0.000 A 
ATOM      9  C   UNL     1       3.241   6.059  18.940  0.00  0.00    +0.000 A 
ATOM     10  C   UNL     1       2.416   6.920  19.660  0.00  0.00    +0.000 A 
ATOM     11  C   UNL     1       1.511   6.367  20.544  0.00  0.00    +0.000 A 
ATOM     12  N   UNL     1       1.379   5.038  20.740  0.00  0.00    +0.000 NA
BRANCH   7  13
ATOM     13  C   UNL     1       1.973   2.728  20.260  0.00  0.00    +0.000 C 
BRANCH  13  15
ATOM     14  C   UNL     1       3.284   1.461  18.474  0.00  0.00    +0.000 C 
ATOM     15  C   UNL     1       1.913   1.879  18.986  0.00  0.00    +0.000 C 
ENDBRANCH  13  15
ENDBRANCH   7  13
ENDBRANCH   3   9
ENDBRANCH   1   5
BRANCH   1  16
ATOM     16  C   UNL     1       6.833   5.518  16.134  0.00  0.00    +0.000 C 
ATOM     17  O   UNL     1       7.608   4.604  16.428  0.00  0.00    +0.000 OA
ATOM     18  N   UNL     1       6.193   5.666  14.916  0.00  0.00    +0.000 N 
ATOM     19  H   UNL     1       5.728   6.547  14.714  0.00  0.00    +0.000 HD
BRANCH  18  20
ATOM     20  C   UNL     1       6.249   4.746  13.838  0.00  0.00    +0.000 A 
ATOM     21  C   UNL     1       5.237   3.826  13.562  0.00  0.00    +0.000 A 
ATOM     22  C   UNL     1       5.390   2.879  12.545  0.00  0.00    +0.000 A 
ATOM     23  C   UNL     1       6.554   2.840  11.772  0.00  0.00    +0.000 A 
ATOM     24  C   UNL     1       6.755   1.758  10.754  0.00  0.00    +0.000 C 
ATOM     25  C   UNL     1       7.543   3.805  11.996  0.00  0.00    +0.000 A 
ATOM     26  C   UNL     1       7.378   4.750  13.012  0.00  0.00    +0.000 A 
ATOM     27  F   UNL     1       8.351   5.652  13.221  0.00  0.00    +0.000 F 
ENDBRANCH  18  20
ENDBRANCH   1  16
TORSDOF 6
ENDMDL
MODEL 8
REMARK VINA RESULT:      -7.5      1.765      2.589
REMARK  Name = 
REMARK  9 active torsions:
REMARK  status: ('A' for Active; 'I' for Inactive)
REMARK    1  A    between atoms: C_1  and  C_2
REMARK    2  A    between atoms: C_2  and  C_3
REMARK    3  A    between atoms: C_3  and  C_4
REMARK    4  A    between atoms: C_6  and  C_7
REMARK    5  A    between atoms: N_9  and  C_10
REMARK    6  A    between atoms: C_10  and  C_11
REMARK    7  A    between atoms: C_10  and  C_12
REMARK    8  A    between atoms: N_14  and  C_15
REMARK    9  A    between atoms: C_18  and  C_19
REMARK                            x       y       z     vdW  Elec       q    Type
REMARK                         _______ _______ _______ _____ _____    ______ ____
ROOT
ATOM      1  C   UNL     1       3.718   3.587  18.027  0.00  0.00    +0.000 C 
ATOM      2  C   UNL     1       4.739   3.711  19.150  0.00  0.00    +0.000 C 
ENDROOT
BRANCH   1   5
ATOM      3  C   UNL     1       5.414   4.458  16.428  0.00  0.00    +0.000 C 
ATOM      4  O   UNL     1       5.857   5.274  17.233  0.00  0.00    +0.000 OA
ATOM      5  N   UNL     1       4.375   3.614  16.722  0.00  0.00    +0.000 N 
ATOM      6  H   UNL     1       3.968   3.009  16.016  0.00  0.00    +0.000 HD
BRANCH   3   9
ATOM      7  C   UNL     1       6.054   3.525  12.814  0.00  0.00    +0.000 A 
ATOM      8  C   UNL     1       5.465   3.517  14.076  0.00  0.00    +0.000 A 
ATOM      9  C   UNL     1       5.981   4.372  15.057  0.00  0.00    +0.000 A 
ATOM     10  C   UNL     1       7.084   5.169  14.762  0.00  0.00    +0.000 A 
ATOM     11  C   UNL     1       7.609   5.108  13.486  0.00  0.00    +0.000 A 
ATOM     12  N   UNL     1       7.113   4.313  12.515  0.00  0.00    +0.000 NA
BRANCH   7  13
ATOM     13  C   UNL     1       5.545   2.639  11.703  0.00  0.00    +0.000 C 
BRANCH  13  15
ATOM     14  C   UNL     1       6.134   0.199  11.243  0.00  0.00    +0.000 C 
ATOM     15  C   UNL     1       6.578   1.651  11.151  0.00  0.00    +0.000 C 
ENDBRANCH  13  15
ENDBRANCH   7  13
ENDBRANCH   3   9
ENDBRANCH   1   5
BRANCH   1  16
ATOM     16  C   UNL     1       2.750   4.783  18.036  0.00  0.00    +0.000 C 
ATOM     17  O   UNL     1       1.629   4.662  17.537  0.00  0.00    +0.000 OA
ATOM     18  N   UNL     1       3.263   5.947  18.583  0.00  0.00    +0.000 N 
ATOM     19  H   UNL     1       4.256   5.990  18.794  0.00  0.00    +0.000 HD
BRANCH  18  20
ATOM     20  C   UNL     1       2.553   7.164  18.745  0.00  0.00    +0.000 A 
ATOM     21  C   UNL     1       2.496   8.154  17.764  0.00  0.00    +0.000 A 
ATOM     22  C   UNL     1       1.860   9.374  18.015  0.00  0.00    +0.000 A 
ATOM     23  C   UNL     1       1.256   9.625  19.250  0.00  0.00    +0.000 A 
ATOM     24  C   UNL     1       0.668  10.971  19.550  0.00  0.00    +0.000 C 
ATOM     25  C   UNL     1       1.248   8.610  20.214  0.00  0.00    +0.000 A 
ATOM     26  C   UNL     1       1.881   7.393  19.951  0.00  0.00    +0.000 A 
ATOM     27  F   UNL     1       1.878   6.442  20.899  0.00  0.00    +0.000 F 
ENDBRANCH  18  20
ENDBRANCH   1  16
TORSDOF 6
ENDMDL
MODEL 9
REMARK VINA RESULT:      -7.5      3.138      4.933
REMARK  Name = 
REMARK  9 active torsions:
REMARK  status: ('A' for Active; 'I' for Inactive)
REMARK    1  A    between atoms: C_1  and  C_2
REMARK    2  A    between atoms: C_2  and  C_3
REMARK    3  A    between atoms: C_3  and  C_4
REMARK    4  A    between atoms: C_6  and  C_7
REMARK    5  A    between atoms: N_9  and  C_10
REMARK    6  A    between atoms: C_10  and  C_11
REMARK    7  A    between atoms: C_10  and  C_12
REMARK    8  A    between atoms: N_14  and  C_15
REMARK    9  A    between atoms: C_18  and  C_19
REMARK                            x       y       z     vdW  Elec       q    Type
REMARK                         _______ _______ _______ _____ _____    ______ ____
ROOT
ATOM      1  C   UNL     1       6.606   6.704  17.395  0.00  0.00    +0.000 C 
ATOM      2  C   UNL     1       6.759   8.218  17.457  0.00  0.00    +0.000 C 
ENDROOT
BRANCH   1   5
ATOM      3  C   UNL     1       7.157   5.029  15.638  0.00  0.00    +0.000 C 
ATOM      4  O   UNL     1       7.685   4.260  16.438  0.00  0.00    +0.000 OA
ATOM      5  N   UNL     1       6.622   6.235  16.011  0.00  0.00    +0.000 N 
ATOM      6  H   UNL     1       6.269   6.893  15.323  0.00  0.00    +0.000 HD
BRANCH   3   9
ATOM      7  C   UNL     1       6.340   3.399  12.319  0.00  0.00    +0.000 A 
ATOM      8  C   UNL     1       6.343   3.624  13.694  0.00  0.00    +0.000 A 
ATOM      9  C   UNL     1       7.102   4.689  14.193  0.00  0.00    +0.000 A 
ATOM     10  C   UNL     1       7.860   5.461  13.317  0.00  0.00    +0.000 A 
ATOM     11  C   UNL     1       7.803   5.164  11.970  0.00  0.00    +0.000 A 
ATOM     12  N   UNL     1       7.058   4.160  11.460  0.00  0.00    +0.000 NA
BRANCH   7  13
ATOM     13  C   UNL     1       5.538   2.276  11.707  0.00  0.00    +0.000 C 
BRANCH  13  15
ATOM     14  C   UNL     1       6.140  -0.174  11.325  0.00  0.00    +0.000 C 
ATOM     15  C   UNL     1       6.363   1.270  10.899  0.00  0.00    +0.000 C 
ENDBRANCH  13  15
ENDBRANCH   7  13
ENDBRANCH   3   9
ENDBRANCH   1   5
BRANCH   1  16
ATOM     16  C   UNL     1       5.246   6.270  17.970  0.00  0.00    +0.000 C 
ATOM     17  O   UNL     1       4.218   6.837  17.592  0.00  0.00    +0.000 OA
ATOM     18  N   UNL     1       5.308   5.275  18.930  0.00  0.00    +0.000 N 
ATOM     19  H   UNL     1       6.217   5.010  19.299  0.00  0.00    +0.000 HD
BRANCH  18  20
ATOM     20  C   UNL     1       4.192   4.678  19.571  0.00  0.00    +0.000 A 
ATOM     21  C   UNL     1       3.150   5.413  20.138  0.00  0.00    +0.000 A 
ATOM     22  C   UNL     1       2.124   4.774  20.841  0.00  0.00    +0.000 A 
ATOM     23  C   UNL     1       2.110   3.383  20.979  0.00  0.00    +0.000 A 
ATOM     24  C   UNL     1       1.066   2.713  21.821  0.00  0.00    +0.000 C 
ATOM     25  C   UNL     1       3.113   2.634  20.352  0.00  0.00    +0.000 A 
ATOM     26  C   UNL     1       4.131   3.282  19.648  0.00  0.00    +0.000 A 
ATOM     27  F   UNL     1       5.093   2.543  19.074  0.00  0.00    +0.000 F 
ENDBRANCH  18  20
ENDBRANCH   1  16
TORSDOF 6
ENDMDL
