MODEL 1
REMARK VINA RESULT:      -7.6      0.000      0.000
REMARK  Name = 
REMARK  7 active torsions:
REMARK  status: ('A' for Active; 'I' for Inactive)
REMARK    1  A    between atoms: C_1  and  C_2
REMARK    2  A    between atoms: C_2  and  C_3
REMARK    3  A    between atoms: C_2  and  C_4
REMARK    4  A    between atoms: C_7  and  C_8
REMARK    5  A    between atoms: C_8  and  C_9
REMARK    6  A    between atoms: C_9  and  C_10
REMARK    7  A    between atoms: N_12  and  C_13
REMARK                            x       y       z     vdW  Elec       q    Type
REMARK                         _______ _______ _______ _____ _____    ______ ____
ROOT
ATOM      1  C   UNL     1       6.463   4.463  18.147  0.00  0.00    +0.000 C 
ATOM      2  O   UNL     1       6.990   4.750  19.216  0.00  0.00    +0.000 OA
ATOM      3  N   UNL     1       5.183   3.951  18.052  0.00  0.00    +0.000 N 
ATOM      4  H   UNL     1       4.864   3.615  17.147  0.00  0.00    +0.000 HD
ENDROOT
BRANCH   3   5
ATOM      5  C   UNL     1       4.385   3.713  19.254  0.00  0.00    +0.000 C 
ATOM      6  C   UNL     1       4.066   2.223  19.439  0.00  0.00    +0.000 C 
ATOM      7  C   UNL     1       2.883   1.923  18.534  0.00  0.00    +0.000 C 
ATOM      8  S   UNL     1       1.812   3.331  18.731  0.00  0.00    +0.000 S 
ATOM      9  O   UNL     1       0.927   3.080  19.853  0.00  0.00    +0.000 OA
ATOM     10  O   UNL     1       1.322   3.724  17.429  0.00  0.00    +0.000 OA
ATOM     11  C   UNL     1       3.066   4.485  19.250  0.00  0.00    +0.000 C 
ENDBRANCH   3   5
BRANCH   1  12
ATOM     12  C   UNL     1       7.149   4.645  16.813  0.00  0.00    +0.000 C 
BRANCH  12  13
ATOM     13  C   UNL     1       6.237   5.373  15.828  0.00  0.00    +0.000 C 
BRANCH  13  17
ATOM     14  C   UNL     1       6.189   3.894  12.600  0.00  0.00    +0.000 A 
ATOM     15  N   UNL     1       7.336   4.579  12.492  0.00  0.00    +0.000 NA
ATOM     16  O   UNL     1       7.452   5.202  13.738  0.00  0.00    +0.000 OA
ATOM     17  C   UNL     1       6.362   4.819  14.463  0.00  0.00    +0.000 A 
ATOM     18  N   UNL     1       5.561   4.005  13.813  0.00  0.00    +0.000 NA
BRANCH  14  20
ATOM     19  C   UNL     1       6.024   1.626  11.582  0.00  0.00    +0.000 C 
ATOM     20  C   UNL     1       5.613   3.093  11.481  0.00  0.00    +0.000 C 
ATOM     21  C   UNL     1       4.088   3.223  11.415  0.00  0.00    +0.000 C 
ENDBRANCH  14  20
ENDBRANCH  13  17
ENDBRANCH  12  13
ENDBRANCH   1  12
TORSDOF 5
ENDMDL
MODEL 2
REMARK VINA RESULT:      -7.6      1.266      1.739
REMARK  Name = 
REMARK  7 active torsions:
REMARK  status: ('A' for Active; 'I' for Inactive)
REMARK    1  A    between atoms: C_1  and  C_2
REMARK    2  A    between atoms: C_2  and  C_3
REMARK    3  A    between atoms: C_2  and  C_4
REMARK    4  A    between atoms: C_7  and  C_8
REMARK    5  A    between atoms: C_8  and  C_9
REMARK    6  A    between atoms: C_9  and  C_10
REMARK    7  A    between atoms: N_12  and  C_13
REMARK                            x       y       z     vdW  Elec       q    Type
REMARK                         _______ _______ _______ _____ _____    ______ ____
ROOT
ATOM      1  C   UNL     1       6.331   4.903  19.033  0.00  0.00    +0.000 C 
ATOM      2  O   UNL     1       6.001   5.734  19.870  0.00  0.00    +0.000 OA
ATOM      3  N   UNL     1       5.618   3.741  18.804  0.00  0.00    +0.000 N 
ATOM      4  H   UNL     1       6.024   3.041  18.189  0.00  0.00    +0.000 HD
ENDROOT
BRANCH   3   5
ATOM      5  C   UNL     1       4.415   3.441  19.577  0.00  0.00    +0.000 C 
ATOM      6  C   UNL     1       4.138   1.932  19.636  0.00  0.00    +0.000 C 
ATOM      7  C   UNL     1       3.448   1.573  18.331  0.00  0.00    +0.000 C 
ATOM      8  S   UNL     1       2.308   2.911  18.053  0.00  0.00    +0.000 S 
ATOM      9  O   UNL     1       1.058   2.594  18.719  0.00  0.00    +0.000 OA
ATOM     10  O   UNL     1       2.370   3.289  16.660  0.00  0.00    +0.000 OA
ATOM     11  C   UNL     1       3.169   4.132  19.024  0.00  0.00    +0.000 C 
ENDBRANCH   3   5
BRANCH   1  12
ATOM     12  C   UNL     1       7.547   5.057  18.151  0.00  0.00    +0.000 C 
BRANCH  12  13
ATOM     13  C   UNL     1       7.273   6.036  17.011  0.00  0.00    +0.000 C 
BRANCH  13  17
ATOM     14  C   UNL     1       6.386   4.357  14.011  0.00  0.00    +0.000 A 
ATOM     15  N   UNL     1       5.189   4.343  14.613  0.00  0.00    +0.000 NA
ATOM     16  O   UNL     1       5.433   5.001  15.822  0.00  0.00    +0.000 OA
ATOM     17  C   UNL     1       6.754   5.343  15.813  0.00  0.00    +0.000 A 
ATOM     18  N   UNL     1       7.381   4.981  14.718  0.00  0.00    +0.000 NA
BRANCH  14  20
ATOM     19  C   UNL     1       5.341   3.185  12.076  0.00  0.00    +0.000 C 
ATOM     20  C   UNL     1       6.636   3.716  12.687  0.00  0.00    +0.000 C 
ATOM     21  C   UNL     1       7.337   4.673  11.717  0.00  0.00    +0.000 C 
ENDBRANCH  14  20
ENDBRANCH  13  17
ENDBRANCH  12  13
ENDBRANCH   1  12
TORSDOF 5
ENDMDL
MODEL 3
REMARK VINA RESULT:      -7.2      1.343      1.798
REMARK  Name = 
REMARK  7 active torsions:
REMARK  status: ('A' for Active; 'I' for Inactive)
REMARK    1  A    between atoms: C_1  and  C_2
REMARK    2  A    between atoms: C_2  and  C_3
REMARK    3  A    between atoms: C_2  and  C_4
REMARK    4  A    between atoms: C_7  and  C_8
REMARK    5  A    between atoms: C_8  and  C_9
REMARK    6  A    between atoms: C_9  and  C_10
REMARK    7  A    between atoms: N_12  and  C_13
REMARK                            x       y       z     vdW  Elec       q    Type
REMARK                         _______ _______ _______ _____ _____    ______ ____
ROOT
ATOM      1  C   UNL     1       6.238   5.505  18.952  0.00  0.00    +0.000 C 
ATOM      2  O   UNL     1       6.809   5.141  19.973  0.00  0.00    +0.000 OA
ATOM      3  N   UNL     1       4.900   5.258  18.709  0.00  0.00    +0.000 N 
ATOM      4  H   UNL     1       4.530   5.473  17.788  0.00  0.00    +0.000 HD
ENDROOT
BRANCH   3   5
ATOM      5  C   UNL     1       4.090   4.523  19.680  0.00  0.00    +0.000 C 
ATOM      6  C   UNL     1       4.201   3.005  19.480  0.00  0.00    +0.000 C 
ATOM      7  C   UNL     1       3.251   2.652  18.348  0.00  0.00    +0.000 C 
ATOM      8  S   UNL     1       1.803   3.638  18.665  0.00  0.00    +0.000 S 
ATOM      9  O   UNL     1       0.923   2.890  19.541  0.00  0.00    +0.000 OA
ATOM     10  O   UNL     1       1.352   4.211  17.417  0.00  0.00    +0.000 OA
ATOM     11  C   UNL     1       2.611   4.904  19.624  0.00  0.00    +0.000 C 
ENDBRANCH   3   5
BRANCH   1  12
ATOM     12  C   UNL     1       6.927   6.272  17.848  0.00  0.00    +0.000 C 
BRANCH  12  13
ATOM     13  C   UNL     1       5.940   6.638  16.742  0.00  0.00    +0.000 C 
BRANCH  13  17
ATOM     14  C   UNL     1       6.041   4.284  14.086  0.00  0.00    +0.000 A 
ATOM     15  N   UNL     1       5.155   3.661  14.876  0.00  0.00    +0.000 NA
ATOM     16  O   UNL     1       5.038   4.528  15.967  0.00  0.00    +0.000 OA
ATOM     17  C   UNL     1       5.865   5.582  15.711  0.00  0.00    +0.000 A 
ATOM     18  N   UNL     1       6.494   5.486  14.562  0.00  0.00    +0.000 NA
BRANCH  14  20
ATOM     19  C   UNL     1       5.365   3.204  11.944  0.00  0.00    +0.000 C 
ATOM     20  C   UNL     1       6.527   3.707  12.799  0.00  0.00    +0.000 C 
ATOM     21  C   UNL     1       7.380   4.709  12.013  0.00  0.00    +0.000 C 
ENDBRANCH  14  20
ENDBRANCH  13  17
ENDBRANCH  12  13
ENDBRANCH   1  12
TORSDOF 5
ENDMDL
MODEL 4
REMARK VINA RESULT:      -7.1      1.204      1.351
REMARK  Name = 
REMARK  7 active torsions:
REMARK  status: ('A' for Active; 'I' for Inactive)
REMARK    1  A    between atoms: C_1  and  C_2
REMARK    2  A    between atoms: C_2  and  C_3
REMARK    3  A    between atoms: C_2  and  C_4
REMARK    4  A    between atoms: C_7  and  C_8
REMARK    5  A    between atoms: C_8  and  C_9
REMARK    6  A    between atoms: C_9  and  C_10
REMARK    7  A    between atoms: N_12  and  C_13
REMARK                            x       y       z     vdW  Elec       q    Type
REMARK                         _______ _______ _______ _____ _____    ______ ____
ROOT
ATOM      1  C   UNL     1       5.260   4.399  17.736  0.00  0.00    +0.000 C 
ATOM      2  O   UNL     1       6.210   4.123  18.459  0.00  0.00    +0.000 OA
ATOM      3  N   UNL     1       4.007   3.838  17.893  0.00  0.00    +0.000 N 
ATOM      4  H   UNL     1       3.307   4.016  17.178  0.00  0.00    +0.000 HD
ENDROOT
BRANCH   3   5
ATOM      5  C   UNL     1       3.757   2.858  18.948  0.00  0.00    +0.000 C 
ATOM      6  C   UNL     1       2.662   1.859  18.549  0.00  0.00    +0.000 C 
ATOM      7  C   UNL     1       1.335   2.552  18.809  0.00  0.00    +0.000 C 
ATOM      8  S   UNL     1       1.574   3.390  20.361  0.00  0.00    +0.000 S 
ATOM      9  O   UNL     1       1.227   2.477  21.433  0.00  0.00    +0.000 OA
ATOM     10  O   UNL     1       1.012   4.718  20.260  0.00  0.00    +0.000 OA
ATOM     11  C   UNL     1       3.350   3.506  20.272  0.00  0.00    +0.000 C 
ENDBRANCH   3   5
BRANCH   1  12
ATOM     12  C   UNL     1       5.348   5.390  16.599  0.00  0.00    +0.000 C 
BRANCH  12  13
ATOM     13  C   UNL     1       6.783   5.508  16.089  0.00  0.00    +0.000 C 
BRANCH  13  17
ATOM     14  C   UNL     1       6.748   4.155  12.807  0.00  0.00    +0.000 A 
ATOM     15  N   UNL     1       7.837   4.929  12.696  0.00  0.00    +0.000 NA
ATOM     16  O   UNL     1       7.944   5.510  13.963  0.00  0.00    +0.000 OA
ATOM     17  C   UNL     1       6.907   5.018  14.700  0.00  0.00    +0.000 A 
ATOM     18  N   UNL     1       6.150   4.172  14.039  0.00  0.00    +0.000 NA
BRANCH  14  20
ATOM     19  C   UNL     1       6.874   1.990  11.579  0.00  0.00    +0.000 C 
ATOM     20  C   UNL     1       6.200   3.358  11.671  0.00  0.00    +0.000 C 
ATOM     21  C   UNL     1       4.678   3.202  11.768  0.00  0.00    +0.000 C 
ENDBRANCH  14  20
ENDBRANCH  13  17
ENDBRANCH  12  13
ENDBRANCH   1  12
TORSDOF 5
ENDMDL
MODEL 5
REMARK VINA RESULT:      -7.1      1.823      2.542
REMARK  Name = 
REMARK  7 active torsions:
REMARK  status: ('A' for Active; 'I' for Inactive)
REMARK    1  A    between atoms: C_1  and  C_2
REMARK    2  A    between atoms: C_2  and  C_3
REMARK    3  A    between atoms: C_2  and  C_4
REMARK    4  A    between atoms: C_7  and  C_8
REMARK    5  A    between atoms: C_8  and  C_9
REMARK    6  A    between atoms: C_9  and  C_10
REMARK    7  A    between atoms: N_12  and  C_13
REMARK                            x       y       z     vdW  Elec       q    Type
REMARK                         _______ _______ _______ _____ _____    ______ ____
ROOT
ATOM      1  C   UNL     1       5.129   5.647  18.221  0.00  0.00    +0.000 C 
ATOM      2  O   UNL     1       4.445   6.450  17.598  0.00  0.00    +0.000 OA
ATOM      3  N   UNL     1       4.610   4.502  18.795  0.00  0.00    +0.000 N 
ATOM      4  H   UNL     1       5.210   3.954  19.405  0.00  0.00    +0.000 HD
ENDROOT
BRANCH   3   5
ATOM      5  C   UNL     1       3.184   4.197  18.690  0.00  0.00    +0.000 C 
ATOM      6  C   UNL     1       2.327   5.214  19.456  0.00  0.00    +0.000 C 
ATOM      7  C   UNL     1       2.360   4.790  20.915  0.00  0.00    +0.000 C 
ATOM      8  S   UNL     1       2.214   3.017  20.860  0.00  0.00    +0.000 S 
ATOM      9  O   UNL     1       0.804   2.674  20.867  0.00  0.00    +0.000 OA
ATOM     10  O   UNL     1       3.155   2.446  21.797  0.00  0.00    +0.000 OA
ATOM     11  C   UNL     1       2.839   2.800  19.206  0.00  0.00    +0.000 C 
ENDBRANCH   3   5
BRANCH   1  12
ATOM     12  C   UNL     1       6.617   5.812  18.425  0.00  0.00    +0.000 C 
BRANCH  12  13
ATOM     13  C   UNL     1       7.384   4.652  17.795  0.00  0.00    +0.000 C 
BRANCH  13  17
ATOM     14  C   UNL     1       6.789   4.260  14.316  0.00  0.00    +0.000 A 
ATOM     15  N   UNL     1       7.350   5.477  14.290  0.00  0.00    +0.000 NA
ATOM     16  O   UNL     1       7.634   5.725  15.636  0.00  0.00    +0.000 OA
ATOM     17  C   UNL     1       7.216   4.625  16.326  0.00  0.00    +0.000 A 
ATOM     18  N   UNL     1       6.701   3.691  15.559  0.00  0.00    +0.000 NA
BRANCH  14  20
ATOM     19  C   UNL     1       4.820   3.978  12.815  0.00  0.00    +0.000 C 
ATOM     20  C   UNL     1       6.268   3.580  13.095  0.00  0.00    +0.000 C 
ATOM     21  C   UNL     1       7.149   3.856  11.871  0.00  0.00    +0.000 C 
ENDBRANCH  14  20
ENDBRANCH  13  17
ENDBRANCH  12  13
ENDBRANCH   1  12
TORSDOF 5
ENDMDL
MODEL 6
REMARK VINA RESULT:      -7.0      1.897      2.471
REMARK  Name = 
REMARK  7 active torsions:
REMARK  status: ('A' for Active; 'I' for Inactive)
REMARK    1  A    between atoms: C_1  and  C_2
REMARK    2  A    between atoms: C_2  and  C_3
REMARK    3  A    between atoms: C_2  and  C_4
REMARK    4  A    between atoms: C_7  and  C_8
REMARK    5  A    between atoms: C_8  and  C_9
REMARK    6  A    between atoms: C_9  and  C_10
REMARK    7  A    between atoms: N_12  and  C_13
REMARK                            x       y       z     vdW  Elec       q    Type
REMARK                         _______ _______ _______ _____ _____    ______ ____
ROOT
ATOM      1  C   UNL     1       4.804   6.214  17.846  0.00  0.00    +0.000 C 
ATOM      2  O   UNL     1       4.256   7.126  17.239  0.00  0.00    +0.000 OA
ATOM      3  N   UNL     1       4.121   5.115  18.333  0.00  0.00    +0.000 N 
ATOM      4  H   UNL     1       4.619   4.468  18.938  0.00  0.00    +0.000 HD
ENDROOT
BRANCH   3   5
ATOM      5  C   UNL     1       2.676   4.996  18.149  0.00  0.00    +0.000 C 
ATOM      6  C   UNL     1       1.928   5.018  19.490  0.00  0.00    +0.000 C 
ATOM      7  C   UNL     1       2.022   3.611  20.055  0.00  0.00    +0.000 C 
ATOM      8  S   UNL     1       1.766   2.553  18.647  0.00  0.00    +0.000 S 
ATOM      9  O   UNL     1       0.341   2.323  18.500  0.00  0.00    +0.000 OA
ATOM     10  O   UNL     1       2.725   1.473  18.699  0.00  0.00    +0.000 OA
ATOM     11  C   UNL     1       2.278   3.722  17.404  0.00  0.00    +0.000 C 
ENDBRANCH   3   5
BRANCH   1  12
ATOM     12  C   UNL     1       6.289   6.182  18.124  0.00  0.00    +0.000 C 
BRANCH  12  13
ATOM     13  C   UNL     1       7.088   6.330  16.831  0.00  0.00    +0.000 C 
BRANCH  13  17
ATOM     14  C   UNL     1       6.364   4.064  14.194  0.00  0.00    +0.000 A 
ATOM     15  N   UNL     1       5.930   3.323  15.224  0.00  0.00    +0.000 NA
ATOM     16  O   UNL     1       6.168   4.145  16.329  0.00  0.00    +0.000 OA
ATOM     17  C   UNL     1       6.716   5.295  15.842  0.00  0.00    +0.000 A 
ATOM     18  N   UNL     1       6.847   5.300  14.535  0.00  0.00    +0.000 NA
BRANCH  14  20
ATOM     19  C   UNL     1       4.936   3.503  12.231  0.00  0.00    +0.000 C 
ATOM     20  C   UNL     1       6.358   3.577  12.784  0.00  0.00    +0.000 C 
ATOM     21  C   UNL     1       7.243   4.442  11.880  0.00  0.00    +0.000 C 
ENDBRANCH  14  20
ENDBRANCH  13  17
ENDBRANCH  12  13
ENDBRANCH   1  12
TORSDOF 5
ENDMDL
MODEL 7
REMARK VINA RESULT:      -6.9      0.869      1.299
REMARK  Name = 
REMARK  7 active torsions:
REMARK  status: ('A' for Active; 'I' for Inactive)
REMARK    1  A    between atoms: C_1  and  C_2
REMARK    2  A    between atoms: C_2  and  C_3
REMARK    3  A    between atoms: C_2  and  C_4
REMARK    4  A    between atoms: C_7  and  C_8
REMARK    5  A    between atoms: C_8  and  C_9
REMARK    6  A    between atoms: C_9  and  C_10
REMARK    7  A    between atoms: N_12  and  C_13
REMARK                            x       y       z     vdW  Elec       q    Type
REMARK                         _______ _______ _______ _____ _____    ______ ____
ROOT
ATOM      1  C   UNL     1       6.033   5.046  17.867  0.00  0.00    +0.000 C 
ATOM      2  O   UNL     1       6.341   5.781  18.797  0.00  0.00    +0.000 OA
ATOM      3  N   UNL     1       4.740   4.605  17.652  0.00  0.00    +0.000 N 
ATOM      4  H   UNL     1       4.585   3.895  16.941  0.00  0.00    +0.000 HD
ENDROOT
BRANCH   3   5
ATOM      5  C   UNL     1       3.660   4.998  18.554  0.00  0.00    +0.000 C 
ATOM      6  C   UNL     1       3.772   4.298  19.916  0.00  0.00    +0.000 C 
ATOM      7  C   UNL     1       3.181   2.910  19.733  0.00  0.00    +0.000 C 
ATOM      8  S   UNL     1       1.737   3.177  18.726  0.00  0.00    +0.000 S 
ATOM      9  O   UNL     1       0.615   3.462  19.600  0.00  0.00    +0.000 OA
ATOM     10  O   UNL     1       1.687   2.151  17.710  0.00  0.00    +0.000 OA
ATOM     11  C   UNL     1       2.274   4.704  17.981  0.00  0.00    +0.000 C 
ENDBRANCH   3   5
BRANCH   1  12
ATOM     12  C   UNL     1       7.026   4.545  16.845  0.00  0.00    +0.000 C 
BRANCH  12  13
ATOM     13  C   UNL     1       7.101   5.492  15.649  0.00  0.00    +0.000 C 
BRANCH  13  17
ATOM     14  C   UNL     1       6.234   3.590  12.779  0.00  0.00    +0.000 A 
ATOM     15  N   UNL     1       7.114   4.427  12.210  0.00  0.00    +0.000 NA
ATOM     16  O   UNL     1       7.528   5.227  13.279  0.00  0.00    +0.000 OA
ATOM     17  C   UNL     1       6.853   4.780  14.377  0.00  0.00    +0.000 A 
ATOM     18  N   UNL     1       6.055   3.768  14.125  0.00  0.00    +0.000 NA
BRANCH  14  20
ATOM     19  C   UNL     1       4.344   3.194  11.205  0.00  0.00    +0.000 C 
ATOM     20  C   UNL     1       5.478   2.561  12.008  0.00  0.00    +0.000 C 
ATOM     21  C   UNL     1       6.398   1.747  11.091  0.00  0.00    +0.000 C 
ENDBRANCH  14  20
ENDBRANCH  13  17
ENDBRANCH  12  13
ENDBRANCH   1  12
TORSDOF 5
ENDMDL
MODEL 8
REMARK VINA RESULT:      -6.9      1.025      1.371
REMARK  Name = 
REMARK  7 active torsions:
REMARK  status: ('A' for Active; 'I' for Inactive)
REMARK    1  A    between atoms: C_1  and  C_2
REMARK    2  A    between atoms: C_2  and  C_3
REMARK    3  A    between atoms: C_2  and  C_4
REMARK    4  A    between atoms: C_7  and  C_8
REMARK    5  A    between atoms: C_8  and  C_9
REMARK    6  A    between atoms: C_9  and  C_10
REMARK    7  A    between atoms: N_12  and  C_13
REMARK                            x       y       z     vdW  Elec       q    Type
REMARK                         _______ _______ _______ _____ _____    ______ ____
ROOT
ATOM      1  C   UNL     1       5.943   5.476  18.691  0.00  0.00    +0.000 C 
ATOM      2  O   UNL     1       6.528   5.344  19.759  0.00  0.00    +0.000 OA
ATOM      3  N   UNL     1       4.605   5.173  18.523  0.00  0.00    +0.000 N 
ATOM      4  H   UNL     1       4.223   5.183  17.581  0.00  0.00    +0.000 HD
ENDROOT
BRANCH   3   5
ATOM      5  C   UNL     1       3.812   4.659  19.639  0.00  0.00    +0.000 C 
ATOM      6  C   UNL     1       4.075   3.167  19.883  0.00  0.00    +0.000 C 
ATOM      7  C   UNL     1       3.231   2.411  18.871  0.00  0.00    +0.000 C 
ATOM      8  S   UNL     1       1.681   3.287  18.851  0.00  0.00    +0.000 S 
ATOM      9  O   UNL     1       0.825   2.725  19.878  0.00  0.00    +0.000 OA
ATOM     10  O   UNL     1       1.252   3.435  17.479  0.00  0.00    +0.000 OA
ATOM     11  C   UNL     1       2.309   4.849  19.433  0.00  0.00    +0.000 C 
ENDBRANCH   3   5
BRANCH   1  12
ATOM     12  C   UNL     1       6.614   5.992  17.440  0.00  0.00    +0.000 C 
BRANCH  12  13
ATOM     13  C   UNL     1       7.566   4.948  16.862  0.00  0.00    +0.000 C 
BRANCH  13  17
ATOM     14  C   UNL     1       6.655   4.004  13.562  0.00  0.00    +0.000 A 
ATOM     15  N   UNL     1       7.306   5.141  13.276  0.00  0.00    +0.000 NA
ATOM     16  O   UNL     1       7.720   5.595  14.532  0.00  0.00    +0.000 OA
ATOM     17  C   UNL     1       7.274   4.677  15.438  0.00  0.00    +0.000 A 
ATOM     18  N   UNL     1       6.625   3.675  14.891  0.00  0.00    +0.000 NA
BRANCH  14  20
ATOM     19  C   UNL     1       4.775   3.894  11.931  0.00  0.00    +0.000 C 
ATOM     20  C   UNL     1       5.983   3.171  12.523  0.00  0.00    +0.000 C 
ATOM     21  C   UNL     1       6.955   2.750  11.416  0.00  0.00    +0.000 C 
ENDBRANCH  14  20
ENDBRANCH  13  17
ENDBRANCH  12  13
ENDBRANCH   1  12
TORSDOF 5
ENDMDL
MODEL 9
REMARK VINA RESULT:      -6.9      1.448      1.611
REMARK  Name = 
REMARK  7 active torsions:
REMARK  status: ('A' for Active; 'I' for Inactive)
REMARK    1  A    between atoms: C_1  and  C_2
REMARK    2  A    between atoms: C_2  and  C_3
REMARK    3  A    between atoms: C_2  and  C_4
REMARK    4  A    between atoms: C_7  and  C_8
REMARK    5  A    between atoms: C_8  and  C_9
REMARK    6  A    between atoms: C_9  and  C_10
REMARK    7  A    between atoms: N_12  and  C_13
REMARK                            x       y       z     vdW  Elec       q    Type
REMARK                         _______ _______ _______ _____ _____    ______ ____
ROOT
ATOM      1  C   UNL     1       5.186   6.244  17.660  0.00  0.00    +0.000 C 
ATOM      2  O   UNL     1       4.675   7.337  17.874  0.00  0.00    +0.000 OA
ATOM      3  N   UNL     1       4.554   5.049  17.945  0.00  0.00    +0.000 N 
ATOM      4  H   UNL     1       5.089   4.189  17.864  0.00  0.00    +0.000 HD
ENDROOT
BRANCH   3   5
ATOM      5  C   UNL     1       3.218   5.036  18.540  0.00  0.00    +0.000 C 
ATOM      6  C   UNL     1       3.204   4.308  19.891  0.00  0.00    +0.000 C 
ATOM      7  C   UNL     1       3.131   2.823  19.576  0.00  0.00    +0.000 C 
ATOM      8  S   UNL     1       1.968   2.715  18.233  0.00  0.00    +0.000 S 
ATOM      9  O   UNL     1       0.635   2.590  18.790  0.00  0.00    +0.000 OA
ATOM     10  O   UNL     1       2.487   1.795  17.246  0.00  0.00    +0.000 OA
ATOM     11  C   UNL     1       2.175   4.381  17.635  0.00  0.00    +0.000 C 
ENDBRANCH   3   5
BRANCH   1  12
ATOM     12  C   UNL     1       6.559   6.079  17.053  0.00  0.00    +0.000 C 
BRANCH  12  13
ATOM     13  C   UNL     1       6.791   4.634  16.616  0.00  0.00    +0.000 C 
BRANCH  13  17
ATOM     14  C   UNL     1       6.719   4.115  13.104  0.00  0.00    +0.000 A 
ATOM     15  N   UNL     1       7.638   5.091  13.146  0.00  0.00    +0.000 NA
ATOM     16  O   UNL     1       7.747   5.365  14.513  0.00  0.00    +0.000 OA
ATOM     17  C   UNL     1       6.882   4.520  15.145  0.00  0.00    +0.000 A 
ATOM     18  N   UNL     1       6.236   3.723  14.324  0.00  0.00    +0.000 NA
BRANCH  14  20
ATOM     19  C   UNL     1       6.889   2.166  11.561  0.00  0.00    +0.000 C 
ATOM     20  C   UNL     1       6.229   3.517  11.828  0.00  0.00    +0.000 C 
ATOM     21  C   UNL     1       4.702   3.384  11.813  0.00  0.00    +0.000 C 
ENDBRANCH  14  20
ENDBRANCH  13  17
ENDBRANCH  12  13
ENDBRANCH   1  12
TORSDOF 5
ENDMDL
