MODEL 1
REMARK VINA RESULT:      -8.5      0.000      0.000
REMARK  Name = 
REMARK  8 active torsions:
REMARK  status: ('A' for Active; 'I' for Inactive)
REMARK    1  A    between atoms: C_1  and  O_2
REMARK    2  A    between atoms: O_2  and  C_3
REMARK    3  A    between atoms: C_6  and  C_7
REMARK    4  A    between atoms: C_7  and  N_8
REMARK    5  A    between atoms: C_9  and  C_11
REMARK    6  A    between atoms: C_15  and  C_16
REMARK    7  A    between atoms: C_20  and  O_21
REMARK    8  A    between atoms: C_23  and  O_24
REMARK                            x       y       z     vdW  Elec       q    Type
REMARK                         _______ _______ _______ _____ _____    ______ ____
ROOT
ATOM      1  C   UNL     1       3.107   4.280  19.473  0.00  0.00    +0.000 A 
ATOM      2  C   UNL     1       2.702   3.498  20.540  0.00  0.00    +0.000 A 
ATOM      3  N   UNL     1       3.624   2.508  20.654  0.00  0.00    +0.000 N 
ATOM      4  N   UNL     1       4.657   2.640  19.821  0.00  0.00    +0.000 NA
ATOM      5  C   UNL     1       4.345   3.687  19.034  0.00  0.00    +0.000 A 
ATOM      6  H   UNL     1       3.625   1.717  21.290  0.00  0.00    +0.000 HD
ENDROOT
BRANCH   5   7
ATOM      7  C   UNL     1       5.273   4.142  17.980  0.00  0.00    +0.000 A 
ATOM      8  C   UNL     1       4.939   3.926  16.630  0.00  0.00    +0.000 A 
ATOM      9  C   UNL     1       5.778   4.359  15.605  0.00  0.00    +0.000 A 
ATOM     10 CL   UNL     1       5.353   4.032  13.965  0.00  0.00    +0.000 Cl
ATOM     11  C   UNL     1       6.947   5.053  15.906  0.00  0.00    +0.000 A 
ATOM     12  C   UNL     1       7.297   5.297  17.227  0.00  0.00    +0.000 A 
ATOM     13  C   UNL     1       6.472   4.829  18.259  0.00  0.00    +0.000 A 
BRANCH  11  14
ATOM     14  O   UNL     1       7.787   5.517  14.931  0.00  0.00    +0.000 OA
ATOM     15  H   UNL     1       8.192   6.337  15.270  0.00  0.00    +0.000 HD
ENDBRANCH  11  14
BRANCH  13  16
ATOM     16  O   UNL     1       6.879   5.039  19.550  0.00  0.00    +0.000 OA
ATOM     17  H   UNL     1       7.721   5.516  19.553  0.00  0.00    +0.000 HD
ENDBRANCH  13  16
ENDBRANCH   5   7
BRANCH   1  19
ATOM     18  N   UNL     1       2.605   6.610  19.599  0.00  0.00    +0.000 N 
ATOM     19  C   UNL     1       2.394   5.421  18.926  0.00  0.00    +0.000 C 
ATOM     20  O   UNL     1       1.695   5.348  17.926  0.00  0.00    +0.000 OA
ATOM     21  H   UNL     1       3.359   6.655  20.269  0.00  0.00    +0.000 HD
BRANCH  18  22
ATOM     22  C   UNL     1       2.094   7.848  19.062  0.00  0.00    +0.000 C 
BRANCH  22  26
ATOM     23  C   UNL     1       0.116  10.243  22.067  0.00  0.00    +0.000 A 
ATOM     24  C   UNL     1       0.817   9.092  22.431  0.00  0.00    +0.000 A 
ATOM     25  C   UNL     1       1.448   8.307  21.462  0.00  0.00    +0.000 A 
ATOM     26  C   UNL     1       1.371   8.654  20.109  0.00  0.00    +0.000 A 
ATOM     27  C   UNL     1       0.647   9.801  19.748  0.00  0.00    +0.000 A 
ATOM     28  C   UNL     1       0.021  10.589  20.721  0.00  0.00    +0.000 A 
BRANCH  23  30
ATOM     29  C   UNL     1      -1.009  12.198  22.780  0.00  0.00    +0.000 C 
ATOM     30  O   UNL     1      -0.453  10.928  23.105  0.00  0.00    +0.000 OA
ENDBRANCH  23  30
ENDBRANCH  22  26
ENDBRANCH  18  22
ENDBRANCH   1  19
TORSDOF 7
ENDMDL
MODEL 2
REMARK VINA RESULT:      -8.4      0.543      1.080
REMARK  Name = 
REMARK  8 active torsions:
REMARK  status: ('A' for Active; 'I' for Inactive)
REMARK    1  A    between atoms: C_1  and  O_2
REMARK    2  A    between atoms: O_2  and  C_3
REMARK    3  A    between atoms: C_6  and  C_7
REMARK    4  A    between atoms: C_7  and  N_8
REMARK    5  A    between atoms: C_9  and  C_11
REMARK    6  A    between atoms: C_15  and  C_16
REMARK    7  A    between atoms: C_20  and  O_21
REMARK    8  A    between atoms: C_23  and  O_24
REMARK                            x       y       z     vdW  Elec       q    Type
REMARK                         _______ _______ _______ _____ _____    ______ ____
ROOT
ATOM      1  C   UNL     1       3.170   4.063  19.321  0.00  0.00    +0.000 A 
ATOM      2  C   UNL     1       2.812   3.272  20.398  0.00  0.00    +0.000 A 
ATOM      3  N   UNL     1       3.812   2.366  20.550  0.00  0.00    +0.000 N 
ATOM      4  N   UNL     1       4.846   2.568  19.732  0.00  0.00    +0.000 NA
ATOM      5  C   UNL     1       4.462   3.569  18.917  0.00  0.00    +0.000 A 
ATOM      6  H   UNL     1       3.867   1.592  21.203  0.00  0.00    +0.000 HD
ENDROOT
BRANCH   5   7
ATOM      7  C   UNL     1       5.369   4.079  17.870  0.00  0.00    +0.000 A 
ATOM      8  C   UNL     1       5.053   3.852  16.517  0.00  0.00    +0.000 A 
ATOM      9  C   UNL     1       5.872   4.335  15.498  0.00  0.00    +0.000 A 
ATOM     10 CL   UNL     1       5.473   3.993  13.854  0.00  0.00    +0.000 Cl
ATOM     11  C   UNL     1       6.999   5.091  15.808  0.00  0.00    +0.000 A 
ATOM     12  C   UNL     1       7.329   5.347  17.132  0.00  0.00    +0.000 A 
ATOM     13  C   UNL     1       6.527   4.830  18.157  0.00  0.00    +0.000 A 
BRANCH  11  14
ATOM     14  O   UNL     1       7.817   5.605  14.839  0.00  0.00    +0.000 OA
ATOM     15  H   UNL     1       7.753   5.012  14.067  0.00  0.00    +0.000 HD
ENDBRANCH  11  14
BRANCH  13  16
ATOM     16  O   UNL     1       6.915   5.055  19.452  0.00  0.00    +0.000 OA
ATOM     17  H   UNL     1       7.313   5.935  19.524  0.00  0.00    +0.000 HD
ENDBRANCH  13  16
ENDBRANCH   5   7
BRANCH   1  19
ATOM     18  N   UNL     1       2.725   6.401  19.145  0.00  0.00    +0.000 N 
ATOM     19  C   UNL     1       2.373   5.128  18.737  0.00  0.00    +0.000 C 
ATOM     20  O   UNL     1       1.490   4.922  17.917  0.00  0.00    +0.000 OA
ATOM     21  H   UNL     1       3.597   6.524  19.638  0.00  0.00    +0.000 HD
BRANCH  18  22
ATOM     22  C   UNL     1       2.130   7.555  18.514  0.00  0.00    +0.000 C 
BRANCH  22  26
ATOM     23  C   UNL     1       0.511  10.317  21.417  0.00  0.00    +0.000 A 
ATOM     24  C   UNL     1       0.650  10.698  20.082  0.00  0.00    +0.000 A 
ATOM     25  C   UNL     1       1.185   9.814  19.141  0.00  0.00    +0.000 A 
ATOM     26  C   UNL     1       1.606   8.537  19.529  0.00  0.00    +0.000 A 
ATOM     27  C   UNL     1       1.483   8.168  20.878  0.00  0.00    +0.000 A 
ATOM     28  C   UNL     1       0.941   9.054  21.817  0.00  0.00    +0.000 A 
BRANCH  23  30
ATOM     29  C   UNL     1      -1.115  10.841  23.053  0.00  0.00    +0.000 C 
ATOM     30  O   UNL     1      -0.028  11.269  22.239  0.00  0.00    +0.000 OA
ENDBRANCH  23  30
ENDBRANCH  22  26
ENDBRANCH  18  22
ENDBRANCH   1  19
TORSDOF 7
ENDMDL
MODEL 3
REMARK VINA RESULT:      -7.9      2.720      4.069
REMARK  Name = 
REMARK  8 active torsions:
REMARK  status: ('A' for Active; 'I' for Inactive)
REMARK    1  A    between atoms: C_1  and  O_2
REMARK    2  A    between atoms: O_2  and  C_3
REMARK    3  A    between atoms: C_6  and  C_7
REMARK    4  A    between atoms: C_7  and  N_8
REMARK    5  A    between atoms: C_9  and  C_11
REMARK    6  A    between atoms: C_15  and  C_16
REMARK    7  A    between atoms: C_20  and  O_21
REMARK    8  A    between atoms: C_23  and  O_24
REMARK                            x       y       z     vdW  Elec       q    Type
REMARK                         _______ _______ _______ _____ _____    ______ ____
ROOT
ATOM      1  C   UNL     1       5.890   6.233  17.762  0.00  0.00    +0.000 A 
ATOM      2  C   UNL     1       7.201   6.662  17.866  0.00  0.00    +0.000 A 
ATOM      3  N   UNL     1       7.843   5.736  18.623  0.00  0.00    +0.000 N 
ATOM      4  N   UNL     1       7.088   4.680  18.931  0.00  0.00    +0.000 NA
ATOM      5  C   UNL     1       5.858   4.978  18.470  0.00  0.00    +0.000 A 
ATOM      6  H   UNL     1       8.802   5.746  18.953  0.00  0.00    +0.000 HD
ENDROOT
BRANCH   5   7
ATOM      7  C   UNL     1       4.743   4.023  18.624  0.00  0.00    +0.000 A 
ATOM      8  C   UNL     1       3.979   4.045  19.806  0.00  0.00    +0.000 A 
ATOM      9  C   UNL     1       2.905   3.174  19.982  0.00  0.00    +0.000 A 
ATOM     10 CL   UNL     1       2.024   3.202  21.466  0.00  0.00    +0.000 Cl
ATOM     11  C   UNL     1       2.546   2.295  18.965  0.00  0.00    +0.000 A 
ATOM     12  C   UNL     1       3.269   2.260  17.780  0.00  0.00    +0.000 A 
ATOM     13  C   UNL     1       4.371   3.109  17.618  0.00  0.00    +0.000 A 
BRANCH  11  14
ATOM     14  O   UNL     1       1.484   1.440  19.086  0.00  0.00    +0.000 OA
ATOM     15  H   UNL     1       0.936   1.551  18.286  0.00  0.00    +0.000 HD
ENDBRANCH  11  14
BRANCH  13  16
ATOM     16  O   UNL     1       5.095   3.006  16.459  0.00  0.00    +0.000 OA
ATOM     17  H   UNL     1       4.523   2.687  15.746  0.00  0.00    +0.000 HD
ENDBRANCH  13  16
ENDBRANCH   5   7
BRANCH   1  19
ATOM     18  N   UNL     1       3.761   7.297  17.936  0.00  0.00    +0.000 N 
ATOM     19  C   UNL     1       4.805   6.940  17.104  0.00  0.00    +0.000 C 
ATOM     20  O   UNL     1       4.829   7.233  15.917  0.00  0.00    +0.000 OA
ATOM     21  H   UNL     1       3.898   7.231  18.934  0.00  0.00    +0.000 HD
BRANCH  18  22
ATOM     22  C   UNL     1       2.702   8.148  17.448  0.00  0.00    +0.000 C 
BRANCH  22  26
ATOM     23  C   UNL     1       0.213   9.595  20.671  0.00  0.00    +0.000 A 
ATOM     24  C   UNL     1       1.070   8.512  20.873  0.00  0.00    +0.000 A 
ATOM     25  C   UNL     1       1.868   8.031  19.831  0.00  0.00    +0.000 A 
ATOM     26  C   UNL     1       1.806   8.619  18.563  0.00  0.00    +0.000 A 
ATOM     27  C   UNL     1       0.926   9.695  18.361  0.00  0.00    +0.000 A 
ATOM     28  C   UNL     1       0.133  10.178  19.408  0.00  0.00    +0.000 A 
BRANCH  23  30
ATOM     29  C   UNL     1      -0.021   9.516  23.023  0.00  0.00    +0.000 C 
ATOM     30  O   UNL     1      -0.512   9.973  21.767  0.00  0.00    +0.000 OA
ENDBRANCH  23  30
ENDBRANCH  22  26
ENDBRANCH  18  22
ENDBRANCH   1  19
TORSDOF 7
ENDMDL
MODEL 4
REMARK VINA RESULT:      -7.8      0.904      1.343
REMARK  Name = 
REMARK  8 active torsions:
REMARK  status: ('A' for Active; 'I' for Inactive)
REMARK    1  A    between atoms: C_1  and  O_2
REMARK    2  A    between atoms: O_2  and  C_3
REMARK    3  A    between atoms: C_6  and  C_7
REMARK    4  A    between atoms: C_7  and  N_8
REMARK    5  A    between atoms: C_9  and  C_11
REMARK    6  A    between atoms: C_15  and  C_16
REMARK    7  A    between atoms: C_20  and  O_21
REMARK    8  A    between atoms: C_23  and  O_24
REMARK                            x       y       z     vdW  Elec       q    Type
REMARK                         _______ _______ _______ _____ _____    ______ ____
ROOT
ATOM      1  C   UNL     1       3.062   5.268  19.443  0.00  0.00    +0.000 A 
ATOM      2  C   UNL     1       2.431   4.611  20.484  0.00  0.00    +0.000 A 
ATOM      3  N   UNL     1       2.982   3.371  20.537  0.00  0.00    +0.000 N 
ATOM      4  N   UNL     1       3.996   3.200  19.688  0.00  0.00    +0.000 NA
ATOM      5  C   UNL     1       4.037   4.327  18.953  0.00  0.00    +0.000 A 
ATOM      6  H   UNL     1       2.730   2.595  21.139  0.00  0.00    +0.000 HD
ENDROOT
BRANCH   5   7
ATOM      7  C   UNL     1       5.056   4.504  17.899  0.00  0.00    +0.000 A 
ATOM      8  C   UNL     1       4.701   4.278  16.556  0.00  0.00    +0.000 A 
ATOM      9  C   UNL     1       5.628   4.455  15.530  0.00  0.00    +0.000 A 
ATOM     10 CL   UNL     1       5.165   4.122  13.901  0.00  0.00    +0.000 Cl
ATOM     11  C   UNL     1       6.914   4.901  15.820  0.00  0.00    +0.000 A 
ATOM     12  C   UNL     1       7.291   5.148  17.134  0.00  0.00    +0.000 A 
ATOM     13  C   UNL     1       6.371   4.935  18.168  0.00  0.00    +0.000 A 
BRANCH  11  14
ATOM     14  O   UNL     1       7.848   5.111  14.843  0.00  0.00    +0.000 OA
ATOM     15  H   UNL     1       7.629   4.510  14.105  0.00  0.00    +0.000 HD
ENDBRANCH  11  14
BRANCH  13  16
ATOM     16  O   UNL     1       6.795   5.135  19.456  0.00  0.00    +0.000 OA
ATOM     17  H   UNL     1       7.321   5.946  19.503  0.00  0.00    +0.000 HD
ENDBRANCH  13  16
ENDBRANCH   5   7
BRANCH   1  19
ATOM     18  N   UNL     1       1.938   7.344  19.792  0.00  0.00    +0.000 N 
ATOM     19  C   UNL     1       2.755   6.603  18.958  0.00  0.00    +0.000 C 
ATOM     20  O   UNL     1       3.214   7.053  17.919  0.00  0.00    +0.000 OA
ATOM     21  H   UNL     1       1.778   7.009  20.730  0.00  0.00    +0.000 HD
BRANCH  18  22
ATOM     22  C   UNL     1       1.694   8.739  19.515  0.00  0.00    +0.000 C 
BRANCH  22  26
ATOM     23  C   UNL     1      -0.796  10.501  22.576  0.00  0.00    +0.000 A 
ATOM     24  C   UNL     1      -0.752  11.056  21.296  0.00  0.00    +0.000 A 
ATOM     25  C   UNL     1       0.060  10.498  20.305  0.00  0.00    +0.000 A 
ATOM     26  C   UNL     1       0.858   9.384  20.589  0.00  0.00    +0.000 A 
ATOM     27  C   UNL     1       0.825   8.844  21.884  0.00  0.00    +0.000 A 
ATOM     28  C   UNL     1       0.006   9.401  22.873  0.00  0.00    +0.000 A 
BRANCH  23  30
ATOM     29  C   UNL     1      -2.191  12.363  23.003  0.00  0.00    +0.000 C 
ATOM     30  O   UNL     1      -1.632  11.134  23.454  0.00  0.00    +0.000 OA
ENDBRANCH  23  30
ENDBRANCH  22  26
ENDBRANCH  18  22
ENDBRANCH   1  19
TORSDOF 7
ENDMDL
MODEL 5
REMARK VINA RESULT:      -7.8      1.300      1.690
REMARK  Name = 
REMARK  8 active torsions:
REMARK  status: ('A' for Active; 'I' for Inactive)
REMARK    1  A    between atoms: C_1  and  O_2
REMARK    2  A    between atoms: O_2  and  C_3
REMARK    3  A    between atoms: C_6  and  C_7
REMARK    4  A    between atoms: C_7  and  N_8
REMARK    5  A    between atoms: C_9  and  C_11
REMARK    6  A    between atoms: C_15  and  C_16
REMARK    7  A    between atoms: C_20  and  O_21
REMARK    8  A    between atoms: C_23  and  O_24
REMARK                            x       y       z     vdW  Elec       q    Type
REMARK                         _______ _______ _______ _____ _____    ______ ____
ROOT
ATOM      1  C   UNL     1       2.660   3.761  18.183  0.00  0.00    +0.000 A 
ATOM      2  C   UNL     1       2.028   2.796  18.946  0.00  0.00    +0.000 A 
ATOM      3  N   UNL     1       2.787   1.675  18.842  0.00  0.00    +0.000 N 
ATOM      4  N   UNL     1       3.920   1.858  18.163  0.00  0.00    +0.000 NA
ATOM      5  C   UNL     1       3.850   3.115  17.688  0.00  0.00    +0.000 A 
ATOM      6  H   UNL     1       2.604   0.752  19.222  0.00  0.00    +0.000 HD
ENDROOT
BRANCH   5   7
ATOM      7  C   UNL     1       4.951   3.681  16.884  0.00  0.00    +0.000 A 
ATOM      8  C   UNL     1       4.951   3.490  15.489  0.00  0.00    +0.000 A 
ATOM      9  C   UNL     1       5.961   4.026  14.692  0.00  0.00    +0.000 A 
ATOM     10 CL   UNL     1       5.949   3.727  12.992  0.00  0.00    +0.000 Cl
ATOM     11  C   UNL     1       6.967   4.798  15.265  0.00  0.00    +0.000 A 
ATOM     12  C   UNL     1       6.986   5.019  16.636  0.00  0.00    +0.000 A 
ATOM     13  C   UNL     1       5.992   4.450  17.442  0.00  0.00    +0.000 A 
BRANCH  11  14
ATOM     14  O   UNL     1       7.964   5.362  14.517  0.00  0.00    +0.000 OA
ATOM     15  H   UNL     1       7.735   6.304  14.400  0.00  0.00    +0.000 HD
ENDBRANCH  11  14
BRANCH  13  16
ATOM     16  O   UNL     1       6.076   4.643  18.796  0.00  0.00    +0.000 OA
ATOM     17  H   UNL     1       5.925   5.577  19.001  0.00  0.00    +0.000 HD
ENDBRANCH  13  16
ENDBRANCH   5   7
BRANCH   1  19
ATOM     18  N   UNL     1       3.052   6.112  18.309  0.00  0.00    +0.000 N 
ATOM     19  C   UNL     1       2.178   5.108  17.932  0.00  0.00    +0.000 C 
ATOM     20  O   UNL     1       1.106   5.340  17.394  0.00  0.00    +0.000 OA
ATOM     21  H   UNL     1       4.003   5.860  18.534  0.00  0.00    +0.000 HD
BRANCH  18  22
ATOM     22  C   UNL     1       2.773   7.485  17.963  0.00  0.00    +0.000 C 
BRANCH  22  26
ATOM     23  C   UNL     1       0.393   9.400  21.020  0.00  0.00    +0.000 A 
ATOM     24  C   UNL     1       0.495   9.965  19.747  0.00  0.00    +0.000 A 
ATOM     25  C   UNL     1       1.273   9.357  18.758  0.00  0.00    +0.000 A 
ATOM     26  C   UNL     1       1.977   8.180  19.036  0.00  0.00    +0.000 A 
ATOM     27  C   UNL     1       1.887   7.629  20.324  0.00  0.00    +0.000 A 
ATOM     28  C   UNL     1       1.102   8.237  21.311  0.00  0.00    +0.000 A 
BRANCH  23  30
ATOM     29  C   UNL     1      -0.323   9.673  23.257  0.00  0.00    +0.000 C 
ATOM     30  O   UNL     1      -0.401  10.086  21.897  0.00  0.00    +0.000 OA
ENDBRANCH  23  30
ENDBRANCH  22  26
ENDBRANCH  18  22
ENDBRANCH   1  19
TORSDOF 7
ENDMDL
MODEL 6
REMARK VINA RESULT:      -7.7      1.752      2.419
REMARK  Name = 
REMARK  8 active torsions:
REMARK  status: ('A' for Active; 'I' for Inactive)
REMARK    1  A    between atoms: C_1  and  O_2
REMARK    2  A    between atoms: O_2  and  C_3
REMARK    3  A    between atoms: C_6  and  C_7
REMARK    4  A    between atoms: C_7  and  N_8
REMARK    5  A    between atoms: C_9  and  C_11
REMARK    6  A    between atoms: C_15  and  C_16
REMARK    7  A    between atoms: C_20  and  O_21
REMARK    8  A    between atoms: C_23  and  O_24
REMARK                            x       y       z     vdW  Elec       q    Type
REMARK                         _______ _______ _______ _____ _____    ______ ____
ROOT
ATOM      1  C   UNL     1       2.390   5.164  20.097  0.00  0.00    +0.000 A 
ATOM      2  C   UNL     1       1.647   4.523  21.072  0.00  0.00    +0.000 A 
ATOM      3  N   UNL     1       2.179   3.280  21.195  0.00  0.00    +0.000 N 
ATOM      4  N   UNL     1       3.277   3.092  20.461  0.00  0.00    +0.000 NA
ATOM      5  C   UNL     1       3.404   4.211  19.723  0.00  0.00    +0.000 A 
ATOM      6  H   UNL     1       1.858   2.511  21.775  0.00  0.00    +0.000 HD
ENDROOT
BRANCH   5   7
ATOM      7  C   UNL     1       4.531   4.370  18.783  0.00  0.00    +0.000 A 
ATOM      8  C   UNL     1       5.641   5.146  19.167  0.00  0.00    +0.000 A 
ATOM      9  C   UNL     1       6.735   5.304  18.318  0.00  0.00    +0.000 A 
ATOM     10 CL   UNL     1       8.055   6.302  18.808  0.00  0.00    +0.000 Cl
ATOM     11  C   UNL     1       6.761   4.656  17.086  0.00  0.00    +0.000 A 
ATOM     12  C   UNL     1       5.689   3.870  16.684  0.00  0.00    +0.000 A 
ATOM     13  C   UNL     1       4.574   3.741  17.522  0.00  0.00    +0.000 A 
BRANCH  11  14
ATOM     14  O   UNL     1       7.824   4.763  16.232  0.00  0.00    +0.000 OA
ATOM     15  H   UNL     1       8.178   3.863  16.102  0.00  0.00    +0.000 HD
ENDBRANCH  11  14
BRANCH  13  16
ATOM     16  O   UNL     1       3.512   3.005  17.069  0.00  0.00    +0.000 OA
ATOM     17  H   UNL     1       3.182   2.436  17.780  0.00  0.00    +0.000 HD
ENDBRANCH  13  16
ENDBRANCH   5   7
BRANCH   1  19
ATOM     18  N   UNL     1       1.760   7.428  20.515  0.00  0.00    +0.000 N 
ATOM     19  C   UNL     1       2.147   6.496  19.570  0.00  0.00    +0.000 C 
ATOM     20  O   UNL     1       2.310   6.783  18.393  0.00  0.00    +0.000 OA
ATOM     21  H   UNL     1       1.861   7.192  21.491  0.00  0.00    +0.000 HD
BRANCH  18  22
ATOM     22  C   UNL     1       1.651   8.822  20.157  0.00  0.00    +0.000 C 
BRANCH  22  26
ATOM     23  C   UNL     1      -1.086  10.874  22.798  0.00  0.00    +0.000 A 
ATOM     24  C   UNL     1      -0.876  11.339  21.499  0.00  0.00    +0.000 A 
ATOM     25  C   UNL     1       0.017  10.687  20.645  0.00  0.00    +0.000 A 
ATOM     26  C   UNL     1       0.729   9.567  21.086  0.00  0.00    +0.000 A 
ATOM     27  C   UNL     1       0.530   9.116  22.401  0.00  0.00    +0.000 A 
ATOM     28  C   UNL     1      -0.370   9.767  23.253  0.00  0.00    +0.000 A 
BRANCH  23  30
ATOM     29  C   UNL     1      -2.224  12.926  23.093  0.00  0.00    +0.000 C 
ATOM     30  O   UNL     1      -1.986  11.593  23.535  0.00  0.00    +0.000 OA
ENDBRANCH  23  30
ENDBRANCH  22  26
ENDBRANCH  18  22
ENDBRANCH   1  19
TORSDOF 7
ENDMDL
MODEL 7
REMARK VINA RESULT:      -7.6      2.134      2.502
REMARK  Name = 
REMARK  8 active torsions:
REMARK  status: ('A' for Active; 'I' for Inactive)
REMARK    1  A    between atoms: C_1  and  O_2
REMARK    2  A    between atoms: O_2  and  C_3
REMARK    3  A    between atoms: C_6  and  C_7
REMARK    4  A    between atoms: C_7  and  N_8
REMARK    5  A    between atoms: C_9  and  C_11
REMARK    6  A    between atoms: C_15  and  C_16
REMARK    7  A    between atoms: C_20  and  O_21
REMARK    8  A    between atoms: C_23  and  O_24
REMARK                            x       y       z     vdW  Elec       q    Type
REMARK                         _______ _______ _______ _____ _____    ______ ____
ROOT
ATOM      1  C   UNL     1       1.906   3.740  19.533  0.00  0.00    +0.000 A 
ATOM      2  C   UNL     1       0.904   2.789  19.478  0.00  0.00    +0.000 A 
ATOM      3  N   UNL     1       1.126   2.072  18.346  0.00  0.00    +0.000 N 
ATOM      4  N   UNL     1       2.254   2.405  17.715  0.00  0.00    +0.000 NA
ATOM      5  C   UNL     1       2.732   3.471  18.383  0.00  0.00    +0.000 A 
ATOM      6  H   UNL     1       0.562   1.328  17.950  0.00  0.00    +0.000 HD
ENDROOT
BRANCH   5   7
ATOM      7  C   UNL     1       3.994   4.116  17.970  0.00  0.00    +0.000 A 
ATOM      8  C   UNL     1       3.973   5.061  16.926  0.00  0.00    +0.000 A 
ATOM      9  C   UNL     1       5.139   5.708  16.521  0.00  0.00    +0.000 A 
ATOM     10 CL   UNL     1       5.077   6.823  15.206  0.00  0.00    +0.000 Cl
ATOM     11  C   UNL     1       6.340   5.456  17.177  0.00  0.00    +0.000 A 
ATOM     12  C   UNL     1       6.392   4.542  18.221  0.00  0.00    +0.000 A 
ATOM     13  C   UNL     1       5.227   3.865  18.604  0.00  0.00    +0.000 A 
BRANCH  11  14
ATOM     14  O   UNL     1       7.503   6.086  16.828  0.00  0.00    +0.000 OA
ATOM     15  H   UNL     1       7.346   6.519  15.967  0.00  0.00    +0.000 HD
ENDBRANCH  11  14
BRANCH  13  16
ATOM     16  O   UNL     1       5.328   2.929  19.600  0.00  0.00    +0.000 OA
ATOM     17  H   UNL     1       4.720   2.196  19.420  0.00  0.00    +0.000 HD
ENDBRANCH  13  16
ENDBRANCH   5   7
BRANCH   1  19
ATOM     18  N   UNL     1       1.903   6.072  20.043  0.00  0.00    +0.000 N 
ATOM     19  C   UNL     1       2.042   4.786  20.533  0.00  0.00    +0.000 C 
ATOM     20  O   UNL     1       2.223   4.550  21.718  0.00  0.00    +0.000 OA
ATOM     21  H   UNL     1       1.534   6.194  19.112  0.00  0.00    +0.000 HD
BRANCH  18  22
ATOM     22  C   UNL     1       1.847   7.191  20.952  0.00  0.00    +0.000 C 
BRANCH  22  26
ATOM     23  C   UNL     1      -0.006  10.606  19.059  0.00  0.00    +0.000 A 
ATOM     24  C   UNL     1       0.983   9.881  18.394  0.00  0.00    +0.000 A 
ATOM     25  C   UNL     1       1.595   8.783  19.005  0.00  0.00    +0.000 A 
ATOM     26  C   UNL     1       1.237   8.406  20.304  0.00  0.00    +0.000 A 
ATOM     27  C   UNL     1       0.256   9.153  20.976  0.00  0.00    +0.000 A 
ATOM     28  C   UNL     1      -0.359  10.248  20.359  0.00  0.00    +0.000 A 
BRANCH  23  30
ATOM     29  C   UNL     1      -1.648  12.305  18.950  0.00  0.00    +0.000 C 
ATOM     30  O   UNL     1      -0.531  11.654  18.355  0.00  0.00    +0.000 OA
ENDBRANCH  23  30
ENDBRANCH  22  26
ENDBRANCH  18  22
ENDBRANCH   1  19
TORSDOF 7
ENDMDL
MODEL 8
REMARK VINA RESULT:      -7.6      2.835      3.640
REMARK  Name = 
REMARK  8 active torsions:
REMARK  status: ('A' for Active; 'I' for Inactive)
REMARK    1  A    between atoms: C_1  and  O_2
REMARK    2  A    between atoms: O_2  and  C_3
REMARK    3  A    between atoms: C_6  and  C_7
REMARK    4  A    between atoms: C_7  and  N_8
REMARK    5  A    between atoms: C_9  and  C_11
REMARK    6  A    between atoms: C_15  and  C_16
REMARK    7  A    between atoms: C_20  and  O_21
REMARK    8  A    between atoms: C_23  and  O_24
REMARK                            x       y       z     vdW  Elec       q    Type
REMARK                         _______ _______ _______ _____ _____    ______ ____
ROOT
ATOM      1  C   UNL     1       2.446   6.807  19.420  0.00  0.00    +0.000 A 
ATOM      2  C   UNL     1       1.772   6.400  20.556  0.00  0.00    +0.000 A 
ATOM      3  N   UNL     1       2.260   5.172  20.866  0.00  0.00    +0.000 N 
ATOM      4  N   UNL     1       3.275   4.789  20.090  0.00  0.00    +0.000 NA
ATOM      5  C   UNL     1       3.380   5.744  19.147  0.00  0.00    +0.000 A 
ATOM      6  H   UNL     1       1.963   4.543  21.604  0.00  0.00    +0.000 HD
ENDROOT
BRANCH   5   7
ATOM      7  C   UNL     1       4.419   5.662  18.102  0.00  0.00    +0.000 A 
ATOM      8  C   UNL     1       5.508   6.553  18.145  0.00  0.00    +0.000 A 
ATOM      9  C   UNL     1       6.522   6.493  17.190  0.00  0.00    +0.000 A 
ATOM     10 CL   UNL     1       7.814   7.635  17.252  0.00  0.00    +0.000 Cl
ATOM     11  C   UNL     1       6.490   5.518  16.198  0.00  0.00    +0.000 A 
ATOM     12  C   UNL     1       5.438   4.613  16.137  0.00  0.00    +0.000 A 
ATOM     13  C   UNL     1       4.401   4.696  17.075  0.00  0.00    +0.000 A 
BRANCH  11  14
ATOM     14  O   UNL     1       7.475   5.408  15.255  0.00  0.00    +0.000 OA
ATOM     15  H   UNL     1       7.426   6.207  14.696  0.00  0.00    +0.000 HD
ENDBRANCH  11  14
BRANCH  13  16
ATOM     16  O   UNL     1       3.352   3.824  16.950  0.00  0.00    +0.000 OA
ATOM     17  H   UNL     1       2.565   4.199  17.371  0.00  0.00    +0.000 HD
ENDBRANCH  13  16
ENDBRANCH   5   7
BRANCH   1  19
ATOM     18  N   UNL     1       1.430   8.965  19.330  0.00  0.00    +0.000 N 
ATOM     19  C   UNL     1       2.211   8.032  18.674  0.00  0.00    +0.000 C 
ATOM     20  O   UNL     1       2.697   8.241  17.572  0.00  0.00    +0.000 OA
ATOM     21  H   UNL     1       1.249   8.833  20.315  0.00  0.00    +0.000 HD
BRANCH  18  22
ATOM     22  C   UNL     1       1.260  10.287  18.777  0.00  0.00    +0.000 C 
BRANCH  22  26
ATOM     23  C   UNL     1      -2.940  11.199  18.329  0.00  0.00    +0.000 A 
ATOM     24  C   UNL     1      -2.349  10.197  17.557  0.00  0.00    +0.000 A 
ATOM     25  C   UNL     1      -0.988   9.906  17.689  0.00  0.00    +0.000 A 
ATOM     26  C   UNL     1      -0.194  10.629  18.585  0.00  0.00    +0.000 A 
ATOM     27  C   UNL     1      -0.790  11.650  19.342  0.00  0.00    +0.000 A 
ATOM     28  C   UNL     1      -2.154  11.935  19.213  0.00  0.00    +0.000 A 
BRANCH  23  30
ATOM     29  C   UNL     1      -4.673  11.511  16.750  0.00  0.00    +0.000 C 
ATOM     30  O   UNL     1      -4.278  11.385  18.111  0.00  0.00    +0.000 OA
ENDBRANCH  23  30
ENDBRANCH  22  26
ENDBRANCH  18  22
ENDBRANCH   1  19
TORSDOF 7
ENDMDL
MODEL 9
REMARK VINA RESULT:      -7.5      1.801      2.277
REMARK  Name = 
REMARK  8 active torsions:
REMARK  status: ('A' for Active; 'I' for Inactive)
REMARK    1  A    between atoms: C_1  and  O_2
REMARK    2  A    between atoms: O_2  and  C_3
REMARK    3  A    between atoms: C_6  and  C_7
REMARK    4  A    between atoms: C_7  and  N_8
REMARK    5  A    between atoms: C_9  and  C_11
REMARK    6  A    between atoms: C_15  and  C_16
REMARK    7  A    between atoms: C_20  and  O_21
REMARK    8  A    between atoms: C_23  and  O_24
REMARK                            x       y       z     vdW  Elec       q    Type
REMARK                         _______ _______ _______ _____ _____    ______ ____
ROOT
ATOM      1  C   UNL     1       2.530   5.624  19.908  0.00  0.00    +0.000 A 
ATOM      2  C   UNL     1       1.899   4.937  20.928  0.00  0.00    +0.000 A 
ATOM      3  N   UNL     1       2.448   3.695  20.944  0.00  0.00    +0.000 N 
ATOM      4  N   UNL     1       3.463   3.549  20.091  0.00  0.00    +0.000 NA
ATOM      5  C   UNL     1       3.505   4.698  19.390  0.00  0.00    +0.000 A 
ATOM      6  H   UNL     1       2.195   2.901  21.522  0.00  0.00    +0.000 HD
ENDROOT
BRANCH   5   7
ATOM      7  C   UNL     1       4.525   4.907  18.344  0.00  0.00    +0.000 A 
ATOM      8  C   UNL     1       5.608   5.768  18.602  0.00  0.00    +0.000 A 
ATOM      9  C   UNL     1       6.604   5.976  17.649  0.00  0.00    +0.000 A 
ATOM     10 CL   UNL     1       7.888   7.077  17.989  0.00  0.00    +0.000 Cl
ATOM     11  C   UNL     1       6.561   5.295  16.436  0.00  0.00    +0.000 A 
ATOM     12  C   UNL     1       5.515   4.425  16.156  0.00  0.00    +0.000 A 
ATOM     13  C   UNL     1       4.495   4.245  17.100  0.00  0.00    +0.000 A 
BRANCH  11  14
ATOM     14  O   UNL     1       7.529   5.450  15.482  0.00  0.00    +0.000 OA
ATOM     15  H   UNL     1       7.404   4.734  14.830  0.00  0.00    +0.000 HD
ENDBRANCH  11  14
BRANCH  13  16
ATOM     16  O   UNL     1       3.450   3.423  16.766  0.00  0.00    +0.000 OA
ATOM     17  H   UNL     1       3.763   2.509  16.702  0.00  0.00    +0.000 HD
ENDBRANCH  13  16
ENDBRANCH   5   7
BRANCH   1  19
ATOM     18  N   UNL     1       1.791   7.825  20.464  0.00  0.00    +0.000 N 
ATOM     19  C   UNL     1       2.225   6.974  19.464  0.00  0.00    +0.000 C 
ATOM     20  O   UNL     1       2.377   7.342  18.309  0.00  0.00    +0.000 OA
ATOM     21  H   UNL     1       1.901   7.533  21.424  0.00  0.00    +0.000 HD
BRANCH  18  22
ATOM     22  C   UNL     1       1.616   9.231  20.194  0.00  0.00    +0.000 C 
BRANCH  22  26
ATOM     23  C   UNL     1      -1.374  11.063  22.721  0.00  0.00    +0.000 A 
ATOM     24  C   UNL     1      -0.651   9.957  23.171  0.00  0.00    +0.000 A 
ATOM     25  C   UNL     1       0.309   9.353  22.354  0.00  0.00    +0.000 A 
ATOM     26  C   UNL     1       0.545   9.838  21.063  0.00  0.00    +0.000 A 
ATOM     27  C   UNL     1      -0.201  10.937  20.608  0.00  0.00    +0.000 A 
ATOM     28  C   UNL     1      -1.156  11.544  21.431  0.00  0.00    +0.000 A 
BRANCH  23  30
ATOM     29  C   UNL     1      -3.012  12.707  23.177  0.00  0.00    +0.000 C 
ATOM     30  O   UNL     1      -2.279  11.567  23.613  0.00  0.00    +0.000 OA
ENDBRANCH  23  30
ENDBRANCH  22  26
ENDBRANCH  18  22
ENDBRANCH   1  19
TORSDOF 7
ENDMDL
