MODEL 1
REMARK VINA RESULT:      -8.5      0.000      0.000
REMARK  Name = 
REMARK  5 active torsions:
REMARK  status: ('A' for Active; 'I' for Inactive)
REMARK    1  A    between atoms: N_1  and  C_2
REMARK    2  A    between atoms: C_2  and  C_3
REMARK    3  A    between atoms: N_6  and  C_7
REMARK    4  A    between atoms: C_16  and  C_17
REMARK    5  A    between atoms: C_17  and  O_19
REMARK                            x       y       z     vdW  Elec       q    Type
REMARK                         _______ _______ _______ _____ _____    ______ ____
ROOT
ATOM      1  C   UNL     1       2.201   8.094  18.938  0.00  0.00    +0.000 A 
ATOM      2  N   UNL     1       2.603   6.811  19.168  0.00  0.00    +0.000 NA
ATOM      3  C   UNL     1       3.534   6.165  18.406  0.00  0.00    +0.000 A 
ATOM      4  C   UNL     1       4.116   6.852  17.319  0.00  0.00    +0.000 A 
ATOM      5  C   UNL     1       3.718   8.172  17.058  0.00  0.00    +0.000 A 
ATOM      6  C   UNL     1       2.770   8.798  17.859  0.00  0.00    +0.000 A 
ATOM      7  F   UNL     1       2.428  10.075  17.564  0.00  0.00    +0.000 F 
ATOM      8  C   UNL     1       5.073   6.211  16.520  0.00  0.00    +0.000 A 
ATOM      9  O   UNL     1       5.571   6.810  15.580  0.00  0.00    +0.000 OA
ATOM     10  C   UNL     1       5.457   4.885  16.804  0.00  0.00    +0.000 A 
ATOM     11  C   UNL     1       4.851   4.246  17.905  0.00  0.00    +0.000 A 
ATOM     12  N   UNL     1       3.912   4.868  18.690  0.00  0.00    +0.000 N 
ATOM     13  C   UNL     1       3.338   4.127  19.806  0.00  0.00    +0.000 A 
ATOM     14  N   UNL     1       2.386   4.617  20.637  0.00  0.00    +0.000 NA
ATOM     15  C   UNL     1       2.018   3.721  21.592  0.00  0.00    +0.000 A 
ATOM     16  C   UNL     1       2.671   2.498  21.540  0.00  0.00    +0.000 A 
ATOM     17  S   UNL     1       3.745   2.546  20.252  0.00  0.00    +0.000 S 
ENDROOT
BRANCH   1  21
ATOM     18  C   UNL     1      -0.086   9.203  21.616  0.00  0.00    +0.000 C 
ATOM     19  C   UNL     1      -0.529   9.939  20.603  0.00  0.00    +0.000 C 
ATOM     20  C   UNL     1       0.273   9.679  19.376  0.00  0.00    +0.000 C 
ATOM     21  N   UNL     1       1.238   8.693  19.809  0.00  0.00    +0.000 N 
ATOM     22  C   UNL     1       1.075   8.372  21.208  0.00  0.00    +0.000 C 
BRANCH  18  23
ATOM     23  C   UNL     1      -0.686   9.186  22.992  0.00  0.00    +0.000 C 
BRANCH  23  24
ATOM     24  N   UNL     1       0.327   9.551  23.978  0.00  0.00    +0.000 NA
ATOM     25  H   UNL     1      -0.047   9.341  24.932  0.00  0.00    +0.000 HD
ATOM     26  H   UNL     1       0.500  10.582  23.923  0.00  0.00    +0.000 HD
ENDBRANCH  23  24
ENDBRANCH  18  23
ENDBRANCH   1  21
BRANCH  10  27
ATOM     27  C   UNL     1       6.481   4.176  15.954  0.00  0.00    +0.000 C 
ATOM     28  O   UNL     1       7.670   4.318  16.193  0.00  0.00    +0.000 OA
BRANCH  27  29
ATOM     29  O   UNL     1       6.148   3.377  14.913  0.00  0.00    +0.000 OA
ATOM     30  H   UNL     1       6.769   2.882  14.368  0.00  0.00    +0.000 HD
ENDBRANCH  27  29
ENDBRANCH  10  27
TORSDOF 5
ENDMDL
MODEL 2
REMARK VINA RESULT:      -8.3      0.679      1.179
REMARK  Name = 
REMARK  5 active torsions:
REMARK  status: ('A' for Active; 'I' for Inactive)
REMARK    1  A    between atoms: N_1  and  C_2
REMARK    2  A    between atoms: C_2  and  C_3
REMARK    3  A    between atoms: N_6  and  C_7
REMARK    4  A    between atoms: C_16  and  C_17
REMARK    5  A    between atoms: C_17  and  O_19
REMARK                            x       y       z     vdW  Elec       q    Type
REMARK                         _______ _______ _______ _____ _____    ______ ____
ROOT
ATOM      1  C   UNL     1       2.108   8.062  19.175  0.00  0.00    +0.000 A 
ATOM      2  N   UNL     1       2.526   6.773  19.336  0.00  0.00    +0.000 NA
ATOM      3  C   UNL     1       3.420   6.162  18.505  0.00  0.00    +0.000 A 
ATOM      4  C   UNL     1       3.944   6.893  17.416  0.00  0.00    +0.000 A 
ATOM      5  C   UNL     1       3.530   8.219  17.226  0.00  0.00    +0.000 A 
ATOM      6  C   UNL     1       2.620   8.809  18.097  0.00  0.00    +0.000 A 
ATOM      7  F   UNL     1       2.259  10.095  17.868  0.00  0.00    +0.000 F 
ATOM      8  C   UNL     1       4.862   6.288  16.547  0.00  0.00    +0.000 A 
ATOM      9  O   UNL     1       5.311   6.925  15.606  0.00  0.00    +0.000 OA
ATOM     10  C   UNL     1       5.265   4.954  16.761  0.00  0.00    +0.000 A 
ATOM     11  C   UNL     1       4.718   4.271  17.866  0.00  0.00    +0.000 A 
ATOM     12  N   UNL     1       3.816   4.857  18.720  0.00  0.00    +0.000 N 
ATOM     13  C   UNL     1       3.302   4.072  19.834  0.00  0.00    +0.000 A 
ATOM     14  N   UNL     1       2.391   4.525  20.729  0.00  0.00    +0.000 NA
ATOM     15  C   UNL     1       2.074   3.591  21.667  0.00  0.00    +0.000 A 
ATOM     16  C   UNL     1       2.729   2.375  21.536  0.00  0.00    +0.000 A 
ATOM     17  S   UNL     1       3.737   2.477  20.199  0.00  0.00    +0.000 S 
ENDROOT
BRANCH   1  21
ATOM     18  C   UNL     1      -0.199  10.050  21.262  0.00  0.00    +0.000 C 
ATOM     19  C   UNL     1      -0.125   8.936  21.982  0.00  0.00    +0.000 C 
ATOM     20  C   UNL     1       0.757   7.939  21.315  0.00  0.00    +0.000 C 
ATOM     21  N   UNL     1       1.188   8.622  20.115  0.00  0.00    +0.000 N 
ATOM     22  C   UNL     1       0.605   9.940  20.019  0.00  0.00    +0.000 C 
BRANCH  18  23
ATOM     23  C   UNL     1      -0.970  11.277  21.655  0.00  0.00    +0.000 C 
BRANCH  23  24
ATOM     24  N   UNL     1      -0.745  11.573  23.065  0.00  0.00    +0.000 NA
ATOM     25  H   UNL     1      -0.038  10.899  23.439  0.00  0.00    +0.000 HD
ATOM     26  H   UNL     1      -1.637  11.424  23.593  0.00  0.00    +0.000 HD
ENDBRANCH  23  24
ENDBRANCH  18  23
ENDBRANCH   1  21
BRANCH  10  27
ATOM     27  C   UNL     1       6.248   4.283  15.835  0.00  0.00    +0.000 C 
ATOM     28  O   UNL     1       5.925   3.264  15.245  0.00  0.00    +0.000 OA
BRANCH  27  29
ATOM     29  O   UNL     1       7.498   4.755  15.620  0.00  0.00    +0.000 OA
ATOM     30  H   UNL     1       7.772   5.289  14.867  0.00  0.00    +0.000 HD
ENDBRANCH  27  29
ENDBRANCH  10  27
TORSDOF 5
ENDMDL
MODEL 3
REMARK VINA RESULT:      -6.9      5.928      9.430
REMARK  Name = 
REMARK  5 active torsions:
REMARK  status: ('A' for Active; 'I' for Inactive)
REMARK    1  A    between atoms: N_1  and  C_2
REMARK    2  A    between atoms: C_2  and  C_3
REMARK    3  A    between atoms: N_6  and  C_7
REMARK    4  A    between atoms: C_16  and  C_17
REMARK    5  A    between atoms: C_17  and  O_19
REMARK                            x       y       z     vdW  Elec       q    Type
REMARK                         _______ _______ _______ _____ _____    ______ ____
ROOT
ATOM      1  C   UNL     1       0.452   9.863  19.853  0.00  0.00    +0.000 A 
ATOM      2  N   UNL     1      -0.664  10.283  19.188  0.00  0.00    +0.000 NA
ATOM      3  C   UNL     1      -1.567  11.162  19.714  0.00  0.00    +0.000 A 
ATOM      4  C   UNL     1      -1.347  11.666  21.014  0.00  0.00    +0.000 A 
ATOM      5  C   UNL     1      -0.209  11.249  21.720  0.00  0.00    +0.000 A 
ATOM      6  C   UNL     1       0.691  10.355  21.150  0.00  0.00    +0.000 A 
ATOM      7  F   UNL     1       1.776   9.991  21.876  0.00  0.00    +0.000 F 
ATOM      8  C   UNL     1      -2.260  12.568  21.577  0.00  0.00    +0.000 A 
ATOM      9  O   UNL     1      -2.064  12.999  22.703  0.00  0.00    +0.000 OA
ATOM     10  C   UNL     1      -3.394  12.974  20.845  0.00  0.00    +0.000 A 
ATOM     11  C   UNL     1      -3.565  12.446  19.549  0.00  0.00    +0.000 A 
ATOM     12  N   UNL     1      -2.675  11.561  18.993  0.00  0.00    +0.000 N 
ATOM     13  C   UNL     1      -2.936  11.066  17.648  0.00  0.00    +0.000 A 
ATOM     14  N   UNL     1      -2.150  10.172  16.999  0.00  0.00    +0.000 NA
ATOM     15  C   UNL     1      -2.619   9.872  15.757  0.00  0.00    +0.000 A 
ATOM     16  C   UNL     1      -3.789  10.524  15.393  0.00  0.00    +0.000 A 
ATOM     17  S   UNL     1      -4.247  11.507  16.673  0.00  0.00    +0.000 S 
ENDROOT
BRANCH   1  21
ATOM     18  C   UNL     1       2.781   7.222  18.746  0.00  0.00    +0.000 C 
ATOM     19  C   UNL     1       2.833   8.039  17.701  0.00  0.00    +0.000 C 
ATOM     20  C   UNL     1       1.931   9.207  17.904  0.00  0.00    +0.000 C 
ATOM     21  N   UNL     1       1.353   8.962  19.206  0.00  0.00    +0.000 N 
ATOM     22  C   UNL     1       1.833   7.722  19.773  0.00  0.00    +0.000 C 
BRANCH  18  23
ATOM     23  C   UNL     1       3.589   5.965  18.895  0.00  0.00    +0.000 C 
BRANCH  23  24
ATOM     24  N   UNL     1       3.325   5.358  20.195  0.00  0.00    +0.000 NA
ATOM     25  H   UNL     1       4.204   5.387  20.761  0.00  0.00    +0.000 HD
ATOM     26  H   UNL     1       3.070   4.352  20.056  0.00  0.00    +0.000 HD
ENDBRANCH  23  24
ENDBRANCH  18  23
ENDBRANCH   1  21
BRANCH  10  27
ATOM     27  C   UNL     1      -4.392  13.939  21.435  0.00  0.00    +0.000 C 
ATOM     28  O   UNL     1      -4.770  14.896  20.778  0.00  0.00    +0.000 OA
BRANCH  27  29
ATOM     29  O   UNL     1      -4.899  13.803  22.683  0.00  0.00    +0.000 OA
ATOM     30  H   UNL     1      -4.446  14.043  23.499  0.00  0.00    +0.000 HD
ENDBRANCH  27  29
ENDBRANCH  10  27
TORSDOF 5
ENDMDL
MODEL 4
REMARK VINA RESULT:      -6.9      8.913     11.150
REMARK  Name = 
REMARK  5 active torsions:
REMARK  status: ('A' for Active; 'I' for Inactive)
REMARK    1  A    between atoms: N_1  and  C_2
REMARK    2  A    between atoms: C_2  and  C_3
REMARK    3  A    between atoms: N_6  and  C_7
REMARK    4  A    between atoms: C_16  and  C_17
REMARK    5  A    between atoms: C_17  and  O_19
REMARK                            x       y       z     vdW  Elec       q    Type
REMARK                         _______ _______ _______ _____ _____    ______ ____
ROOT
ATOM      1  C   UNL     1      -3.875  11.489  18.255  0.00  0.00    +0.000 A 
ATOM      2  N   UNL     1      -2.930  12.053  19.061  0.00  0.00    +0.000 NA
ATOM      3  C   UNL     1      -3.216  12.638  20.262  0.00  0.00    +0.000 A 
ATOM      4  C   UNL     1      -4.558  12.669  20.699  0.00  0.00    +0.000 A 
ATOM      5  C   UNL     1      -5.550  12.098  19.889  0.00  0.00    +0.000 A 
ATOM      6  C   UNL     1      -5.220  11.507  18.674  0.00  0.00    +0.000 A 
ATOM      7  F   UNL     1      -6.218  10.966  17.934  0.00  0.00    +0.000 F 
ATOM      8  C   UNL     1      -4.878  13.265  21.927  0.00  0.00    +0.000 A 
ATOM      9  O   UNL     1      -6.041  13.290  22.300  0.00  0.00    +0.000 OA
ATOM     10  C   UNL     1      -3.862  13.829  22.724  0.00  0.00    +0.000 A 
ATOM     11  C   UNL     1      -2.538  13.767  22.245  0.00  0.00    +0.000 A 
ATOM     12  N   UNL     1      -2.218  13.186  21.043  0.00  0.00    +0.000 N 
ATOM     13  C   UNL     1      -0.822  13.171  20.627  0.00  0.00    +0.000 A 
ATOM     14  N   UNL     1      -0.381  12.652  19.456  0.00  0.00    +0.000 NA
ATOM     15  C   UNL     1       0.968  12.769  19.309  0.00  0.00    +0.000 A 
ATOM     16  C   UNL     1       1.626  13.384  20.365  0.00  0.00    +0.000 A 
ATOM     17  S   UNL     1       0.477  13.792  21.517  0.00  0.00    +0.000 S 
ENDROOT
BRANCH   1  21
ATOM     18  C   UNL     1      -3.365  10.177  14.842  0.00  0.00    +0.000 C 
ATOM     19  C   UNL     1      -2.405   9.530  15.493  0.00  0.00    +0.000 C 
ATOM     20  C   UNL     1      -2.392   9.920  16.930  0.00  0.00    +0.000 C 
ATOM     21  N   UNL     1      -3.473  10.875  17.028  0.00  0.00    +0.000 N 
ATOM     22  C   UNL     1      -4.105  11.092  15.748  0.00  0.00    +0.000 C 
BRANCH  18  23
ATOM     23  C   UNL     1      -3.688   9.999  13.386  0.00  0.00    +0.000 C 
BRANCH  23  24
ATOM     24  N   UNL     1      -2.493   9.575  12.663  0.00  0.00    +0.000 NA
ATOM     25  H   UNL     1      -2.299  10.268  11.906  0.00  0.00    +0.000 HD
ATOM     26  H   UNL     1      -2.681   8.650  12.208  0.00  0.00    +0.000 HD
ENDBRANCH  23  24
ENDBRANCH  18  23
ENDBRANCH   1  21
BRANCH  10  27
ATOM     27  C   UNL     1      -4.186  14.481  24.045  0.00  0.00    +0.000 C 
ATOM     28  O   UNL     1      -3.370  14.447  24.953  0.00  0.00    +0.000 OA
BRANCH  27  29
ATOM     29  O   UNL     1      -5.359  15.110  24.288  0.00  0.00    +0.000 OA
ATOM     30  H   UNL     1      -5.887  15.019  25.089  0.00  0.00    +0.000 HD
ENDBRANCH  27  29
ENDBRANCH  10  27
TORSDOF 5
ENDMDL
MODEL 5
REMARK VINA RESULT:      -6.8      5.843      9.371
REMARK  Name = 
REMARK  5 active torsions:
REMARK  status: ('A' for Active; 'I' for Inactive)
REMARK    1  A    between atoms: N_1  and  C_2
REMARK    2  A    between atoms: C_2  and  C_3
REMARK    3  A    between atoms: N_6  and  C_7
REMARK    4  A    between atoms: C_16  and  C_17
REMARK    5  A    between atoms: C_17  and  O_19
REMARK                            x       y       z     vdW  Elec       q    Type
REMARK                         _______ _______ _______ _____ _____    ______ ____
ROOT
ATOM      1  C   UNL     1       0.922   9.346  20.288  0.00  0.00    +0.000 A 
ATOM      2  N   UNL     1       1.090  10.699  20.245  0.00  0.00    +0.000 NA
ATOM      3  C   UNL     1       0.440  11.565  21.077  0.00  0.00    +0.000 A 
ATOM      4  C   UNL     1      -0.458  11.044  22.033  0.00  0.00    +0.000 A 
ATOM      5  C   UNL     1      -0.652   9.656  22.097  0.00  0.00    +0.000 A 
ATOM      6  C   UNL     1       0.032   8.804  21.236  0.00  0.00    +0.000 A 
ATOM      7  F   UNL     1      -0.190   7.472  21.346  0.00  0.00    +0.000 F 
ATOM      8  C   UNL     1      -1.140  11.912  22.897  0.00  0.00    +0.000 A 
ATOM      9  O   UNL     1      -1.916  11.455  23.721  0.00  0.00    +0.000 OA
ATOM     10  C   UNL     1      -0.926  13.302  22.814  0.00  0.00    +0.000 A 
ATOM     11  C   UNL     1      -0.014  13.772  21.847  0.00  0.00    +0.000 A 
ATOM     12  N   UNL     1       0.655  12.927  20.996  0.00  0.00    +0.000 N 
ATOM     13  C   UNL     1       1.576  13.503  20.026  0.00  0.00    +0.000 A 
ATOM     14  N   UNL     1       2.275  12.781  19.117  0.00  0.00    +0.000 NA
ATOM     15  C   UNL     1       3.060  13.562  18.324  0.00  0.00    +0.000 A 
ATOM     16  C   UNL     1       3.000  14.923  18.590  0.00  0.00    +0.000 A 
ATOM     17  S   UNL     1       1.927  15.150  19.859  0.00  0.00    +0.000 S 
ENDROOT
BRANCH   1  21
ATOM     18  C   UNL     1       2.937   6.830  18.488  0.00  0.00    +0.000 C 
ATOM     19  C   UNL     1       2.840   7.771  17.556  0.00  0.00    +0.000 C 
ATOM     20  C   UNL     1       2.028   8.917  18.050  0.00  0.00    +0.000 C 
ATOM     21  N   UNL     1       1.669   8.519  19.393  0.00  0.00    +0.000 N 
ATOM     22  C   UNL     1       2.193   7.212  19.715  0.00  0.00    +0.000 C 
BRANCH  18  23
ATOM     23  C   UNL     1       3.714   5.554  18.343  0.00  0.00    +0.000 C 
BRANCH  23  24
ATOM     24  N   UNL     1       4.575   5.363  19.506  0.00  0.00    +0.000 NA
ATOM     25  H   UNL     1       3.972   5.244  20.351  0.00  0.00    +0.000 HD
ATOM     26  H   UNL     1       5.153   6.225  19.647  0.00  0.00    +0.000 HD
ENDBRANCH  23  24
ENDBRANCH  18  23
ENDBRANCH   1  21
BRANCH  10  27
ATOM     27  C   UNL     1      -1.653  14.254  23.731  0.00  0.00    +0.000 C 
ATOM     28  O   UNL     1      -1.019  14.943  24.515  0.00  0.00    +0.000 OA
BRANCH  27  29
ATOM     29  O   UNL     1      -3.000  14.386  23.737  0.00  0.00    +0.000 OA
ATOM     30  H   UNL     1      -3.489  15.105  24.152  0.00  0.00    +0.000 HD
ENDBRANCH  27  29
ENDBRANCH  10  27
TORSDOF 5
ENDMDL
MODEL 6
REMARK VINA RESULT:      -6.8      6.242      8.893
REMARK  Name = 
REMARK  5 active torsions:
REMARK  status: ('A' for Active; 'I' for Inactive)
REMARK    1  A    between atoms: N_1  and  C_2
REMARK    2  A    between atoms: C_2  and  C_3
REMARK    3  A    between atoms: N_6  and  C_7
REMARK    4  A    between atoms: C_16  and  C_17
REMARK    5  A    between atoms: C_17  and  O_19
REMARK                            x       y       z     vdW  Elec       q    Type
REMARK                         _______ _______ _______ _____ _____    ______ ____
ROOT
ATOM      1  C   UNL     1      -2.884  13.119  22.267  0.00  0.00    +0.000 A 
ATOM      2  N   UNL     1      -2.968  12.607  21.005  0.00  0.00    +0.000 NA
ATOM      3  C   UNL     1      -1.921  12.009  20.363  0.00  0.00    +0.000 A 
ATOM      4  C   UNL     1      -0.681  11.914  21.030  0.00  0.00    +0.000 A 
ATOM      5  C   UNL     1      -0.566  12.435  22.328  0.00  0.00    +0.000 A 
ATOM      6  C   UNL     1      -1.655  13.033  22.951  0.00  0.00    +0.000 A 
ATOM      7  F   UNL     1      -1.488  13.514  24.206  0.00  0.00    +0.000 F 
ATOM      8  C   UNL     1       0.410  11.307  20.392  0.00  0.00    +0.000 A 
ATOM      9  O   UNL     1       1.481  11.230  20.974  0.00  0.00    +0.000 OA
ATOM     10  C   UNL     1       0.267  10.789  19.089  0.00  0.00    +0.000 A 
ATOM     11  C   UNL     1      -0.994  10.903  18.470  0.00  0.00    +0.000 A 
ATOM     12  N   UNL     1      -2.065  11.498  19.089  0.00  0.00    +0.000 N 
ATOM     13  C   UNL     1      -3.330  11.574  18.369  0.00  0.00    +0.000 A 
ATOM     14  N   UNL     1      -4.451  12.157  18.858  0.00  0.00    +0.000 NA
ATOM     15  C   UNL     1      -5.493  12.096  17.983  0.00  0.00    +0.000 A 
ATOM     16  C   UNL     1      -5.219  11.462  16.780  0.00  0.00    +0.000 A 
ATOM     17  S   UNL     1      -3.618  10.962  16.818  0.00  0.00    +0.000 S 
ENDROOT
BRANCH   1  21
ATOM     18  C   UNL     1      -6.150  14.047  23.715  0.00  0.00    +0.000 C 
ATOM     19  C   UNL     1      -5.548  15.231  23.705  0.00  0.00    +0.000 C 
ATOM     20  C   UNL     1      -4.164  15.110  23.169  0.00  0.00    +0.000 C 
ATOM     21  N   UNL     1      -4.044  13.701  22.865  0.00  0.00    +0.000 N 
ATOM     22  C   UNL     1      -5.250  12.982  23.206  0.00  0.00    +0.000 C 
BRANCH  18  23
ATOM     23  C   UNL     1      -7.565  13.806  24.157  0.00  0.00    +0.000 C 
BRANCH  23  24
ATOM     24  N   UNL     1      -7.916  12.405  23.951  0.00  0.00    +0.000 NA
ATOM     25  H   UNL     1      -7.962  11.932  24.882  0.00  0.00    +0.000 HD
ATOM     26  H   UNL     1      -7.159  11.942  23.395  0.00  0.00    +0.000 HD
ENDBRANCH  23  24
ENDBRANCH  18  23
ENDBRANCH   1  21
BRANCH  10  27
ATOM     27  C   UNL     1       1.430  10.137  18.384  0.00  0.00    +0.000 C 
ATOM     28  O   UNL     1       1.686   8.962  18.596  0.00  0.00    +0.000 OA
BRANCH  27  29
ATOM     29  O   UNL     1       2.227  10.799  17.512  0.00  0.00    +0.000 OA
ATOM     30  H   UNL     1       1.974  11.577  17.004  0.00  0.00    +0.000 HD
ENDBRANCH  27  29
ENDBRANCH  10  27
TORSDOF 5
ENDMDL
MODEL 7
REMARK VINA RESULT:      -6.8      3.124      4.623
REMARK  Name = 
REMARK  5 active torsions:
REMARK  status: ('A' for Active; 'I' for Inactive)
REMARK    1  A    between atoms: N_1  and  C_2
REMARK    2  A    between atoms: C_2  and  C_3
REMARK    3  A    between atoms: N_6  and  C_7
REMARK    4  A    between atoms: C_16  and  C_17
REMARK    5  A    between atoms: C_17  and  O_19
REMARK                            x       y       z     vdW  Elec       q    Type
REMARK                         _______ _______ _______ _____ _____    ______ ____
ROOT
ATOM      1  C   UNL     1       2.122   7.081  19.551  0.00  0.00    +0.000 A 
ATOM      2  N   UNL     1       3.050   6.391  18.827  0.00  0.00    +0.000 NA
ATOM      3  C   UNL     1       3.505   5.151  19.173  0.00  0.00    +0.000 A 
ATOM      4  C   UNL     1       2.999   4.544  20.343  0.00  0.00    +0.000 A 
ATOM      5  C   UNL     1       2.046   5.233  21.108  0.00  0.00    +0.000 A 
ATOM      6  C   UNL     1       1.603   6.493  20.721  0.00  0.00    +0.000 A 
ATOM      7  F   UNL     1       0.677   7.110  21.495  0.00  0.00    +0.000 F 
ATOM      8  C   UNL     1       3.452   3.273  20.721  0.00  0.00    +0.000 A 
ATOM      9  O   UNL     1       3.011   2.753  21.735  0.00  0.00    +0.000 OA
ATOM     10  C   UNL     1       4.408   2.600  19.934  0.00  0.00    +0.000 A 
ATOM     11  C   UNL     1       4.877   3.247  18.773  0.00  0.00    +0.000 A 
ATOM     12  N   UNL     1       4.439   4.493  18.398  0.00  0.00    +0.000 N 
ATOM     13  C   UNL     1       4.982   5.085  17.183  0.00  0.00    +0.000 A 
ATOM     14  N   UNL     1       4.652   6.314  16.720  0.00  0.00    +0.000 NA
ATOM     15  C   UNL     1       5.306   6.631  15.568  0.00  0.00    +0.000 A 
ATOM     16  C   UNL     1       6.170   5.655  15.092  0.00  0.00    +0.000 A 
ATOM     17  S   UNL     1       6.110   4.356  16.152  0.00  0.00    +0.000 S 
ENDROOT
BRANCH   1  21
ATOM     18  C   UNL     1       0.700  10.431  18.932  0.00  0.00    +0.000 C 
ATOM     19  C   UNL     1       1.212  10.164  17.736  0.00  0.00    +0.000 C 
ATOM     20  C   UNL     1       1.882   8.834  17.738  0.00  0.00    +0.000 C 
ATOM     21  N   UNL     1       1.687   8.363  19.092  0.00  0.00    +0.000 N 
ATOM     22  C   UNL     1       0.971   9.331  19.890  0.00  0.00    +0.000 C 
BRANCH  18  23
ATOM     23  C   UNL     1      -0.076  11.670  19.277  0.00  0.00    +0.000 C 
BRANCH  23  24
ATOM     24  N   UNL     1      -0.284  12.474  18.078  0.00  0.00    +0.000 NA
ATOM     25  H   UNL     1       0.524  13.128  17.971  0.00  0.00    +0.000 HD
ATOM     26  H   UNL     1      -1.148  13.053  18.200  0.00  0.00    +0.000 HD
ENDBRANCH  23  24
ENDBRANCH  18  23
ENDBRANCH   1  21
BRANCH  10  27
ATOM     27  C   UNL     1       4.912   1.234  20.327  0.00  0.00    +0.000 C 
ATOM     28  O   UNL     1       5.383   1.059  21.440  0.00  0.00    +0.000 OA
BRANCH  27  29
ATOM     29  O   UNL     1       4.877   0.168  19.493  0.00  0.00    +0.000 OA
ATOM     30  H   UNL     1       4.099  -0.367  19.304  0.00  0.00    +0.000 HD
ENDBRANCH  27  29
ENDBRANCH  10  27
TORSDOF 5
ENDMDL
MODEL 8
REMARK VINA RESULT:      -6.7      9.527     12.161
REMARK  Name = 
REMARK  5 active torsions:
REMARK  status: ('A' for Active; 'I' for Inactive)
REMARK    1  A    between atoms: N_1  and  C_2
REMARK    2  A    between atoms: C_2  and  C_3
REMARK    3  A    between atoms: N_6  and  C_7
REMARK    4  A    between atoms: C_16  and  C_17
REMARK    5  A    between atoms: C_17  and  O_19
REMARK                            x       y       z     vdW  Elec       q    Type
REMARK                         _______ _______ _______ _____ _____    ______ ____
ROOT
ATOM      1  C   UNL     1      -4.657  11.529  18.590  0.00  0.00    +0.000 A 
ATOM      2  N   UNL     1      -4.004  12.309  19.499  0.00  0.00    +0.000 NA
ATOM      3  C   UNL     1      -4.617  12.892  20.571  0.00  0.00    +0.000 A 
ATOM      4  C   UNL     1      -6.001  12.685  20.756  0.00  0.00    +0.000 A 
ATOM      5  C   UNL     1      -6.698  11.888  19.835  0.00  0.00    +0.000 A 
ATOM      6  C   UNL     1      -6.038  11.308  18.758  0.00  0.00    +0.000 A 
ATOM      7  F   UNL     1      -6.760  10.544  17.903  0.00  0.00    +0.000 F 
ATOM      8  C   UNL     1      -6.655  13.274  21.847  0.00  0.00    +0.000 A 
ATOM      9  O   UNL     1      -7.853  13.092  22.002  0.00  0.00    +0.000 OA
ATOM     10  C   UNL     1      -5.931  14.067  22.760  0.00  0.00    +0.000 A 
ATOM     11  C   UNL     1      -4.550  14.238  22.533  0.00  0.00    +0.000 A 
ATOM     12  N   UNL     1      -3.905  13.666  21.465  0.00  0.00    +0.000 N 
ATOM     13  C   UNL     1      -2.475  13.900  21.310  0.00  0.00    +0.000 A 
ATOM     14  N   UNL     1      -1.730  13.414  20.288  0.00  0.00    +0.000 NA
ATOM     15  C   UNL     1      -0.423  13.784  20.376  0.00  0.00    +0.000 A 
ATOM     16  C   UNL     1      -0.103  14.571  21.472  0.00  0.00    +0.000 A 
ATOM     17  S   UNL     1      -1.507  14.810  22.358  0.00  0.00    +0.000 S 
ENDROOT
BRANCH   1  21
ATOM     18  C   UNL     1      -3.217  10.253  15.440  0.00  0.00    +0.000 C 
ATOM     19  C   UNL     1      -2.427   9.654  16.323  0.00  0.00    +0.000 C 
ATOM     20  C   UNL     1      -2.805  10.041  17.711  0.00  0.00    +0.000 C 
ATOM     21  N   UNL     1      -3.921  10.940  17.516  0.00  0.00    +0.000 N 
ATOM     22  C   UNL     1      -4.211  11.127  16.113  0.00  0.00    +0.000 C 
BRANCH  18  23
ATOM     23  C   UNL     1      -3.143  10.062  13.952  0.00  0.00    +0.000 C 
BRANCH  23  24
ATOM     24  N   UNL     1      -4.474   9.790  13.421  0.00  0.00    +0.000 NA
ATOM     25  H   UNL     1      -4.620  10.379  12.569  0.00  0.00    +0.000 HD
ATOM     26  H   UNL     1      -5.190  10.075  14.130  0.00  0.00    +0.000 HD
ENDBRANCH  23  24
ENDBRANCH  18  23
ENDBRANCH   1  21
BRANCH  10  27
ATOM     27  C   UNL     1      -6.617  14.714  23.937  0.00  0.00    +0.000 C 
ATOM     28  O   UNL     1      -6.377  15.880  24.212  0.00  0.00    +0.000 OA
BRANCH  27  29
ATOM     29  O   UNL     1      -7.498  14.058  24.728  0.00  0.00    +0.000 OA
ATOM     30  H   UNL     1      -8.369  13.750  24.457  0.00  0.00    +0.000 HD
ENDBRANCH  27  29
ENDBRANCH  10  27
TORSDOF 5
ENDMDL
MODEL 9
REMARK VINA RESULT:      -6.6      8.072     11.240
REMARK  Name = 
REMARK  5 active torsions:
REMARK  status: ('A' for Active; 'I' for Inactive)
REMARK    1  A    between atoms: N_1  and  C_2
REMARK    2  A    between atoms: C_2  and  C_3
REMARK    3  A    between atoms: N_6  and  C_7
REMARK    4  A    between atoms: C_16  and  C_17
REMARK    5  A    between atoms: C_17  and  O_19
REMARK                            x       y       z     vdW  Elec       q    Type
REMARK                         _______ _______ _______ _____ _____    ______ ____
ROOT
ATOM      1  C   UNL     1      -1.289  12.261  20.224  0.00  0.00    +0.000 A 
ATOM      2  N   UNL     1      -2.414  12.580  20.927  0.00  0.00    +0.000 NA
ATOM      3  C   UNL     1      -2.410  13.385  22.030  0.00  0.00    +0.000 A 
ATOM      4  C   UNL     1      -1.182  13.919  22.476  0.00  0.00    +0.000 A 
ATOM      5  C   UNL     1      -0.009  13.605  21.773  0.00  0.00    +0.000 A 
ATOM      6  C   UNL     1      -0.054  12.784  20.651  0.00  0.00    +0.000 A 
ATOM      7  F   UNL     1       1.109  12.519  20.008  0.00  0.00    +0.000 F 
ATOM      8  C   UNL     1      -1.151  14.747  23.607  0.00  0.00    +0.000 A 
ATOM      9  O   UNL     1      -0.085  15.205  23.988  0.00  0.00    +0.000 OA
ATOM     10  C   UNL     1      -2.343  15.050  24.294  0.00  0.00    +0.000 A 
ATOM     11  C   UNL     1      -3.544  14.496  23.804  0.00  0.00    +0.000 A 
ATOM     12  N   UNL     1      -3.581  13.683  22.698  0.00  0.00    +0.000 N 
ATOM     13  C   UNL     1      -4.868  13.155  22.267  0.00  0.00    +0.000 A 
ATOM     14  N   UNL     1      -5.035  12.323  21.210  0.00  0.00    +0.000 NA
ATOM     15  C   UNL     1      -6.337  11.973  21.024  0.00  0.00    +0.000 A 
ATOM     16  C   UNL     1      -7.233  12.521  21.931  0.00  0.00    +0.000 A 
ATOM     17  S   UNL     1      -6.360  13.475  23.000  0.00  0.00    +0.000 S 
ENDROOT
BRANCH   1  21
ATOM     18  C   UNL     1      -2.076  10.491  17.081  0.00  0.00    +0.000 C 
ATOM     19  C   UNL     1      -1.142   9.689  17.580  0.00  0.00    +0.000 C 
ATOM     20  C   UNL     1      -0.635  10.218  18.876  0.00  0.00    +0.000 C 
ATOM     21  N   UNL     1      -1.400  11.431  19.065  0.00  0.00    +0.000 N 
ATOM     22  C   UNL     1      -2.303  11.664  17.962  0.00  0.00    +0.000 C 
BRANCH  18  23
ATOM     23  C   UNL     1      -2.829  10.244  15.805  0.00  0.00    +0.000 C 
BRANCH  23  24
ATOM     24  N   UNL     1      -3.391  11.497  15.312  0.00  0.00    +0.000 NA
ATOM     25  H   UNL     1      -3.707  11.355  14.326  0.00  0.00    +0.000 HD
ATOM     26  H   UNL     1      -2.642  12.229  15.305  0.00  0.00    +0.000 HD
ENDBRANCH  23  24
ENDBRANCH  18  23
ENDBRANCH   1  21
BRANCH  10  27
ATOM     27  C   UNL     1      -2.330  15.934  25.515  0.00  0.00    +0.000 C 
ATOM     28  O   UNL     1      -3.035  16.931  25.549  0.00  0.00    +0.000 OA
BRANCH  27  29
ATOM     29  O   UNL     1      -1.559  15.682  26.599  0.00  0.00    +0.000 OA
ATOM     30  H   UNL     1      -1.824  15.813  27.516  0.00  0.00    +0.000 HD
ENDBRANCH  27  29
ENDBRANCH  10  27
TORSDOF 5
ENDMDL
