MODEL 1
REMARK VINA RESULT:      -6.6      0.000      0.000
REMARK  Name = 
REMARK  4 active torsions:
REMARK  status: ('A' for Active; 'I' for Inactive)
REMARK    1  A    between atoms: C_1  and  N_2
REMARK    2  A    between atoms: C_3  and  S_4
REMARK    3  A    between atoms: C_3  and  C_5
REMARK    4  A    between atoms: C_5  and  C_6
REMARK                            x       y       z     vdW  Elec       q    Type
REMARK                         _______ _______ _______ _____ _____    ______ ____
ROOT
ATOM      1  C   UNL     1       4.821   4.626  17.918  0.00  0.00    +0.000 C 
ATOM      2  C   UNL     1       4.872   4.330  16.373  0.00  0.00    +0.000 C 
ATOM      3  C   UNL     1       5.397   5.484  15.507  0.00  0.00    +0.000 C 
ATOM      4  C   UNL     1       6.824   5.884  15.866  0.00  0.00    +0.000 C 
ATOM      5  C   UNL     1       6.968   6.264  17.330  0.00  0.00    +0.000 C 
ATOM      6  S   UNL     1       6.614   4.847  18.404  0.00  0.00    +0.000 S 
ATOM      7  O   UNL     1       6.746   5.300  19.900  0.00  0.00    +0.000 OA
ENDROOT
BRANCH   1   8
ATOM      8  C   UNL     1       3.884   5.820  18.187  0.00  0.00    +0.000 A 
ATOM      9  C   UNL     1       3.771   6.926  17.343  0.00  0.00    +0.000 A 
ATOM     10  C   UNL     1       2.942   7.993  17.698  0.00  0.00    +0.000 A 
ATOM     11  C   UNL     1       2.243   7.946  18.893  0.00  0.00    +0.000 A 
ATOM     12  C   UNL     1       2.406   6.833  19.692  0.00  0.00    +0.000 A 
ATOM     13  N   UNL     1       3.205   5.790  19.370  0.00  0.00    +0.000 NA
ENDBRANCH   1   8
BRANCH   1  16
ATOM     14  C   UNL     1       4.559   1.802  20.511  0.00  0.00    +0.000 C 
ATOM     15  N   UNL     1       4.929   2.976  19.748  0.00  0.00    +0.000 NA
ATOM     16  C   UNL     1       4.345   3.325  18.649  0.00  0.00    +0.000 C 
BRANCH  16  17
ATOM     17  S   UNL     1       2.975   2.444  17.952  0.00  0.00    +0.000 S 
ATOM     18  H   UNL     1       3.272   1.213  18.370  0.00  0.00    +0.000 HD
ENDBRANCH  16  17
ENDBRANCH   1  16
TORSDOF 3
ENDMDL
MODEL 2
REMARK VINA RESULT:      -6.4      2.034      3.471
REMARK  Name = 
REMARK  4 active torsions:
REMARK  status: ('A' for Active; 'I' for Inactive)
REMARK    1  A    between atoms: C_1  and  N_2
REMARK    2  A    between atoms: C_3  and  S_4
REMARK    3  A    between atoms: C_3  and  C_5
REMARK    4  A    between atoms: C_5  and  C_6
REMARK                            x       y       z     vdW  Elec       q    Type
REMARK                         _______ _______ _______ _____ _____    ______ ____
ROOT
ATOM      1  C   UNL     1       4.665   4.537  18.433  0.00  0.00    +0.000 C 
ATOM      2  C   UNL     1       4.331   3.526  19.591  0.00  0.00    +0.000 C 
ATOM      3  C   UNL     1       2.888   3.000  19.598  0.00  0.00    +0.000 C 
ATOM      4  C   UNL     1       2.534   2.247  18.320  0.00  0.00    +0.000 C 
ATOM      5  C   UNL     1       2.743   3.091  17.074  0.00  0.00    +0.000 C 
ATOM      6  S   UNL     1       4.492   3.523  16.871  0.00  0.00    +0.000 S 
ATOM      7  O   UNL     1       4.648   4.416  15.592  0.00  0.00    +0.000 OA
ENDROOT
BRANCH   1   8
ATOM      8  C   UNL     1       3.760   5.779  18.550  0.00  0.00    +0.000 A 
ATOM      9  C   UNL     1       3.716   6.802  17.601  0.00  0.00    +0.000 A 
ATOM     10  C   UNL     1       2.911   7.922  17.820  0.00  0.00    +0.000 A 
ATOM     11  C   UNL     1       2.165   8.011  18.983  0.00  0.00    +0.000 A 
ATOM     12  C   UNL     1       2.261   6.975  19.890  0.00  0.00    +0.000 A 
ATOM     13  N   UNL     1       3.035   5.883  19.701  0.00  0.00    +0.000 NA
ENDBRANCH   1   8
BRANCH   1  16
ATOM     14  C   UNL     1       8.042   5.704  19.850  0.00  0.00    +0.000 C 
ATOM     15  N   UNL     1       6.652   5.350  19.648  0.00  0.00    +0.000 NA
ATOM     16  C   UNL     1       6.185   4.903  18.529  0.00  0.00    +0.000 C 
BRANCH  16  17
ATOM     17  S   UNL     1       7.194   4.611  17.101  0.00  0.00    +0.000 S 
ATOM     18  H   UNL     1       7.578   3.360  17.358  0.00  0.00    +0.000 HD
ENDBRANCH  16  17
ENDBRANCH   1  16
TORSDOF 3
ENDMDL
MODEL 3
REMARK VINA RESULT:      -6.3      2.499      4.509
REMARK  Name = 
REMARK  4 active torsions:
REMARK  status: ('A' for Active; 'I' for Inactive)
REMARK    1  A    between atoms: C_1  and  N_2
REMARK    2  A    between atoms: C_3  and  S_4
REMARK    3  A    between atoms: C_3  and  C_5
REMARK    4  A    between atoms: C_5  and  C_6
REMARK                            x       y       z     vdW  Elec       q    Type
REMARK                         _______ _______ _______ _____ _____    ______ ____
ROOT
ATOM      1  C   UNL     1       3.101   4.506  19.178  0.00  0.00    +0.000 C 
ATOM      2  C   UNL     1       3.454   3.831  20.555  0.00  0.00    +0.000 C 
ATOM      3  C   UNL     1       2.279   3.702  21.536  0.00  0.00    +0.000 C 
ATOM      4  C   UNL     1       1.141   2.855  20.977  0.00  0.00    +0.000 C 
ATOM      5  C   UNL     1       0.619   3.387  19.654  0.00  0.00    +0.000 C 
ATOM      6  S   UNL     1       1.903   3.315  18.376  0.00  0.00    +0.000 S 
ATOM      7  O   UNL     1       1.323   3.902  17.041  0.00  0.00    +0.000 OA
ENDROOT
BRANCH   1   8
ATOM      8  C   UNL     1       2.587   5.939  19.418  0.00  0.00    +0.000 A 
ATOM      9  C   UNL     1       2.007   6.368  20.613  0.00  0.00    +0.000 A 
ATOM     10  C   UNL     1       1.512   7.669  20.721  0.00  0.00    +0.000 A 
ATOM     11  C   UNL     1       1.595   8.523  19.634  0.00  0.00    +0.000 A 
ATOM     12  C   UNL     1       2.165   8.038  18.475  0.00  0.00    +0.000 A 
ATOM     13  N   UNL     1       2.649   6.782  18.347  0.00  0.00    +0.000 NA
ENDBRANCH   1   8
BRANCH   1  16
ATOM     14  C   UNL     1       5.414   3.959  16.158  0.00  0.00    +0.000 C 
ATOM     15  N   UNL     1       4.295   4.015  17.077  0.00  0.00    +0.000 NA
ATOM     16  C   UNL     1       4.383   4.481  18.279  0.00  0.00    +0.000 C 
BRANCH  16  17
ATOM     17  S   UNL     1       5.873   5.164  18.952  0.00  0.00    +0.000 S 
ATOM     18  H   UNL     1       6.203   5.990  17.958  0.00  0.00    +0.000 HD
ENDBRANCH  16  17
ENDBRANCH   1  16
TORSDOF 3
ENDMDL
MODEL 4
REMARK VINA RESULT:      -6.3      2.128      3.638
REMARK  Name = 
REMARK  4 active torsions:
REMARK  status: ('A' for Active; 'I' for Inactive)
REMARK    1  A    between atoms: C_1  and  N_2
REMARK    2  A    between atoms: C_3  and  S_4
REMARK    3  A    between atoms: C_3  and  C_5
REMARK    4  A    between atoms: C_5  and  C_6
REMARK                            x       y       z     vdW  Elec       q    Type
REMARK                         _______ _______ _______ _____ _____    ______ ____
ROOT
ATOM      1  C   UNL     1       4.731   4.554  18.458  0.00  0.00    +0.000 C 
ATOM      2  C   UNL     1       4.415   3.467  19.551  0.00  0.00    +0.000 C 
ATOM      3  C   UNL     1       2.971   2.945  19.550  0.00  0.00    +0.000 C 
ATOM      4  C   UNL     1       2.590   2.281  18.231  0.00  0.00    +0.000 C 
ATOM      5  C   UNL     1       2.777   3.207  17.042  0.00  0.00    +0.000 C 
ATOM      6  S   UNL     1       4.524   3.649  16.834  0.00  0.00    +0.000 S 
ATOM      7  O   UNL     1       4.658   4.626  15.615  0.00  0.00    +0.000 OA
ENDROOT
BRANCH   1   8
ATOM      8  C   UNL     1       3.832   5.787  18.676  0.00  0.00    +0.000 A 
ATOM      9  C   UNL     1       2.987   5.949  19.775  0.00  0.00    +0.000 A 
ATOM     10  C   UNL     1       2.160   7.072  19.859  0.00  0.00    +0.000 A 
ATOM     11  C   UNL     1       2.182   8.014  18.844  0.00  0.00    +0.000 A 
ATOM     12  C   UNL     1       3.028   7.791  17.777  0.00  0.00    +0.000 A 
ATOM     13  N   UNL     1       3.834   6.712  17.673  0.00  0.00    +0.000 NA
ENDBRANCH   1   8
BRANCH   1  16
ATOM     14  C   UNL     1       8.119   5.702  19.862  0.00  0.00    +0.000 C 
ATOM     15  N   UNL     1       6.726   5.357  19.665  0.00  0.00    +0.000 NA
ATOM     16  C   UNL     1       6.254   4.909  18.549  0.00  0.00    +0.000 C 
BRANCH  16  17
ATOM     17  S   UNL     1       7.257   4.604  17.120  0.00  0.00    +0.000 S 
ATOM     18  H   UNL     1       6.872   5.631  16.360  0.00  0.00    +0.000 HD
ENDBRANCH  16  17
ENDBRANCH   1  16
TORSDOF 3
ENDMDL
MODEL 5
REMARK VINA RESULT:      -6.3      2.450      4.241
REMARK  Name = 
REMARK  4 active torsions:
REMARK  status: ('A' for Active; 'I' for Inactive)
REMARK    1  A    between atoms: C_1  and  N_2
REMARK    2  A    between atoms: C_3  and  S_4
REMARK    3  A    between atoms: C_3  and  C_5
REMARK    4  A    between atoms: C_5  and  C_6
REMARK                            x       y       z     vdW  Elec       q    Type
REMARK                         _______ _______ _______ _____ _____    ______ ____
ROOT
ATOM      1  C   UNL     1       3.244   4.598  19.002  0.00  0.00    +0.000 C 
ATOM      2  C   UNL     1       3.480   4.103  20.477  0.00  0.00    +0.000 C 
ATOM      3  C   UNL     1       2.216   4.018  21.345  0.00  0.00    +0.000 C 
ATOM      4  C   UNL     1       1.182   3.050  20.778  0.00  0.00    +0.000 C 
ATOM      5  C   UNL     1       0.778   3.402  19.357  0.00  0.00    +0.000 C 
ATOM      6  S   UNL     1       2.191   3.259  18.229  0.00  0.00    +0.000 S 
ATOM      7  O   UNL     1       1.730   3.660  16.785  0.00  0.00    +0.000 OA
ENDROOT
BRANCH   1   8
ATOM      8  C   UNL     1       2.644   6.018  19.021  0.00  0.00    +0.000 A 
ATOM      9  C   UNL     1       2.568   6.846  17.900  0.00  0.00    +0.000 A 
ATOM     10  C   UNL     1       2.065   8.142  18.023  0.00  0.00    +0.000 A 
ATOM     11  C   UNL     1       1.651   8.600  19.263  0.00  0.00    +0.000 A 
ATOM     12  C   UNL     1       1.764   7.741  20.337  0.00  0.00    +0.000 A 
ATOM     13  N   UNL     1       2.250   6.483  20.242  0.00  0.00    +0.000 NA
ENDBRANCH   1   8
BRANCH   1  16
ATOM     14  C   UNL     1       5.858   3.969  16.257  0.00  0.00    +0.000 C 
ATOM     15  N   UNL     1       4.649   4.052  17.051  0.00  0.00    +0.000 NA
ATOM     16  C   UNL     1       4.614   4.545  18.245  0.00  0.00    +0.000 C 
BRANCH  16  17
ATOM     17  S   UNL     1       6.030   5.237  19.055  0.00  0.00    +0.000 S 
ATOM     18  H   UNL     1       6.504   5.989  18.061  0.00  0.00    +0.000 HD
ENDBRANCH  16  17
ENDBRANCH   1  16
TORSDOF 3
ENDMDL
MODEL 6
REMARK VINA RESULT:      -6.3      2.493      4.666
REMARK  Name = 
REMARK  4 active torsions:
REMARK  status: ('A' for Active; 'I' for Inactive)
REMARK    1  A    between atoms: C_1  and  N_2
REMARK    2  A    between atoms: C_3  and  S_4
REMARK    3  A    between atoms: C_3  and  C_5
REMARK    4  A    between atoms: C_5  and  C_6
REMARK                            x       y       z     vdW  Elec       q    Type
REMARK                         _______ _______ _______ _____ _____    ______ ____
ROOT
ATOM      1  C   UNL     1       2.686   5.233  18.921  0.00  0.00    +0.000 C 
ATOM      2  C   UNL     1       1.827   4.762  17.689  0.00  0.00    +0.000 C 
ATOM      3  C   UNL     1       2.059   3.307  17.253  0.00  0.00    +0.000 C 
ATOM      4  C   UNL     1       1.727   2.307  18.356  0.00  0.00    +0.000 C 
ATOM      5  C   UNL     1       2.511   2.568  19.630  0.00  0.00    +0.000 C 
ATOM      6  S   UNL     1       2.075   4.178  20.339  0.00  0.00    +0.000 S 
ATOM      7  O   UNL     1       2.931   4.411  21.633  0.00  0.00    +0.000 OA
ENDROOT
BRANCH   1   8
ATOM      8  C   UNL     1       4.186   5.124  18.581  0.00  0.00    +0.000 A 
ATOM      9  C   UNL     1       4.675   4.671  17.354  0.00  0.00    +0.000 A 
ATOM     10  C   UNL     1       6.051   4.547  17.156  0.00  0.00    +0.000 A 
ATOM     11  C   UNL     1       6.922   4.867  18.184  0.00  0.00    +0.000 A 
ATOM     12  C   UNL     1       6.379   5.295  19.378  0.00  0.00    +0.000 A 
ATOM     13  N   UNL     1       5.050   5.422  19.593  0.00  0.00    +0.000 NA
ENDBRANCH   1   8
BRANCH   1  16
ATOM     14  C   UNL     1       1.357   8.260  20.879  0.00  0.00    +0.000 C 
ATOM     15  N   UNL     1       1.765   6.940  20.443  0.00  0.00    +0.000 NA
ATOM     16  C   UNL     1       2.266   6.699  19.276  0.00  0.00    +0.000 C 
BRANCH  16  17
ATOM     17  S   UNL     1       2.571   7.959  18.068  0.00  0.00    +0.000 S 
ATOM     18  H   UNL     1       3.889   8.096  18.224  0.00  0.00    +0.000 HD
ENDBRANCH  16  17
ENDBRANCH   1  16
TORSDOF 3
ENDMDL
MODEL 7
REMARK VINA RESULT:      -6.2      0.656      1.156
REMARK  Name = 
REMARK  4 active torsions:
REMARK  status: ('A' for Active; 'I' for Inactive)
REMARK    1  A    between atoms: C_1  and  N_2
REMARK    2  A    between atoms: C_3  and  S_4
REMARK    3  A    between atoms: C_3  and  C_5
REMARK    4  A    between atoms: C_5  and  C_6
REMARK                            x       y       z     vdW  Elec       q    Type
REMARK                         _______ _______ _______ _____ _____    ______ ____
ROOT
ATOM      1  C   UNL     1       4.851   4.664  17.978  0.00  0.00    +0.000 C 
ATOM      2  C   UNL     1       4.860   4.420  16.423  0.00  0.00    +0.000 C 
ATOM      3  C   UNL     1       5.383   5.596  15.584  0.00  0.00    +0.000 C 
ATOM      4  C   UNL     1       6.826   5.959  15.922  0.00  0.00    +0.000 C 
ATOM      5  C   UNL     1       7.011   6.286  17.393  0.00  0.00    +0.000 C 
ATOM      6  S   UNL     1       6.658   4.839  18.427  0.00  0.00    +0.000 S 
ATOM      7  O   UNL     1       6.835   5.237  19.934  0.00  0.00    +0.000 OA
ENDROOT
BRANCH   1   8
ATOM      8  C   UNL     1       3.942   5.863  18.311  0.00  0.00    +0.000 A 
ATOM      9  C   UNL     1       3.174   5.959  19.473  0.00  0.00    +0.000 A 
ATOM     10  C   UNL     1       2.330   7.054  19.662  0.00  0.00    +0.000 A 
ATOM     11  C   UNL     1       2.256   8.036  18.689  0.00  0.00    +0.000 A 
ATOM     12  C   UNL     1       3.027   7.879  17.555  0.00  0.00    +0.000 A 
ATOM     13  N   UNL     1       3.849   6.827  17.349  0.00  0.00    +0.000 NA
ENDBRANCH   1   8
BRANCH   1  16
ATOM     14  C   UNL     1       4.568   1.784  20.507  0.00  0.00    +0.000 C 
ATOM     15  N   UNL     1       4.943   2.976  19.773  0.00  0.00    +0.000 NA
ATOM     16  C   UNL     1       4.371   3.346  18.675  0.00  0.00    +0.000 C 
BRANCH  16  17
ATOM     17  S   UNL     1       3.013   2.475  17.942  0.00  0.00    +0.000 S 
ATOM     18  H   UNL     1       3.594   1.291  17.746  0.00  0.00    +0.000 HD
ENDBRANCH  16  17
ENDBRANCH   1  16
TORSDOF 3
ENDMDL
MODEL 8
REMARK VINA RESULT:      -6.2      2.608      4.813
REMARK  Name = 
REMARK  4 active torsions:
REMARK  status: ('A' for Active; 'I' for Inactive)
REMARK    1  A    between atoms: C_1  and  N_2
REMARK    2  A    between atoms: C_3  and  S_4
REMARK    3  A    between atoms: C_3  and  C_5
REMARK    4  A    between atoms: C_5  and  C_6
REMARK                            x       y       z     vdW  Elec       q    Type
REMARK                         _______ _______ _______ _____ _____    ______ ____
ROOT
ATOM      1  C   UNL     1       2.596   5.201  18.956  0.00  0.00    +0.000 C 
ATOM      2  C   UNL     1       1.738   4.743  17.718  0.00  0.00    +0.000 C 
ATOM      3  C   UNL     1       1.910   3.271  17.317  0.00  0.00    +0.000 C 
ATOM      4  C   UNL     1       1.513   2.310  18.434  0.00  0.00    +0.000 C 
ATOM      5  C   UNL     1       2.286   2.562  19.716  0.00  0.00    +0.000 C 
ATOM      6  S   UNL     1       1.912   4.206  20.384  0.00  0.00    +0.000 S 
ATOM      7  O   UNL     1       2.755   4.427  21.688  0.00  0.00    +0.000 OA
ENDROOT
BRANCH   1   8
ATOM      8  C   UNL     1       4.095   5.016  18.646  0.00  0.00    +0.000 A 
ATOM      9  C   UNL     1       5.118   5.314  19.547  0.00  0.00    +0.000 A 
ATOM     10  C   UNL     1       6.452   5.174  19.159  0.00  0.00    +0.000 A 
ATOM     11  C   UNL     1       6.749   4.747  17.875  0.00  0.00    +0.000 A 
ATOM     12  C   UNL     1       5.695   4.481  17.025  0.00  0.00    +0.000 A 
ATOM     13  N   UNL     1       4.396   4.611  17.378  0.00  0.00    +0.000 NA
ENDBRANCH   1   8
BRANCH   1  16
ATOM     14  C   UNL     1       1.386   8.329  20.831  0.00  0.00    +0.000 C 
ATOM     15  N   UNL     1       1.739   6.983  20.429  0.00  0.00    +0.000 NA
ATOM     16  C   UNL     1       2.237   6.692  19.273  0.00  0.00    +0.000 C 
BRANCH  16  17
ATOM     17  S   UNL     1       2.608   7.908  18.038  0.00  0.00    +0.000 S 
ATOM     18  H   UNL     1       2.828   7.103  16.998  0.00  0.00    +0.000 HD
ENDBRANCH  16  17
ENDBRANCH   1  16
TORSDOF 3
ENDMDL
MODEL 9
REMARK VINA RESULT:      -6.1      2.404      4.181
REMARK  Name = 
REMARK  4 active torsions:
REMARK  status: ('A' for Active; 'I' for Inactive)
REMARK    1  A    between atoms: C_1  and  N_2
REMARK    2  A    between atoms: C_3  and  S_4
REMARK    3  A    between atoms: C_3  and  C_5
REMARK    4  A    between atoms: C_5  and  C_6
REMARK                            x       y       z     vdW  Elec       q    Type
REMARK                         _______ _______ _______ _____ _____    ______ ____
ROOT
ATOM      1  C   UNL     1       3.637   3.946  19.206  0.00  0.00    +0.000 C 
ATOM      2  C   UNL     1       3.360   5.263  20.021  0.00  0.00    +0.000 C 
ATOM      3  C   UNL     1       3.032   6.498  19.169  0.00  0.00    +0.000 C 
ATOM      4  C   UNL     1       1.782   6.306  18.317  0.00  0.00    +0.000 C 
ATOM      5  C   UNL     1       1.882   5.094  17.407  0.00  0.00    +0.000 C 
ATOM      6  S   UNL     1       2.005   3.566  18.375  0.00  0.00    +0.000 S 
ATOM      7  O   UNL     1       2.136   2.352  17.391  0.00  0.00    +0.000 OA
ENDROOT
BRANCH   1   8
ATOM      8  C   UNL     1       4.849   4.155  18.276  0.00  0.00    +0.000 A 
ATOM      9  C   UNL     1       4.859   3.816  16.923  0.00  0.00    +0.000 A 
ATOM     10  C   UNL     1       6.023   3.984  16.170  0.00  0.00    +0.000 A 
ATOM     11  C   UNL     1       7.164   4.481  16.778  0.00  0.00    +0.000 A 
ATOM     12  C   UNL     1       7.097   4.785  18.123  0.00  0.00    +0.000 A 
ATOM     13  N   UNL     1       5.982   4.629  18.871  0.00  0.00    +0.000 NA
ENDBRANCH   1   8
BRANCH   1  16
ATOM     14  C   UNL     1       5.289   1.015  21.063  0.00  0.00    +0.000 C 
ATOM     15  N   UNL     1       4.967   2.102  20.161  0.00  0.00    +0.000 NA
ATOM     16  C   UNL     1       3.870   2.781  20.226  0.00  0.00    +0.000 C 
BRANCH  16  17
ATOM     17  S   UNL     1       2.630   2.511  21.464  0.00  0.00    +0.000 S 
ATOM     18  H   UNL     1       2.697   1.182  21.554  0.00  0.00    +0.000 HD
ENDBRANCH  16  17
ENDBRANCH   1  16
TORSDOF 3
ENDMDL
