MODEL 1
REMARK VINA RESULT:     -10.2      0.000      0.000
REMARK  Name = 
REMARK  4 active torsions:
REMARK  status: ('A' for Active; 'I' for Inactive)
REMARK    1  A    between atoms: N_9  and  C_10
REMARK    2  A    between atoms: C_10  and  C_11
REMARK    3  A    between atoms: C_11  and  C_12
REMARK    4  A    between atoms: C_27  and  C_28
REMARK                            x       y       z     vdW  Elec       q    Type
REMARK                         _______ _______ _______ _____ _____    ______ ____
ROOT
ATOM      1  N   UNL     1       0.534   9.284  22.960  0.00  0.00    +0.000 N 
ATOM      2  C   UNL     1       0.948   9.009  21.678  0.00  0.00    +0.000 A 
ATOM      3  N   UNL     1       1.260   7.811  21.297  0.00  0.00    +0.000 NA
ATOM      4  C   UNL     1       1.693   7.589  19.997  0.00  0.00    +0.000 A 
ATOM      5  N   UNL     1       2.050   6.293  19.677  0.00  0.00    +0.000 N 
ATOM      6  C   UNL     1       2.386   5.348  20.736  0.00  0.00    +0.000 C 
ATOM      7  C   UNL     1       1.359   4.234  20.875  0.00  0.00    +0.000 C 
ATOM      8  C   UNL     1       0.877   3.531  19.603  0.00  0.00    +0.000 C 
ATOM      9  N   UNL     1       1.741   3.471  18.424  0.00  0.00    +0.000 NA
ATOM     10  C   UNL     1       1.749   4.764  17.709  0.00  0.00    +0.000 C 
ATOM     11  C   UNL     1       2.527   5.943  18.330  0.00  0.00    +0.000 C 
ATOM     12  N   UNL     1       1.773   8.536  19.098  0.00  0.00    +0.000 NA
ATOM     13  C   UNL     1       1.423   9.786  19.471  0.00  0.00    +0.000 A 
ATOM     14  N   UNL     1       1.364  10.914  18.799  0.00  0.00    +0.000 NA
ATOM     15  C   UNL     1       0.889  11.816  19.729  0.00  0.00    +0.000 A 
ATOM     16  N   UNL     1       0.662  11.309  20.952  0.00  0.00    +0.000 NA
ATOM     17  N   UNL     1       1.024  10.031  20.745  0.00  0.00    +0.000 N 
ATOM     18  H   UNL     1       0.190   8.487  23.480  0.00  0.00    +0.000 HD
ATOM     19  H   UNL     1       0.014  10.148  23.079  0.00  0.00    +0.000 HD
ENDROOT
BRANCH  15  20
ATOM     20  C   UNL     1       0.625  13.240  19.379  0.00  0.00    +0.000 A 
ATOM     21  C   UNL     1       1.594  14.183  19.090  0.00  0.00    +0.000 A 
ATOM     22  C   UNL     1       0.915  15.392  18.807  0.00  0.00    +0.000 A 
ATOM     23  C   UNL     1      -0.425  15.116  18.941  0.00  0.00    +0.000 A 
ATOM     24  O   UNL     1      -0.612  13.816  19.283  0.00  0.00    +0.000 OA
ENDBRANCH  15  20
BRANCH   9  25
ATOM     25  C   UNL     1       3.083   2.910  18.607  0.00  0.00    +0.000 C 
BRANCH  25  26
ATOM     26  C   UNL     1       3.995   2.989  17.373  0.00  0.00    +0.000 C 
BRANCH  26  27
ATOM     27  C   UNL     1       5.117   3.970  17.600  0.00  0.00    +0.000 A 
ATOM     28  C   UNL     1       5.456   4.387  18.899  0.00  0.00    +0.000 A 
ATOM     29  C   UNL     1       6.532   5.267  19.127  0.00  0.00    +0.000 A 
ATOM     30  C   UNL     1       7.300   5.747  18.067  0.00  0.00    +0.000 A 
ATOM     31  C   UNL     1       6.959   5.328  16.800  0.00  0.00    +0.000 A 
ATOM     32  C   UNL     1       5.895   4.459  16.556  0.00  0.00    +0.000 A 
ATOM     33  C   UNL     1       5.810   4.202  15.077  0.00  0.00    +0.000 C 
ATOM     34  C   UNL     1       6.966   5.044  14.528  0.00  0.00    +0.000 C 
ATOM     35  O   UNL     1       7.295   5.151  13.357  0.00  0.00    +0.000 OA
ATOM     36  N   UNL     1       7.578   5.666  15.607  0.00  0.00    +0.000 N 
ATOM     37  H   UNL     1       8.374   6.276  15.508  0.00  0.00    +0.000 HD
ENDBRANCH  26  27
ENDBRANCH  25  26
ENDBRANCH   9  25
TORSDOF 4
ENDMDL
MODEL 2
REMARK VINA RESULT:      -9.4      3.411      9.388
REMARK  Name = 
REMARK  4 active torsions:
REMARK  status: ('A' for Active; 'I' for Inactive)
REMARK    1  A    between atoms: N_9  and  C_10
REMARK    2  A    between atoms: C_10  and  C_11
REMARK    3  A    between atoms: C_11  and  C_12
REMARK    4  A    between atoms: C_27  and  C_28
REMARK                            x       y       z     vdW  Elec       q    Type
REMARK                         _______ _______ _______ _____ _____    ______ ____
ROOT
ATOM      1  N   UNL     1       2.390   4.900  21.201  0.00  0.00    +0.000 N 
ATOM      2  C   UNL     1       2.273   6.028  20.423  0.00  0.00    +0.000 A 
ATOM      3  N   UNL     1       1.492   7.009  20.745  0.00  0.00    +0.000 NA
ATOM      4  C   UNL     1       1.394   8.117  19.914  0.00  0.00    +0.000 A 
ATOM      5  N   UNL     1       0.506   9.103  20.300  0.00  0.00    +0.000 N 
ATOM      6  C   UNL     1      -0.565   8.791  21.239  0.00  0.00    +0.000 C 
ATOM      7  C   UNL     1      -0.383   9.474  22.585  0.00  0.00    +0.000 C 
ATOM      8  C   UNL     1      -0.017  10.961  22.598  0.00  0.00    +0.000 C 
ATOM      9  N   UNL     1      -0.405  11.824  21.482  0.00  0.00    +0.000 NA
ATOM     10  C   UNL     1       0.482  11.613  20.320  0.00  0.00    +0.000 C 
ATOM     11  C   UNL     1       0.319  10.319  19.494  0.00  0.00    +0.000 C 
ATOM     12  N   UNL     1       2.090   8.251  18.814  0.00  0.00    +0.000 NA
ATOM     13  C   UNL     1       2.933   7.250  18.480  0.00  0.00    +0.000 A 
ATOM     14  N   UNL     1       3.773   7.112  17.479  0.00  0.00    +0.000 NA
ATOM     15  C   UNL     1       4.372   5.894  17.728  0.00  0.00    +0.000 A 
ATOM     16  N   UNL     1       3.937   5.258  18.829  0.00  0.00    +0.000 NA
ATOM     17  N   UNL     1       3.023   6.144  19.263  0.00  0.00    +0.000 N 
ATOM     18  H   UNL     1       2.090   5.009  22.161  0.00  0.00    +0.000 HD
ATOM     19  H   UNL     1       3.233   4.352  21.059  0.00  0.00    +0.000 HD
ENDROOT
BRANCH  15  20
ATOM     20  C   UNL     1       5.443   5.349  16.847  0.00  0.00    +0.000 A 
ATOM     21  C   UNL     1       5.429   5.377  15.465  0.00  0.00    +0.000 A 
ATOM     22  C   UNL     1       6.631   4.768  15.032  0.00  0.00    +0.000 A 
ATOM     23  C   UNL     1       7.305   4.405  16.174  0.00  0.00    +0.000 A 
ATOM     24  O   UNL     1       6.597   4.755  17.278  0.00  0.00    +0.000 OA
ENDBRANCH  15  20
BRANCH   9  25
ATOM     25  C   UNL     1      -1.826  11.850  21.121  0.00  0.00    +0.000 C 
BRANCH  25  26
ATOM     26  C   UNL     1      -2.163  12.676  19.870  0.00  0.00    +0.000 C 
BRANCH  26  27
ATOM     27  C   UNL     1      -3.442  12.187  19.237  0.00  0.00    +0.000 A 
ATOM     28  C   UNL     1      -4.672  12.319  19.905  0.00  0.00    +0.000 A 
ATOM     29  C   UNL     1      -5.878  11.909  19.304  0.00  0.00    +0.000 A 
ATOM     30  C   UNL     1      -5.888  11.363  18.021  0.00  0.00    +0.000 A 
ATOM     31  C   UNL     1      -4.676  11.242  17.377  0.00  0.00    +0.000 A 
ATOM     32  C   UNL     1      -3.472  11.642  17.958  0.00  0.00    +0.000 A 
ATOM     33  C   UNL     1      -2.356  11.382  16.985  0.00  0.00    +0.000 C 
ATOM     34  C   UNL     1      -3.096  10.784  15.784  0.00  0.00    +0.000 C 
ATOM     35  O   UNL     1      -2.597  10.412  14.735  0.00  0.00    +0.000 OA
ATOM     36  N   UNL     1      -4.445  10.740  16.106  0.00  0.00    +0.000 N 
ATOM     37  H   UNL     1      -5.147  10.388  15.475  0.00  0.00    +0.000 HD
ENDBRANCH  26  27
ENDBRANCH  25  26
ENDBRANCH   9  25
TORSDOF 4
ENDMDL
MODEL 3
REMARK VINA RESULT:      -9.1      3.648     10.567
REMARK  Name = 
REMARK  4 active torsions:
REMARK  status: ('A' for Active; 'I' for Inactive)
REMARK    1  A    between atoms: N_9  and  C_10
REMARK    2  A    between atoms: C_10  and  C_11
REMARK    3  A    between atoms: C_11  and  C_12
REMARK    4  A    between atoms: C_27  and  C_28
REMARK                            x       y       z     vdW  Elec       q    Type
REMARK                         _______ _______ _______ _____ _____    ______ ____
ROOT
ATOM      1  N   UNL     1       2.298   5.761  20.931  0.00  0.00    +0.000 N 
ATOM      2  C   UNL     1       2.232   6.790  20.022  0.00  0.00    +0.000 A 
ATOM      3  N   UNL     1       1.524   7.853  20.234  0.00  0.00    +0.000 NA
ATOM      4  C   UNL     1       1.474   8.854  19.274  0.00  0.00    +0.000 A 
ATOM      5  N   UNL     1       0.662   9.937  19.551  0.00  0.00    +0.000 N 
ATOM      6  C   UNL     1      -0.402   9.814  20.541  0.00  0.00    +0.000 C 
ATOM      7  C   UNL     1      -0.140  10.645  21.788  0.00  0.00    +0.000 C 
ATOM      8  C   UNL     1       0.320  12.094  21.610  0.00  0.00    +0.000 C 
ATOM      9  N   UNL     1      -0.043  12.837  20.403  0.00  0.00    +0.000 NA
ATOM     10  C   UNL     1       0.798  12.426  19.259  0.00  0.00    +0.000 C 
ATOM     11  C   UNL     1       0.530  11.054  18.604  0.00  0.00    +0.000 C 
ATOM     12  N   UNL     1       2.148   8.806  18.153  0.00  0.00    +0.000 NA
ATOM     13  C   UNL     1       2.915   7.717  17.930  0.00  0.00    +0.000 A 
ATOM     14  N   UNL     1       3.718   7.402  16.938  0.00  0.00    +0.000 NA
ATOM     15  C   UNL     1       4.245   6.187  17.325  0.00  0.00    +0.000 A 
ATOM     16  N   UNL     1       3.800   5.722  18.505  0.00  0.00    +0.000 NA
ATOM     17  N   UNL     1       2.957   6.713  18.842  0.00  0.00    +0.000 N 
ATOM     18  H   UNL     1       2.032   6.006  21.876  0.00  0.00    +0.000 HD
ATOM     19  H   UNL     1       3.101   5.144  20.843  0.00  0.00    +0.000 HD
ENDROOT
BRANCH  15  20
ATOM     20  C   UNL     1       5.255   5.468  16.499  0.00  0.00    +0.000 A 
ATOM     21  C   UNL     1       5.150   4.157  16.074  0.00  0.00    +0.000 A 
ATOM     22  C   UNL     1       6.311   3.880  15.315  0.00  0.00    +0.000 A 
ATOM     23  C   UNL     1       7.055   5.036  15.322  0.00  0.00    +0.000 A 
ATOM     24  O   UNL     1       6.423   6.005  16.031  0.00  0.00    +0.000 OA
ENDBRANCH  15  20
BRANCH   9  25
ATOM     25  C   UNL     1      -1.468  12.912  20.068  0.00  0.00    +0.000 C 
BRANCH  25  26
ATOM     26  C   UNL     1      -2.219  14.102  20.686  0.00  0.00    +0.000 C 
BRANCH  26  27
ATOM     27  C   UNL     1      -3.087  13.647  21.833  0.00  0.00    +0.000 A 
ATOM     28  C   UNL     1      -2.675  13.830  23.164  0.00  0.00    +0.000 A 
ATOM     29  C   UNL     1      -3.497  13.452  24.243  0.00  0.00    +0.000 A 
ATOM     30  C   UNL     1      -4.753  12.887  24.021  0.00  0.00    +0.000 A 
ATOM     31  C   UNL     1      -5.145  12.717  22.712  0.00  0.00    +0.000 A 
ATOM     32  C   UNL     1      -4.343  13.085  21.632  0.00  0.00    +0.000 A 
ATOM     33  C   UNL     1      -5.075  12.773  20.357  0.00  0.00    +0.000 C 
ATOM     34  C   UNL     1      -6.393  12.182  20.868  0.00  0.00    +0.000 C 
ATOM     35  O   UNL     1      -7.322  11.779  20.186  0.00  0.00    +0.000 OA
ATOM     36  N   UNL     1      -6.342  12.188  22.255  0.00  0.00    +0.000 N 
ATOM     37  H   UNL     1      -7.097  11.851  22.832  0.00  0.00    +0.000 HD
ENDBRANCH  26  27
ENDBRANCH  25  26
ENDBRANCH   9  25
TORSDOF 4
ENDMDL
MODEL 4
REMARK VINA RESULT:      -8.9      3.851     10.730
REMARK  Name = 
REMARK  4 active torsions:
REMARK  status: ('A' for Active; 'I' for Inactive)
REMARK    1  A    between atoms: N_9  and  C_10
REMARK    2  A    between atoms: C_10  and  C_11
REMARK    3  A    between atoms: C_11  and  C_12
REMARK    4  A    between atoms: C_27  and  C_28
REMARK                            x       y       z     vdW  Elec       q    Type
REMARK                         _______ _______ _______ _____ _____    ______ ____
ROOT
ATOM      1  N   UNL     1       2.161   5.849  21.024  0.00  0.00    +0.000 N 
ATOM      2  C   UNL     1       2.156   6.849  20.080  0.00  0.00    +0.000 A 
ATOM      3  N   UNL     1       1.464   7.933  20.228  0.00  0.00    +0.000 NA
ATOM      4  C   UNL     1       1.477   8.904  19.236  0.00  0.00    +0.000 A 
ATOM      5  N   UNL     1       0.679  10.012  19.444  0.00  0.00    +0.000 N 
ATOM      6  C   UNL     1      -0.428   9.945  20.391  0.00  0.00    +0.000 C 
ATOM      7  C   UNL     1      -0.199  10.810  21.621  0.00  0.00    +0.000 C 
ATOM      8  C   UNL     1       0.301  12.242  21.416  0.00  0.00    +0.000 C 
ATOM      9  N   UNL     1       0.007  12.953  20.172  0.00  0.00    +0.000 NA
ATOM     10  C   UNL     1       0.884  12.487  19.078  0.00  0.00    +0.000 C 
ATOM     11  C   UNL     1       0.613  11.101  18.457  0.00  0.00    +0.000 C 
ATOM     12  N   UNL     1       2.196   8.804  18.147  0.00  0.00    +0.000 NA
ATOM     13  C   UNL     1       2.947   7.693  17.991  0.00  0.00    +0.000 A 
ATOM     14  N   UNL     1       3.783   7.328  17.045  0.00  0.00    +0.000 NA
ATOM     15  C   UNL     1       4.266   6.115  17.492  0.00  0.00    +0.000 A 
ATOM     16  N   UNL     1       3.761   5.698  18.666  0.00  0.00    +0.000 NA
ATOM     17  N   UNL     1       2.928   6.718  18.936  0.00  0.00    +0.000 N 
ATOM     18  H   UNL     1       1.861   6.131  21.949  0.00  0.00    +0.000 HD
ATOM     19  H   UNL     1       2.951   5.213  20.990  0.00  0.00    +0.000 HD
ENDROOT
BRANCH  15  20
ATOM     20  C   UNL     1       5.293   5.348  16.733  0.00  0.00    +0.000 A 
ATOM     21  C   UNL     1       5.044   4.223  15.969  0.00  0.00    +0.000 A 
ATOM     22  C   UNL     1       6.284   3.821  15.419  0.00  0.00    +0.000 A 
ATOM     23  C   UNL     1       7.214   4.722  15.879  0.00  0.00    +0.000 A 
ATOM     24  O   UNL     1       6.625   5.653  16.671  0.00  0.00    +0.000 OA
ENDBRANCH  15  20
BRANCH   9  25
ATOM     25  C   UNL     1      -1.402  13.048  19.775  0.00  0.00    +0.000 C 
BRANCH  25  26
ATOM     26  C   UNL     1      -2.393  13.234  20.934  0.00  0.00    +0.000 C 
BRANCH  26  27
ATOM     27  C   UNL     1      -3.761  12.726  20.553  0.00  0.00    +0.000 A 
ATOM     28  C   UNL     1      -4.004  12.206  19.270  0.00  0.00    +0.000 A 
ATOM     29  C   UNL     1      -5.264  11.686  18.918  0.00  0.00    +0.000 A 
ATOM     30  C   UNL     1      -6.312  11.665  19.839  0.00  0.00    +0.000 A 
ATOM     31  C   UNL     1      -6.059  12.176  21.093  0.00  0.00    +0.000 A 
ATOM     32  C   UNL     1      -4.817  12.696  21.457  0.00  0.00    +0.000 A 
ATOM     33  C   UNL     1      -4.885  13.152  22.888  0.00  0.00    +0.000 C 
ATOM     34  C   UNL     1      -6.329  12.817  23.274  0.00  0.00    +0.000 C 
ATOM     35  O   UNL     1      -6.854  13.009  24.359  0.00  0.00    +0.000 OA
ATOM     36  N   UNL     1      -6.937  12.253  22.162  0.00  0.00    +0.000 N 
ATOM     37  H   UNL     1      -7.896  11.941  22.162  0.00  0.00    +0.000 HD
ENDBRANCH  26  27
ENDBRANCH  25  26
ENDBRANCH   9  25
TORSDOF 4
ENDMDL
MODEL 5
REMARK VINA RESULT:      -8.9      3.418     10.617
REMARK  Name = 
REMARK  4 active torsions:
REMARK  status: ('A' for Active; 'I' for Inactive)
REMARK    1  A    between atoms: N_9  and  C_10
REMARK    2  A    between atoms: C_10  and  C_11
REMARK    3  A    between atoms: C_11  and  C_12
REMARK    4  A    between atoms: C_27  and  C_28
REMARK                            x       y       z     vdW  Elec       q    Type
REMARK                         _______ _______ _______ _____ _____    ______ ____
ROOT
ATOM      1  N   UNL     1       2.350   5.602  20.956  0.00  0.00    +0.000 N 
ATOM      2  C   UNL     1       2.260   6.648  20.068  0.00  0.00    +0.000 A 
ATOM      3  N   UNL     1       1.544   7.698  20.311  0.00  0.00    +0.000 NA
ATOM      4  C   UNL     1       1.470   8.718  19.373  0.00  0.00    +0.000 A 
ATOM      5  N   UNL     1       0.650   9.787  19.683  0.00  0.00    +0.000 N 
ATOM      6  C   UNL     1      -0.398   9.633  20.686  0.00  0.00    +0.000 C 
ATOM      7  C   UNL     1      -0.126  10.441  21.945  0.00  0.00    +0.000 C 
ATOM      8  C   UNL     1       0.316  11.898  21.789  0.00  0.00    +0.000 C 
ATOM      9  N   UNL     1      -0.072  12.661  20.603  0.00  0.00    +0.000 NA
ATOM     10  C   UNL     1       0.756  12.282  19.439  0.00  0.00    +0.000 C 
ATOM     11  C   UNL     1       0.494  10.921  18.761  0.00  0.00    +0.000 C 
ATOM     12  N   UNL     1       2.127   8.699  18.242  0.00  0.00    +0.000 NA
ATOM     13  C   UNL     1       2.903   7.624  17.986  0.00  0.00    +0.000 A 
ATOM     14  N   UNL     1       3.695   7.337  16.976  0.00  0.00    +0.000 NA
ATOM     15  C   UNL     1       4.240   6.120  17.332  0.00  0.00    +0.000 A 
ATOM     16  N   UNL     1       3.817   5.627  18.508  0.00  0.00    +0.000 NA
ATOM     17  N   UNL     1       2.968   6.602  18.877  0.00  0.00    +0.000 N 
ATOM     18  H   UNL     1       2.095   5.825  21.909  0.00  0.00    +0.000 HD
ATOM     19  H   UNL     1       3.157   4.995  20.844  0.00  0.00    +0.000 HD
ENDROOT
BRANCH  15  20
ATOM     20  C   UNL     1       5.245   5.429  16.477  0.00  0.00    +0.000 A 
ATOM     21  C   UNL     1       5.292   4.067  16.244  0.00  0.00    +0.000 A 
ATOM     22  C   UNL     1       6.386   3.839  15.377  0.00  0.00    +0.000 A 
ATOM     23  C   UNL     1       6.942   5.072  15.133  0.00  0.00    +0.000 A 
ATOM     24  O   UNL     1       6.257   6.042  15.790  0.00  0.00    +0.000 OA
ENDBRANCH  15  20
BRANCH   9  25
ATOM     25  C   UNL     1      -1.503  12.728  20.290  0.00  0.00    +0.000 C 
BRANCH  25  26
ATOM     26  C   UNL     1      -2.168  14.084  20.577  0.00  0.00    +0.000 C 
BRANCH  26  27
ATOM     27  C   UNL     1      -2.062  14.430  22.041  0.00  0.00    +0.000 A 
ATOM     28  C   UNL     1      -1.131  15.382  22.490  0.00  0.00    +0.000 A 
ATOM     29  C   UNL     1      -1.056  15.747  23.848  0.00  0.00    +0.000 A 
ATOM     30  C   UNL     1      -1.910  15.176  24.791  0.00  0.00    +0.000 A 
ATOM     31  C   UNL     1      -2.820  14.247  24.336  0.00  0.00    +0.000 A 
ATOM     32  C   UNL     1      -2.907  13.873  22.995  0.00  0.00    +0.000 A 
ATOM     33  C   UNL     1      -4.004  12.855  22.848  0.00  0.00    +0.000 C 
ATOM     34  C   UNL     1      -4.518  12.711  24.284  0.00  0.00    +0.000 C 
ATOM     35  O   UNL     1      -5.422  11.984  24.662  0.00  0.00    +0.000 OA
ATOM     36  N   UNL     1      -3.765  13.561  25.082  0.00  0.00    +0.000 N 
ATOM     37  H   UNL     1      -3.913  13.652  26.075  0.00  0.00    +0.000 HD
ENDBRANCH  26  27
ENDBRANCH  25  26
ENDBRANCH   9  25
TORSDOF 4
ENDMDL
MODEL 6
REMARK VINA RESULT:      -8.8      1.457      2.100
REMARK  Name = 
REMARK  4 active torsions:
REMARK  status: ('A' for Active; 'I' for Inactive)
REMARK    1  A    between atoms: N_9  and  C_10
REMARK    2  A    between atoms: C_10  and  C_11
REMARK    3  A    between atoms: C_11  and  C_12
REMARK    4  A    between atoms: C_27  and  C_28
REMARK                            x       y       z     vdW  Elec       q    Type
REMARK                         _______ _______ _______ _____ _____    ______ ____
ROOT
ATOM      1  N   UNL     1       0.397   9.399  22.983  0.00  0.00    +0.000 N 
ATOM      2  C   UNL     1       0.866   9.160  21.713  0.00  0.00    +0.000 A 
ATOM      3  N   UNL     1       1.217   7.978  21.319  0.00  0.00    +0.000 NA
ATOM      4  C   UNL     1       1.704   7.794  20.032  0.00  0.00    +0.000 A 
ATOM      5  N   UNL     1       2.101   6.513  19.698  0.00  0.00    +0.000 N 
ATOM      6  C   UNL     1       2.417   5.552  20.749  0.00  0.00    +0.000 C 
ATOM      7  C   UNL     1       1.410   4.414  20.825  0.00  0.00    +0.000 C 
ATOM      8  C   UNL     1       0.992   3.729  19.521  0.00  0.00    +0.000 C 
ATOM      9  N   UNL     1       1.901   3.713  18.375  0.00  0.00    +0.000 NA
ATOM     10  C   UNL     1       1.907   5.022  17.689  0.00  0.00    +0.000 C 
ATOM     11  C   UNL     1       2.636   6.203  18.364  0.00  0.00    +0.000 C 
ATOM     12  N   UNL     1       1.797   8.761  19.157  0.00  0.00    +0.000 NA
ATOM     13  C   UNL     1       1.407   9.995  19.542  0.00  0.00    +0.000 A 
ATOM     14  N   UNL     1       1.348  11.136  18.893  0.00  0.00    +0.000 NA
ATOM     15  C   UNL     1       0.819  12.008  19.822  0.00  0.00    +0.000 A 
ATOM     16  N   UNL     1       0.557  11.469  21.026  0.00  0.00    +0.000 NA
ATOM     17  N   UNL     1       0.954  10.204  20.805  0.00  0.00    +0.000 N 
ATOM     18  H   UNL     1       0.052   8.583  23.473  0.00  0.00    +0.000 HD
ATOM     19  H   UNL     1      -0.146  10.249  23.101  0.00  0.00    +0.000 HD
ENDROOT
BRANCH  15  20
ATOM     20  C   UNL     1       0.537  13.434  19.494  0.00  0.00    +0.000 A 
ATOM     21  C   UNL     1      -0.722  13.997  19.402  0.00  0.00    +0.000 A 
ATOM     22  C   UNL     1      -0.536  15.362  19.082  0.00  0.00    +0.000 A 
ATOM     23  C   UNL     1       0.823  15.550  18.996  0.00  0.00    +0.000 A 
ATOM     24  O   UNL     1       1.482  14.391  19.247  0.00  0.00    +0.000 OA
ENDBRANCH  15  20
BRANCH   9  25
ATOM     25  C   UNL     1       3.247   3.176  18.597  0.00  0.00    +0.000 C 
BRANCH  25  26
ATOM     26  C   UNL     1       3.975   2.700  17.330  0.00  0.00    +0.000 C 
BRANCH  26  27
ATOM     27  C   UNL     1       4.899   3.774  16.811  0.00  0.00    +0.000 A 
ATOM     28  C   UNL     1       4.852   4.173  15.464  0.00  0.00    +0.000 A 
ATOM     29  C   UNL     1       5.677   5.206  14.979  0.00  0.00    +0.000 A 
ATOM     30  C   UNL     1       6.564   5.871  15.825  0.00  0.00    +0.000 A 
ATOM     31  C   UNL     1       6.596   5.471  17.143  0.00  0.00    +0.000 A 
ATOM     32  C   UNL     1       5.788   4.449  17.640  0.00  0.00    +0.000 A 
ATOM     33  C   UNL     1       6.068   4.280  19.107  0.00  0.00    +0.000 C 
ATOM     34  C   UNL     1       7.140   5.344  19.364  0.00  0.00    +0.000 C 
ATOM     35  O   UNL     1       7.684   5.586  20.430  0.00  0.00    +0.000 OA
ATOM     36  N   UNL     1       7.385   5.987  18.159  0.00  0.00    +0.000 N 
ATOM     37  H   UNL     1       8.053   6.736  18.064  0.00  0.00    +0.000 HD
ENDBRANCH  26  27
ENDBRANCH  25  26
ENDBRANCH   9  25
TORSDOF 4
ENDMDL
MODEL 7
REMARK VINA RESULT:      -8.7      3.532     10.135
REMARK  Name = 
REMARK  4 active torsions:
REMARK  status: ('A' for Active; 'I' for Inactive)
REMARK    1  A    between atoms: N_9  and  C_10
REMARK    2  A    between atoms: C_10  and  C_11
REMARK    3  A    between atoms: C_11  and  C_12
REMARK    4  A    between atoms: C_27  and  C_28
REMARK                            x       y       z     vdW  Elec       q    Type
REMARK                         _______ _______ _______ _____ _____    ______ ____
ROOT
ATOM      1  N   UNL     1       2.580   4.861  20.919  0.00  0.00    +0.000 N 
ATOM      2  C   UNL     1       2.419   6.001  20.167  0.00  0.00    +0.000 A 
ATOM      3  N   UNL     1       1.661   6.978  20.551  0.00  0.00    +0.000 NA
ATOM      4  C   UNL     1       1.516   8.099  19.745  0.00  0.00    +0.000 A 
ATOM      5  N   UNL     1       0.656   9.080  20.200  0.00  0.00    +0.000 N 
ATOM      6  C   UNL     1      -0.357   8.755  21.197  0.00  0.00    +0.000 C 
ATOM      7  C   UNL     1      -0.091   9.418  22.540  0.00  0.00    +0.000 C 
ATOM      8  C   UNL     1       0.279  10.903  22.554  0.00  0.00    +0.000 C 
ATOM      9  N   UNL     1      -0.174  11.784  21.477  0.00  0.00    +0.000 NA
ATOM     10  C   UNL     1       0.640  11.589  20.259  0.00  0.00    +0.000 C 
ATOM     11  C   UNL     1       0.423  10.309  19.426  0.00  0.00    +0.000 C 
ATOM     12  N   UNL     1       2.144   8.249  18.607  0.00  0.00    +0.000 NA
ATOM     13  C   UNL     1       2.962   7.252  18.207  0.00  0.00    +0.000 A 
ATOM     14  N   UNL     1       3.740   7.128  17.154  0.00  0.00    +0.000 NA
ATOM     15  C   UNL     1       4.350   5.906  17.348  0.00  0.00    +0.000 A 
ATOM     16  N   UNL     1       3.981   5.253  18.463  0.00  0.00    +0.000 NA
ATOM     17  N   UNL     1       3.098   6.134  18.965  0.00  0.00    +0.000 N 
ATOM     18  H   UNL     1       2.340   4.955  21.897  0.00  0.00    +0.000 HD
ATOM     19  H   UNL     1       3.412   4.313  20.718  0.00  0.00    +0.000 HD
ENDROOT
BRANCH  15  20
ATOM     20  C   UNL     1       5.364   5.373  16.395  0.00  0.00    +0.000 A 
ATOM     21  C   UNL     1       5.271   4.168  15.723  0.00  0.00    +0.000 A 
ATOM     22  C   UNL     1       6.431   4.057  14.922  0.00  0.00    +0.000 A 
ATOM     23  C   UNL     1       7.163   5.198  15.152  0.00  0.00    +0.000 A 
ATOM     24  O   UNL     1       6.524   6.003  16.038  0.00  0.00    +0.000 OA
ENDBRANCH  15  20
BRANCH   9  25
ATOM     25  C   UNL     1      -1.615  11.818  21.203  0.00  0.00    +0.000 C 
BRANCH  25  26
ATOM     26  C   UNL     1      -2.048  12.828  20.130  0.00  0.00    +0.000 C 
BRANCH  26  27
ATOM     27  C   UNL     1      -3.136  12.248  19.260  0.00  0.00    +0.000 A 
ATOM     28  C   UNL     1      -2.827  11.629  18.037  0.00  0.00    +0.000 A 
ATOM     29  C   UNL     1      -3.829  11.043  17.240  0.00  0.00    +0.000 A 
ATOM     30  C   UNL     1      -5.163  11.054  17.645  0.00  0.00    +0.000 A 
ATOM     31  C   UNL     1      -5.451  11.662  18.848  0.00  0.00    +0.000 A 
ATOM     32  C   UNL     1      -4.471  12.248  19.649  0.00  0.00    +0.000 A 
ATOM     33  C   UNL     1      -5.125  12.803  20.884  0.00  0.00    +0.000 C 
ATOM     34  C   UNL     1      -6.599  12.449  20.666  0.00  0.00    +0.000 C 
ATOM     35  O   UNL     1      -7.526  12.701  21.419  0.00  0.00    +0.000 OA
ATOM     36  N   UNL     1      -6.693  11.786  19.450  0.00  0.00    +0.000 N 
ATOM     37  H   UNL     1      -7.566  11.443  19.080  0.00  0.00    +0.000 HD
ENDBRANCH  26  27
ENDBRANCH  25  26
ENDBRANCH   9  25
TORSDOF 4
ENDMDL
MODEL 8
REMARK VINA RESULT:      -8.7      3.556     10.790
REMARK  Name = 
REMARK  4 active torsions:
REMARK  status: ('A' for Active; 'I' for Inactive)
REMARK    1  A    between atoms: N_9  and  C_10
REMARK    2  A    between atoms: C_10  and  C_11
REMARK    3  A    between atoms: C_11  and  C_12
REMARK    4  A    between atoms: C_27  and  C_28
REMARK                            x       y       z     vdW  Elec       q    Type
REMARK                         _______ _______ _______ _____ _____    ______ ____
ROOT
ATOM      1  N   UNL     1       2.263   5.679  21.012  0.00  0.00    +0.000 N 
ATOM      2  C   UNL     1       2.210   6.715  20.110  0.00  0.00    +0.000 A 
ATOM      3  N   UNL     1       1.505   7.780  20.324  0.00  0.00    +0.000 NA
ATOM      4  C   UNL     1       1.469   8.789  19.371  0.00  0.00    +0.000 A 
ATOM      5  N   UNL     1       0.660   9.874  19.650  0.00  0.00    +0.000 N 
ATOM      6  C   UNL     1      -0.412   9.750  20.630  0.00  0.00    +0.000 C 
ATOM      7  C   UNL     1      -0.156  10.570  21.886  0.00  0.00    +0.000 C 
ATOM      8  C   UNL     1       0.313  12.018  21.721  0.00  0.00    +0.000 C 
ATOM      9  N   UNL     1      -0.036  12.771  20.516  0.00  0.00    +0.000 NA
ATOM     10  C   UNL     1       0.811  12.364  19.376  0.00  0.00    +0.000 C 
ATOM     11  C   UNL     1       0.542  10.999  18.710  0.00  0.00    +0.000 C 
ATOM     12  N   UNL     1       2.151   8.745  18.255  0.00  0.00    +0.000 NA
ATOM     13  C   UNL     1       2.914   7.654  18.030  0.00  0.00    +0.000 A 
ATOM     14  N   UNL     1       3.723   7.342  17.043  0.00  0.00    +0.000 NA
ATOM     15  C   UNL     1       4.241   6.121  17.425  0.00  0.00    +0.000 A 
ATOM     16  N   UNL     1       3.784   5.649  18.598  0.00  0.00    +0.000 NA
ATOM     17  N   UNL     1       2.943   6.642  18.936  0.00  0.00    +0.000 N 
ATOM     18  H   UNL     1       1.991   5.919  21.957  0.00  0.00    +0.000 HD
ATOM     19  H   UNL     1       3.063   5.059  20.926  0.00  0.00    +0.000 HD
ENDROOT
BRANCH  15  20
ATOM     20  C   UNL     1       5.254   5.402  16.602  0.00  0.00    +0.000 A 
ATOM     21  C   UNL     1       5.004   4.283  15.830  0.00  0.00    +0.000 A 
ATOM     22  C   UNL     1       6.228   3.933  15.212  0.00  0.00    +0.000 A 
ATOM     23  C   UNL     1       7.149   4.857  15.643  0.00  0.00    +0.000 A 
ATOM     24  O   UNL     1       6.570   5.753  16.481  0.00  0.00    +0.000 OA
ENDBRANCH  15  20
BRANCH   9  25
ATOM     25  C   UNL     1      -1.459  12.857  20.171  0.00  0.00    +0.000 C 
BRANCH  25  26
ATOM     26  C   UNL     1      -2.161  14.146  20.625  0.00  0.00    +0.000 C 
BRANCH  26  27
ATOM     27  C   UNL     1      -3.190  13.846  21.687  0.00  0.00    +0.000 A 
ATOM     28  C   UNL     1      -4.361  13.136  21.374  0.00  0.00    +0.000 A 
ATOM     29  C   UNL     1      -5.306  12.810  22.366  0.00  0.00    +0.000 A 
ATOM     30  C   UNL     1      -5.104  13.179  23.696  0.00  0.00    +0.000 A 
ATOM     31  C   UNL     1      -3.950  13.872  23.988  0.00  0.00    +0.000 A 
ATOM     32  C   UNL     1      -3.004  14.204  23.018  0.00  0.00    +0.000 A 
ATOM     33  C   UNL     1      -1.873  14.943  23.678  0.00  0.00    +0.000 C 
ATOM     34  C   UNL     1      -2.312  14.979  25.145  0.00  0.00    +0.000 C 
ATOM     35  O   UNL     1      -1.702  15.483  26.074  0.00  0.00    +0.000 OA
ATOM     36  N   UNL     1      -3.536  14.331  25.229  0.00  0.00    +0.000 N 
ATOM     37  H   UNL     1      -4.037  14.218  26.097  0.00  0.00    +0.000 HD
ENDBRANCH  26  27
ENDBRANCH  25  26
ENDBRANCH   9  25
TORSDOF 4
ENDMDL
MODEL 9
REMARK VINA RESULT:      -8.7      1.356      2.015
REMARK  Name = 
REMARK  4 active torsions:
REMARK  status: ('A' for Active; 'I' for Inactive)
REMARK    1  A    between atoms: N_9  and  C_10
REMARK    2  A    between atoms: C_10  and  C_11
REMARK    3  A    between atoms: C_11  and  C_12
REMARK    4  A    between atoms: C_27  and  C_28
REMARK                            x       y       z     vdW  Elec       q    Type
REMARK                         _______ _______ _______ _____ _____    ______ ____
ROOT
ATOM      1  N   UNL     1      -0.686   9.231  22.871  0.00  0.00    +0.000 N 
ATOM      2  C   UNL     1       0.133   9.176  21.768  0.00  0.00    +0.000 A 
ATOM      3  N   UNL     1       0.674   8.071  21.366  0.00  0.00    +0.000 NA
ATOM      4  C   UNL     1       1.511   8.073  20.259  0.00  0.00    +0.000 A 
ATOM      5  N   UNL     1       2.087   6.865  19.916  0.00  0.00    +0.000 N 
ATOM      6  C   UNL     1       2.177   5.795  20.903  0.00  0.00    +0.000 C 
ATOM      7  C   UNL     1       1.284   4.611  20.567  0.00  0.00    +0.000 C 
ATOM      8  C   UNL     1       1.299   4.077  19.133  0.00  0.00    +0.000 C 
ATOM      9  N   UNL     1       2.488   4.247  18.297  0.00  0.00    +0.000 NA
ATOM     10  C   UNL     1       2.579   5.631  17.786  0.00  0.00    +0.000 C 
ATOM     11  C   UNL     1       2.994   6.751  18.763  0.00  0.00    +0.000 C 
ATOM     12  N   UNL     1       1.765   9.147  19.555  0.00  0.00    +0.000 NA
ATOM     13  C   UNL     1       1.185  10.302  19.944  0.00  0.00    +0.000 A 
ATOM     14  N   UNL     1       1.216  11.512  19.431  0.00  0.00    +0.000 NA
ATOM     15  C   UNL     1       0.382  12.234  20.260  0.00  0.00    +0.000 A 
ATOM     16  N   UNL     1      -0.159  11.536  21.274  0.00  0.00    +0.000 NA
ATOM     17  N   UNL     1       0.385  10.329  21.041  0.00  0.00    +0.000 N 
ATOM     18  H   UNL     1      -1.087   8.344  23.152  0.00  0.00    +0.000 HD
ATOM     19  H   UNL     1      -1.307  10.033  22.920  0.00  0.00    +0.000 HD
ENDROOT
BRANCH  15  20
ATOM     20  C   UNL     1       0.088  13.675  20.020  0.00  0.00    +0.000 A 
ATOM     21  C   UNL     1       0.307  14.695  20.927  0.00  0.00    +0.000 A 
ATOM     22  C   UNL     1      -0.098  15.895  20.296  0.00  0.00    +0.000 A 
ATOM     23  C   UNL     1      -0.541  15.536  19.045  0.00  0.00    +0.000 A 
ATOM     24  O   UNL     1      -0.429  14.196  18.866  0.00  0.00    +0.000 OA
ENDBRANCH  15  20
BRANCH   9  25
ATOM     25  C   UNL     1       3.759   3.751  18.835  0.00  0.00    +0.000 C 
BRANCH  25  26
ATOM     26  C   UNL     1       4.568   2.864  17.875  0.00  0.00    +0.000 C 
BRANCH  26  27
ATOM     27  C   UNL     1       5.230   3.699  16.807  0.00  0.00    +0.000 A 
ATOM     28  C   UNL     1       4.921   3.507  15.450  0.00  0.00    +0.000 A 
ATOM     29  C   UNL     1       5.497   4.311  14.448  0.00  0.00    +0.000 A 
ATOM     30  C   UNL     1       6.391   5.331  14.775  0.00  0.00    +0.000 A 
ATOM     31  C   UNL     1       6.682   5.509  16.110  0.00  0.00    +0.000 A 
ATOM     32  C   UNL     1       6.121   4.721  17.115  0.00  0.00    +0.000 A 
ATOM     33  C   UNL     1       6.642   5.190  18.445  0.00  0.00    +0.000 C 
ATOM     34  C   UNL     1       7.567   6.345  18.049  0.00  0.00    +0.000 C 
ATOM     35  O   UNL     1       8.222   7.043  18.807  0.00  0.00    +0.000 OA
ATOM     36  N   UNL     1       7.528   6.456  16.667  0.00  0.00    +0.000 N 
ATOM     37  H   UNL     1       8.053   7.149  16.158  0.00  0.00    +0.000 HD
ENDBRANCH  26  27
ENDBRANCH  25  26
ENDBRANCH   9  25
TORSDOF 4
ENDMDL
