MODEL 1
REMARK VINA RESULT:      -6.1      0.000      0.000
REMARK  Name = 
REMARK  3 active torsions:
REMARK  status: ('A' for Active; 'I' for Inactive)
REMARK    1  A    between atoms: C_2  and  N_3
REMARK    2  A    between atoms: C_9  and  C_11
REMARK    3  A    between atoms: C_14  and  C_15
REMARK                            x       y       z     vdW  Elec       q    Type
REMARK                         _______ _______ _______ _____ _____    ______ ____
ROOT
ATOM      1  C   UNL     1       1.256   9.834  18.375  0.00  0.00    +0.000 A 
ATOM      2  C   UNL     1       1.562  11.163  18.610  0.00  0.00    +0.000 A 
ATOM      3  C   UNL     1       0.337  11.845  18.757  0.00  0.00    +0.000 A 
ATOM      4  C   UNL     1      -0.657  10.920  18.510  0.00  0.00    +0.000 A 
ATOM      5  O   UNL     1      -0.094   9.699  18.225  0.00  0.00    +0.000 OA
ENDROOT
BRANCH   1  12
ATOM      6  N   UNL     1       0.975   7.937  21.278  0.00  0.00    +0.000 NA
ATOM      7  C   UNL     1       1.532   7.304  20.310  0.00  0.00    +0.000 C 
ATOM      8  S   UNL     1       1.599   5.545  20.491  0.00  0.00    +0.000 S 
ATOM      9  C   UNL     1       3.262   5.528  19.806  0.00  0.00    +0.000 C 
ATOM     10  C   UNL     1       3.150   6.585  18.732  0.00  0.00    +0.000 C 
ATOM     11  N   UNL     1       2.249   7.656  19.154  0.00  0.00    +0.000 N 
ATOM     12  C   UNL     1       2.177   8.732  18.222  0.00  0.00    +0.000 C 
ATOM     13  O   UNL     1       2.918   8.702  17.231  0.00  0.00    +0.000 OA
BRANCH   6  15
ATOM     14  N   UNL     1       1.380  10.345  21.732  0.00  0.00    +0.000 NA
ATOM     15  C   UNL     1       1.197   9.228  21.484  0.00  0.00    +0.000 C 
ENDBRANCH   6  15
ENDBRANCH   1  12
BRANCH   4  16
ATOM     16  C   UNL     1      -2.111  11.000  18.505  0.00  0.00    +0.000 A 
ATOM     17  C   UNL     1      -2.882  10.128  17.725  0.00  0.00    +0.000 A 
ATOM     18  C   UNL     1      -4.271  10.271  17.656  0.00  0.00    +0.000 A 
ATOM     19  C   UNL     1      -4.901  11.281  18.379  0.00  0.00    +0.000 A 
ATOM     20 BR   UNL     1      -6.771  11.510  18.238  0.00  0.00    +0.000 Br
ATOM     21  C   UNL     1      -4.159  12.134  19.191  0.00  0.00    +0.000 A 
ATOM     22  C   UNL     1      -2.770  11.990  19.253  0.00  0.00    +0.000 A 
ENDBRANCH   4  16
TORSDOF 3
ENDMDL
MODEL 2
REMARK VINA RESULT:      -6.1      4.175      6.925
REMARK  Name = 
REMARK  3 active torsions:
REMARK  status: ('A' for Active; 'I' for Inactive)
REMARK    1  A    between atoms: C_2  and  N_3
REMARK    2  A    between atoms: C_9  and  C_11
REMARK    3  A    between atoms: C_14  and  C_15
REMARK                            x       y       z     vdW  Elec       q    Type
REMARK                         _______ _______ _______ _____ _____    ______ ____
ROOT
ATOM      1  C   UNL     1      -1.208  11.851  19.999  0.00  0.00    +0.000 A 
ATOM      2  C   UNL     1      -0.110  12.667  20.215  0.00  0.00    +0.000 A 
ATOM      3  C   UNL     1       1.035  11.896  19.931  0.00  0.00    +0.000 A 
ATOM      4  C   UNL     1       0.588  10.622  19.648  0.00  0.00    +0.000 A 
ATOM      5  O   UNL     1      -0.782  10.580  19.740  0.00  0.00    +0.000 OA
ENDROOT
BRANCH   1  12
ATOM      6  N   UNL     1      -1.862  12.260  23.391  0.00  0.00    +0.000 NA
ATOM      7  C   UNL     1      -2.750  12.795  22.634  0.00  0.00    +0.000 C 
ATOM      8  S   UNL     1      -3.807  13.976  23.421  0.00  0.00    +0.000 S 
ATOM      9  C   UNL     1      -5.220  13.334  22.511  0.00  0.00    +0.000 C 
ATOM     10  C   UNL     1      -4.597  13.042  21.166  0.00  0.00    +0.000 C 
ATOM     11  N   UNL     1      -3.214  12.591  21.324  0.00  0.00    +0.000 N 
ATOM     12  C   UNL     1      -2.603  12.207  20.095  0.00  0.00    +0.000 C 
ATOM     13  O   UNL     1      -3.295  12.206  19.069  0.00  0.00    +0.000 OA
BRANCH   6  15
ATOM     14  N   UNL     1      -0.727  10.118  22.851  0.00  0.00    +0.000 NA
ATOM     15  C   UNL     1      -1.282  11.108  23.078  0.00  0.00    +0.000 C 
ENDBRANCH   6  15
ENDBRANCH   1  12
BRANCH   4  16
ATOM     16  C   UNL     1       1.270   9.387  19.283  0.00  0.00    +0.000 A 
ATOM     17  C   UNL     1       1.445   8.355  20.214  0.00  0.00    +0.000 A 
ATOM     18  C   UNL     1       2.179   7.212  19.882  0.00  0.00    +0.000 A 
ATOM     19  C   UNL     1       2.733   7.088  18.611  0.00  0.00    +0.000 A 
ATOM     20 BR   UNL     1       3.775   5.571  18.184  0.00  0.00    +0.000 Br
ATOM     21  C   UNL     1       2.539   8.085  17.658  0.00  0.00    +0.000 A 
ATOM     22  C   UNL     1       1.808   9.227  17.996  0.00  0.00    +0.000 A 
ENDBRANCH   4  16
TORSDOF 3
ENDMDL
MODEL 3
REMARK VINA RESULT:      -6.1      9.244     11.114
REMARK  Name = 
REMARK  3 active torsions:
REMARK  status: ('A' for Active; 'I' for Inactive)
REMARK    1  A    between atoms: C_2  and  N_3
REMARK    2  A    between atoms: C_9  and  C_11
REMARK    3  A    between atoms: C_14  and  C_15
REMARK                            x       y       z     vdW  Elec       q    Type
REMARK                         _______ _______ _______ _____ _____    ______ ____
ROOT
ATOM      1  C   UNL     1      10.300  11.680  18.633  0.00  0.00    +0.000 A 
ATOM      2  C   UNL     1       9.847  11.705  19.941  0.00  0.00    +0.000 A 
ATOM      3  C   UNL     1       9.090  10.532  20.134  0.00  0.00    +0.000 A 
ATOM      4  C   UNL     1       9.037   9.895  18.911  0.00  0.00    +0.000 A 
ATOM      5  O   UNL     1       9.734  10.625  17.978  0.00  0.00    +0.000 OA
ENDROOT
BRANCH   1  12
ATOM      6  N   UNL     1       8.353  14.501  18.034  0.00  0.00    +0.000 NA
ATOM      7  C   UNL     1       9.614  14.731  17.968  0.00  0.00    +0.000 C 
ATOM      8  S   UNL     1      10.081  16.435  18.058  0.00  0.00    +0.000 S 
ATOM      9  C   UNL     1      11.331  16.170  16.792  0.00  0.00    +0.000 C 
ATOM     10  C   UNL     1      11.845  14.800  17.167  0.00  0.00    +0.000 C 
ATOM     11  N   UNL     1      10.765  13.971  17.701  0.00  0.00    +0.000 N 
ATOM     12  C   UNL     1      11.168  12.634  17.984  0.00  0.00    +0.000 C 
ATOM     13  O   UNL     1      12.318  12.289  17.680  0.00  0.00    +0.000 OA
BRANCH   6  15
ATOM     14  N   UNL     1       7.372  12.401  17.141  0.00  0.00    +0.000 NA
ATOM     15  C   UNL     1       7.828  13.366  17.591  0.00  0.00    +0.000 C 
ENDBRANCH   6  15
ENDBRANCH   1  12
BRANCH   4  16
ATOM     16  C   UNL     1       8.416   8.657  18.460  0.00  0.00    +0.000 A 
ATOM     17  C   UNL     1       7.594   8.631  17.325  0.00  0.00    +0.000 A 
ATOM     18  C   UNL     1       6.929   7.458  16.953  0.00  0.00    +0.000 A 
ATOM     19  C   UNL     1       7.093   6.299  17.707  0.00  0.00    +0.000 A 
ATOM     20 BR   UNL     1       6.148   4.732  17.236  0.00  0.00    +0.000 Br
ATOM     21  C   UNL     1       7.936   6.293  18.815  0.00  0.00    +0.000 A 
ATOM     22  C   UNL     1       8.594   7.468  19.186  0.00  0.00    +0.000 A 
ENDBRANCH   4  16
TORSDOF 3
ENDMDL
MODEL 4
REMARK VINA RESULT:      -6.0      4.142      6.892
REMARK  Name = 
REMARK  3 active torsions:
REMARK  status: ('A' for Active; 'I' for Inactive)
REMARK    1  A    between atoms: C_2  and  N_3
REMARK    2  A    between atoms: C_9  and  C_11
REMARK    3  A    between atoms: C_14  and  C_15
REMARK                            x       y       z     vdW  Elec       q    Type
REMARK                         _______ _______ _______ _____ _____    ______ ____
ROOT
ATOM      1  C   UNL     1      -1.158  11.704  19.929  0.00  0.00    +0.000 A 
ATOM      2  C   UNL     1      -0.080  12.553  20.116  0.00  0.00    +0.000 A 
ATOM      3  C   UNL     1       1.084  11.790  19.891  0.00  0.00    +0.000 A 
ATOM      4  C   UNL     1       0.666  10.494  19.672  0.00  0.00    +0.000 A 
ATOM      5  O   UNL     1      -0.704  10.430  19.746  0.00  0.00    +0.000 OA
ENDROOT
BRANCH   1  12
ATOM      6  N   UNL     1      -1.817  12.526  23.245  0.00  0.00    +0.000 NA
ATOM      7  C   UNL     1      -2.718  12.939  22.431  0.00  0.00    +0.000 C 
ATOM      8  S   UNL     1      -3.801  14.186  23.066  0.00  0.00    +0.000 S 
ATOM      9  C   UNL     1      -5.200  13.400  22.251  0.00  0.00    +0.000 C 
ATOM     10  C   UNL     1      -4.573  12.954  20.951  0.00  0.00    +0.000 C 
ATOM     11  N   UNL     1      -3.180  12.559  21.159  0.00  0.00    +0.000 N 
ATOM     12  C   UNL     1      -2.561  12.037  19.986  0.00  0.00    +0.000 C 
ATOM     13  O   UNL     1      -3.255  11.889  18.971  0.00  0.00    +0.000 OA
BRANCH   6  15
ATOM     14  N   UNL     1      -0.640  10.354  22.986  0.00  0.00    +0.000 NA
ATOM     15  C   UNL     1      -1.210  11.357  23.078  0.00  0.00    +0.000 C 
ENDBRANCH   6  15
ENDBRANCH   1  12
BRANCH   4  16
ATOM     16  C   UNL     1       1.377   9.255  19.385  0.00  0.00    +0.000 A 
ATOM     17  C   UNL     1       1.918   9.008  18.116  0.00  0.00    +0.000 A 
ATOM     18  C   UNL     1       2.518   7.779  17.824  0.00  0.00    +0.000 A 
ATOM     19  C   UNL     1       2.593   6.793  18.804  0.00  0.00    +0.000 A 
ATOM     20 BR   UNL     1       3.351   5.112  18.389  0.00  0.00    +0.000 Br
ATOM     21  C   UNL     1       2.096   7.031  20.082  0.00  0.00    +0.000 A 
ATOM     22  C   UNL     1       1.493   8.259  20.369  0.00  0.00    +0.000 A 
ENDBRANCH   4  16
TORSDOF 3
ENDMDL
MODEL 5
REMARK VINA RESULT:      -6.0      4.093      5.904
REMARK  Name = 
REMARK  3 active torsions:
REMARK  status: ('A' for Active; 'I' for Inactive)
REMARK    1  A    between atoms: C_2  and  N_3
REMARK    2  A    between atoms: C_9  and  C_11
REMARK    3  A    between atoms: C_14  and  C_15
REMARK                            x       y       z     vdW  Elec       q    Type
REMARK                         _______ _______ _______ _____ _____    ______ ____
ROOT
ATOM      1  C   UNL     1       4.204   5.376  19.585  0.00  0.00    +0.000 A 
ATOM      2  C   UNL     1       3.382   4.563  20.346  0.00  0.00    +0.000 A 
ATOM      3  C   UNL     1       2.203   5.294  20.596  0.00  0.00    +0.000 A 
ATOM      4  C   UNL     1       2.400   6.550  20.058  0.00  0.00    +0.000 A 
ATOM      5  O   UNL     1       3.646   6.617  19.484  0.00  0.00    +0.000 OA
ENDROOT
BRANCH   1  12
ATOM      6  N   UNL     1       3.603   4.349  16.315  0.00  0.00    +0.000 NA
ATOM      7  C   UNL     1       4.829   4.662  16.532  0.00  0.00    +0.000 C 
ATOM      8  S   UNL     1       5.805   4.954  15.085  0.00  0.00    +0.000 S 
ATOM      9  C   UNL     1       7.196   4.098  15.840  0.00  0.00    +0.000 C 
ATOM     10  C   UNL     1       7.078   4.551  17.276  0.00  0.00    +0.000 C 
ATOM     11  N   UNL     1       5.674   4.713  17.653  0.00  0.00    +0.000 N 
ATOM     12  C   UNL     1       5.495   5.047  19.026  0.00  0.00    +0.000 C 
ATOM     13  O   UNL     1       6.491   5.079  19.760  0.00  0.00    +0.000 OA
BRANCH   6  15
ATOM     14  N   UNL     1       2.203   3.147  17.978  0.00  0.00    +0.000 NA
ATOM     15  C   UNL     1       2.872   3.726  17.230  0.00  0.00    +0.000 C 
ENDBRANCH   6  15
ENDBRANCH   1  12
BRANCH   4  16
ATOM     16  C   UNL     1       1.568   7.744  19.989  0.00  0.00    +0.000 A 
ATOM     17  C   UNL     1       1.593   8.578  18.863  0.00  0.00    +0.000 A 
ATOM     18  C   UNL     1       0.861   9.769  18.843  0.00  0.00    +0.000 A 
ATOM     19  C   UNL     1       0.089  10.129  19.944  0.00  0.00    +0.000 A 
ATOM     20 BR   UNL     1      -0.852  11.767  19.938  0.00  0.00    +0.000 Br
ATOM     21  C   UNL     1       0.020   9.295  21.058  0.00  0.00    +0.000 A 
ATOM     22  C   UNL     1       0.757   8.108  21.075  0.00  0.00    +0.000 A 
ENDBRANCH   4  16
TORSDOF 3
ENDMDL
MODEL 6
REMARK VINA RESULT:      -6.0      4.007      5.894
REMARK  Name = 
REMARK  3 active torsions:
REMARK  status: ('A' for Active; 'I' for Inactive)
REMARK    1  A    between atoms: C_2  and  N_3
REMARK    2  A    between atoms: C_9  and  C_11
REMARK    3  A    between atoms: C_14  and  C_15
REMARK                            x       y       z     vdW  Elec       q    Type
REMARK                         _______ _______ _______ _____ _____    ______ ____
ROOT
ATOM      1  C   UNL     1       4.202   5.393  19.585  0.00  0.00    +0.000 A 
ATOM      2  C   UNL     1       3.359   4.586  20.331  0.00  0.00    +0.000 A 
ATOM      3  C   UNL     1       2.193   5.338  20.584  0.00  0.00    +0.000 A 
ATOM      4  C   UNL     1       2.418   6.596  20.064  0.00  0.00    +0.000 A 
ATOM      5  O   UNL     1       3.669   6.646  19.497  0.00  0.00    +0.000 OA
ENDROOT
BRANCH   1  12
ATOM      6  N   UNL     1       3.592   4.366  16.317  0.00  0.00    +0.000 NA
ATOM      7  C   UNL     1       4.821   4.664  16.535  0.00  0.00    +0.000 C 
ATOM      8  S   UNL     1       5.804   4.939  15.089  0.00  0.00    +0.000 S 
ATOM      9  C   UNL     1       7.182   4.067  15.847  0.00  0.00    +0.000 C 
ATOM     10  C   UNL     1       7.068   4.525  17.283  0.00  0.00    +0.000 C 
ATOM     11  N   UNL     1       5.666   4.706  17.657  0.00  0.00    +0.000 N 
ATOM     12  C   UNL     1       5.488   5.045  19.029  0.00  0.00    +0.000 C 
ATOM     13  O   UNL     1       6.484   5.066  19.764  0.00  0.00    +0.000 OA
BRANCH   6  15
ATOM     14  N   UNL     1       2.160   3.204  17.981  0.00  0.00    +0.000 NA
ATOM     15  C   UNL     1       2.851   3.756  17.232  0.00  0.00    +0.000 C 
ENDBRANCH   6  15
ENDBRANCH   1  12
BRANCH   4  16
ATOM     16  C   UNL     1       1.611   7.807  20.006  0.00  0.00    +0.000 A 
ATOM     17  C   UNL     1       0.791   8.183  21.078  0.00  0.00    +0.000 A 
ATOM     18  C   UNL     1      -0.049   9.296  20.977  0.00  0.00    +0.000 A 
ATOM     19  C   UNL     1      -0.065  10.050  19.807  0.00  0.00    +0.000 A 
ATOM     20 BR   UNL     1      -1.244  11.518  19.651  0.00  0.00    +0.000 Br
ATOM     21  C   UNL     1       0.770   9.717  18.744  0.00  0.00    +0.000 A 
ATOM     22  C   UNL     1       1.605   8.601  18.847  0.00  0.00    +0.000 A 
ENDBRANCH   4  16
TORSDOF 3
ENDMDL
MODEL 7
REMARK VINA RESULT:      -6.0      3.552      4.927
REMARK  Name = 
REMARK  3 active torsions:
REMARK  status: ('A' for Active; 'I' for Inactive)
REMARK    1  A    between atoms: C_2  and  N_3
REMARK    2  A    between atoms: C_9  and  C_11
REMARK    3  A    between atoms: C_14  and  C_15
REMARK                            x       y       z     vdW  Elec       q    Type
REMARK                         _______ _______ _______ _____ _____    ______ ____
ROOT
ATOM      1  C   UNL     1       3.353   6.273  19.101  0.00  0.00    +0.000 A 
ATOM      2  C   UNL     1       2.921   6.703  17.858  0.00  0.00    +0.000 A 
ATOM      3  C   UNL     1       2.063   7.799  18.080  0.00  0.00    +0.000 A 
ATOM      4  C   UNL     1       1.937   7.926  19.448  0.00  0.00    +0.000 A 
ATOM      5  O   UNL     1       2.686   6.959  20.074  0.00  0.00    +0.000 OA
ENDROOT
BRANCH   1  12
ATOM      6  N   UNL     1       1.537   3.307  18.997  0.00  0.00    +0.000 NA
ATOM      7  C   UNL     1       2.805   3.129  18.909  0.00  0.00    +0.000 C 
ATOM      8  S   UNL     1       3.310   1.546  18.302  0.00  0.00    +0.000 S 
ATOM      9  C   UNL     1       4.648   1.501  19.503  0.00  0.00    +0.000 C 
ATOM     10  C   UNL     1       5.094   2.945  19.503  0.00  0.00    +0.000 C 
ATOM     11  N   UNL     1       3.953   3.838  19.303  0.00  0.00    +0.000 N 
ATOM     12  C   UNL     1       4.295   5.218  19.389  0.00  0.00    +0.000 C 
ATOM     13  O   UNL     1       5.455   5.518  19.700  0.00  0.00    +0.000 OA
BRANCH   6  15
ATOM     14  N   UNL     1       0.573   5.016  20.520  0.00  0.00    +0.000 NA
ATOM     15  C   UNL     1       1.017   4.242  19.781  0.00  0.00    +0.000 C 
ENDBRANCH   6  15
ENDBRANCH   1  12
BRANCH   4  16
ATOM     16  C   UNL     1       1.201   8.853  20.298  0.00  0.00    +0.000 A 
ATOM     17  C   UNL     1       1.057   8.617  21.672  0.00  0.00    +0.000 A 
ATOM     18  C   UNL     1       0.272   9.463  22.462  0.00  0.00    +0.000 A 
ATOM     19  C   UNL     1      -0.364  10.559  21.885  0.00  0.00    +0.000 A 
ATOM     20 BR   UNL     1      -1.471  11.667  22.943  0.00  0.00    +0.000 Br
ATOM     21  C   UNL     1      -0.203  10.834  20.530  0.00  0.00    +0.000 A 
ATOM     22  C   UNL     1       0.579   9.983  19.743  0.00  0.00    +0.000 A 
ENDBRANCH   4  16
TORSDOF 3
ENDMDL
MODEL 8
REMARK VINA RESULT:      -5.9      4.210      7.029
REMARK  Name = 
REMARK  3 active torsions:
REMARK  status: ('A' for Active; 'I' for Inactive)
REMARK    1  A    between atoms: C_2  and  N_3
REMARK    2  A    between atoms: C_9  and  C_11
REMARK    3  A    between atoms: C_14  and  C_15
REMARK                            x       y       z     vdW  Elec       q    Type
REMARK                         _______ _______ _______ _____ _____    ______ ____
ROOT
ATOM      1  C   UNL     1      -1.872  11.762  18.944  0.00  0.00    +0.000 A 
ATOM      2  C   UNL     1      -0.918  12.749  18.761  0.00  0.00    +0.000 A 
ATOM      3  C   UNL     1       0.335  12.104  18.715  0.00  0.00    +0.000 A 
ATOM      4  C   UNL     1       0.096  10.768  18.967  0.00  0.00    +0.000 A 
ATOM      5  O   UNL     1      -1.250  10.566  19.159  0.00  0.00    +0.000 OA
ENDROOT
BRANCH   1  12
ATOM      6  N   UNL     1      -2.563  13.365  21.954  0.00  0.00    +0.000 NA
ATOM      7  C   UNL     1      -3.530  13.426  21.112  0.00  0.00    +0.000 C 
ATOM      8  S   UNL     1      -4.757  14.655  21.453  0.00  0.00    +0.000 S 
ATOM      9  C   UNL     1      -6.054  13.510  20.960  0.00  0.00    +0.000 C 
ATOM     10  C   UNL     1      -5.401  12.809  19.791  0.00  0.00    +0.000 C 
ATOM     11  N   UNL     1      -3.963  12.662  20.016  0.00  0.00    +0.000 N 
ATOM     12  C   UNL     1      -3.306  11.921  18.991  0.00  0.00    +0.000 C 
ATOM     13  O   UNL     1      -3.995  11.418  18.094  0.00  0.00    +0.000 OA
BRANCH   6  15
ATOM     14  N   UNL     1      -1.127  11.357  22.232  0.00  0.00    +0.000 NA
ATOM     15  C   UNL     1      -1.807  12.281  22.069  0.00  0.00    +0.000 C 
ENDBRANCH   6  15
ENDBRANCH   1  12
BRANCH   4  16
ATOM     16  C   UNL     1       0.964   9.601  19.053  0.00  0.00    +0.000 A 
ATOM     17  C   UNL     1       1.676   9.145  17.936  0.00  0.00    +0.000 A 
ATOM     18  C   UNL     1       2.434   7.972  18.004  0.00  0.00    +0.000 A 
ATOM     19  C   UNL     1       2.497   7.254  19.195  0.00  0.00    +0.000 A 
ATOM     20 BR   UNL     1       3.474   5.639  19.268  0.00  0.00    +0.000 Br
ATOM     21  C   UNL     1       1.827   7.710  20.328  0.00  0.00    +0.000 A 
ATOM     22  C   UNL     1       1.067   8.880  20.254  0.00  0.00    +0.000 A 
ENDBRANCH   4  16
TORSDOF 3
ENDMDL
MODEL 9
REMARK VINA RESULT:      -5.9      4.194      7.023
REMARK  Name = 
REMARK  3 active torsions:
REMARK  status: ('A' for Active; 'I' for Inactive)
REMARK    1  A    between atoms: C_2  and  N_3
REMARK    2  A    between atoms: C_9  and  C_11
REMARK    3  A    between atoms: C_14  and  C_15
REMARK                            x       y       z     vdW  Elec       q    Type
REMARK                         _______ _______ _______ _____ _____    ______ ____
ROOT
ATOM      1  C   UNL     1       0.744  10.708  20.978  0.00  0.00    +0.000 A 
ATOM      2  C   UNL     1      -0.101   9.936  21.757  0.00  0.00    +0.000 A 
ATOM      3  C   UNL     1       0.215   8.588  21.490  0.00  0.00    +0.000 A 
ATOM      4  C   UNL     1       1.170   8.600  20.493  0.00  0.00    +0.000 A 
ATOM      5  O   UNL     1       1.457   9.897  20.142  0.00  0.00    +0.000 OA
ENDROOT
BRANCH   1  12
ATOM      6  N   UNL     1      -2.247  11.856  19.621  0.00  0.00    +0.000 NA
ATOM      7  C   UNL     1      -1.592  12.764  20.247  0.00  0.00    +0.000 C 
ATOM      8  S   UNL     1      -2.520  14.207  20.681  0.00  0.00    +0.000 S 
ATOM      9  C   UNL     1      -1.117  15.249  20.256  0.00  0.00    +0.000 C 
ATOM     10  C   UNL     1       0.037  14.412  20.758  0.00  0.00    +0.000 C 
ATOM     11  N   UNL     1      -0.246  12.987  20.584  0.00  0.00    +0.000 N 
ATOM     12  C   UNL     1       0.846  12.148  20.950  0.00  0.00    +0.000 C 
ATOM     13  O   UNL     1       1.913  12.681  21.281  0.00  0.00    +0.000 OA
BRANCH   6  15
ATOM     14  N   UNL     1      -1.139  10.139  18.208  0.00  0.00    +0.000 NA
ATOM     15  C   UNL     1      -1.633  10.930  18.895  0.00  0.00    +0.000 C 
ENDBRANCH   6  15
ENDBRANCH   1  12
BRANCH   4  16
ATOM     16  C   UNL     1       1.890   7.545  19.793  0.00  0.00    +0.000 A 
ATOM     17  C   UNL     1       2.503   7.785  18.556  0.00  0.00    +0.000 A 
ATOM     18  C   UNL     1       3.113   6.745  17.849  0.00  0.00    +0.000 A 
ATOM     19  C   UNL     1       3.127   5.458  18.381  0.00  0.00    +0.000 A 
ATOM     20 BR   UNL     1       3.900   4.043  17.397  0.00  0.00    +0.000 Br
ATOM     21  C   UNL     1       2.557   5.205  19.626  0.00  0.00    +0.000 A 
ATOM     22  C   UNL     1       1.944   6.248  20.327  0.00  0.00    +0.000 A 
ENDBRANCH   4  16
TORSDOF 3
ENDMDL
