MODEL 1
REMARK VINA RESULT:      -7.7      0.000      0.000
REMARK  Name = 
REMARK  4 active torsions:
REMARK  status: ('A' for Active; 'I' for Inactive)
REMARK    1  A    between atoms: C_6  and  O_7
REMARK    2  A    between atoms: C_8  and  O_9
REMARK    3  A    between atoms: N_13  and  C_14
REMARK    4  A    between atoms: C_14  and  C_15
REMARK                            x       y       z     vdW  Elec       q    Type
REMARK                         _______ _______ _______ _____ _____    ______ ____
ROOT
ATOM      1  O   UNL     1       3.017   3.039  16.726  0.00  0.00    +0.000 OA
ATOM      2  C   UNL     1       3.967   3.754  16.966  0.00  0.00    +0.000 C 
ATOM      3  C   UNL     1       5.012   4.086  15.992  0.00  0.00    +0.000 A 
ATOM      4  C   UNL     1       5.152   3.704  14.666  0.00  0.00    +0.000 A 
ATOM      5  C   UNL     1       6.241   4.224  13.952  0.00  0.00    +0.000 A 
ATOM      6  C   UNL     1       7.128   5.113  14.581  0.00  0.00    +0.000 A 
ATOM      7  C   UNL     1       6.967   5.476  15.921  0.00  0.00    +0.000 A 
ATOM      8  C   UNL     1       5.913   4.933  16.615  0.00  0.00    +0.000 A 
ATOM      9  C   UNL     1       5.478   5.087  18.003  0.00  0.00    +0.000 C 
ATOM     10  O   UNL     1       6.076   5.695  18.872  0.00  0.00    +0.000 OA
ATOM     11  N   UNL     1       4.298   4.407  18.121  0.00  0.00    +0.000 N 
ENDROOT
BRANCH   6  12
ATOM     12  O   UNL     1       8.183   5.667  13.908  0.00  0.00    +0.000 OA
ATOM     13  H   UNL     1       8.171   6.631  14.040  0.00  0.00    +0.000 HD
ENDBRANCH   6  12
BRANCH   7  14
ATOM     14  O   UNL     1       7.829   6.361  16.489  0.00  0.00    +0.000 OA
ATOM     15  H   UNL     1       7.952   7.075  15.832  0.00  0.00    +0.000 HD
ENDBRANCH   7  14
BRANCH  11  16
ATOM     16  C   UNL     1       3.510   4.390  19.339  0.00  0.00    +0.000 C 
BRANCH  16  17
ATOM     17  C   UNL     1       2.821   5.716  19.582  0.00  0.00    +0.000 A 
ATOM     18  C   UNL     1       2.882   6.755  18.634  0.00  0.00    +0.000 A 
ATOM     19  C   UNL     1       2.179   7.944  18.842  0.00  0.00    +0.000 A 
ATOM     20 CL   UNL     1       2.235   9.183  17.648  0.00  0.00    +0.000 Cl
ATOM     21  C   UNL     1       1.433   8.113  20.006  0.00  0.00    +0.000 A 
ATOM     22  F   UNL     1       0.736   9.239  20.215  0.00  0.00    +0.000 F 
ATOM     23  C   UNL     1       1.397   7.116  20.973  0.00  0.00    +0.000 A 
ATOM     24  C   UNL     1       2.092   5.931  20.756  0.00  0.00    +0.000 A 
ATOM     25  F   UNL     1       2.056   4.985  21.703  0.00  0.00    +0.000 F 
ENDBRANCH  16  17
ENDBRANCH  11  16
TORSDOF 4
ENDMDL
MODEL 2
REMARK VINA RESULT:      -7.6      3.777      6.791
REMARK  Name = 
REMARK  4 active torsions:
REMARK  status: ('A' for Active; 'I' for Inactive)
REMARK    1  A    between atoms: C_6  and  O_7
REMARK    2  A    between atoms: C_8  and  O_9
REMARK    3  A    between atoms: N_13  and  C_14
REMARK    4  A    between atoms: C_14  and  C_15
REMARK                            x       y       z     vdW  Elec       q    Type
REMARK                         _______ _______ _______ _____ _____    ______ ____
ROOT
ATOM      1  O   UNL     1       2.040   5.899  20.674  0.00  0.00    +0.000 OA
ATOM      2  C   UNL     1       1.983   6.879  19.961  0.00  0.00    +0.000 C 
ATOM      3  C   UNL     1       1.425   8.169  20.383  0.00  0.00    +0.000 A 
ATOM      4  C   UNL     1       0.883   8.554  21.600  0.00  0.00    +0.000 A 
ATOM      5  C   UNL     1       0.470   9.887  21.734  0.00  0.00    +0.000 A 
ATOM      6  C   UNL     1       0.631  10.779  20.662  0.00  0.00    +0.000 A 
ATOM      7  C   UNL     1       1.174  10.363  19.444  0.00  0.00    +0.000 A 
ATOM      8  C   UNL     1       1.545   9.046  19.318  0.00  0.00    +0.000 A 
ATOM      9  C   UNL     1       2.117   8.298  18.200  0.00  0.00    +0.000 C 
ATOM     10  O   UNL     1       2.289   8.725  17.072  0.00  0.00    +0.000 OA
ATOM     11  N   UNL     1       2.397   7.045  18.669  0.00  0.00    +0.000 N 
ENDROOT
BRANCH   6  12
ATOM     12  O   UNL     1       0.270  12.095  20.766  0.00  0.00    +0.000 OA
ATOM     13  H   UNL     1       0.140  12.314  21.706  0.00  0.00    +0.000 HD
ENDBRANCH   6  12
BRANCH   7  14
ATOM     14  O   UNL     1       1.342  11.262  18.437  0.00  0.00    +0.000 OA
ATOM     15  H   UNL     1       2.257  11.594  18.523  0.00  0.00    +0.000 HD
ENDBRANCH   7  14
BRANCH  11  16
ATOM     16  C   UNL     1       3.052   6.026  17.870  0.00  0.00    +0.000 C 
BRANCH  16  17
ATOM     17  C   UNL     1       4.536   5.952  18.160  0.00  0.00    +0.000 A 
ATOM     18  C   UNL     1       5.436   6.879  17.601  0.00  0.00    +0.000 A 
ATOM     19  C   UNL     1       6.791   6.840  17.937  0.00  0.00    +0.000 A 
ATOM     20 CL   UNL     1       7.864   8.010  17.272  0.00  0.00    +0.000 Cl
ATOM     21  C   UNL     1       7.260   5.863  18.813  0.00  0.00    +0.000 A 
ATOM     22  F   UNL     1       8.553   5.822  19.164  0.00  0.00    +0.000 F 
ATOM     23  C   UNL     1       6.394   4.913  19.340  0.00  0.00    +0.000 A 
ATOM     24  C   UNL     1       5.044   4.963  19.007  0.00  0.00    +0.000 A 
ATOM     25  F   UNL     1       4.225   4.034  19.516  0.00  0.00    +0.000 F 
ENDBRANCH  16  17
ENDBRANCH  11  16
TORSDOF 4
ENDMDL
MODEL 3
REMARK VINA RESULT:      -7.3      4.238      7.133
REMARK  Name = 
REMARK  4 active torsions:
REMARK  status: ('A' for Active; 'I' for Inactive)
REMARK    1  A    between atoms: C_6  and  O_7
REMARK    2  A    between atoms: C_8  and  O_9
REMARK    3  A    between atoms: N_13  and  C_14
REMARK    4  A    between atoms: C_14  and  C_15
REMARK                            x       y       z     vdW  Elec       q    Type
REMARK                         _______ _______ _______ _____ _____    ______ ____
ROOT
ATOM      1  O   UNL     1       2.124   6.427  20.934  0.00  0.00    +0.000 OA
ATOM      2  C   UNL     1       1.938   7.342  20.159  0.00  0.00    +0.000 C 
ATOM      3  C   UNL     1       1.097   8.508  20.452  0.00  0.00    +0.000 A 
ATOM      4  C   UNL     1       0.378   8.827  21.594  0.00  0.00    +0.000 A 
ATOM      5  C   UNL     1      -0.304  10.052  21.611  0.00  0.00    +0.000 A 
ATOM      6  C   UNL     1      -0.225  10.910  20.501  0.00  0.00    +0.000 A 
ATOM      7  C   UNL     1       0.500  10.560  19.360  0.00  0.00    +0.000 A 
ATOM      8  C   UNL     1       1.138   9.343  19.348  0.00  0.00    +0.000 A 
ATOM      9  C   UNL     1       1.949   8.679  18.329  0.00  0.00    +0.000 C 
ATOM     10  O   UNL     1       2.136   9.080  17.195  0.00  0.00    +0.000 OA
ATOM     11  N   UNL     1       2.429   7.531  18.898  0.00  0.00    +0.000 N 
ENDROOT
BRANCH   6  12
ATOM     12  O   UNL     1      -0.850  12.127  20.493  0.00  0.00    +0.000 OA
ATOM     13  H   UNL     1      -0.909  12.460  21.407  0.00  0.00    +0.000 HD
ENDBRANCH   6  12
BRANCH   7  14
ATOM     14  O   UNL     1       0.578  11.428  18.317  0.00  0.00    +0.000 OA
ATOM     15  H   UNL     1      -0.266  11.341  17.831  0.00  0.00    +0.000 HD
ENDBRANCH   7  14
BRANCH  11  16
ATOM     16  C   UNL     1       3.346   6.633  18.221  0.00  0.00    +0.000 C 
BRANCH  16  17
ATOM     17  C   UNL     1       2.994   5.182  18.466  0.00  0.00    +0.000 A 
ATOM     18  C   UNL     1       3.847   4.337  19.200  0.00  0.00    +0.000 A 
ATOM     19  C   UNL     1       3.471   3.020  19.478  0.00  0.00    +0.000 A 
ATOM     20 CL   UNL     1       4.513   2.020  20.414  0.00  0.00    +0.000 Cl
ATOM     21  C   UNL     1       2.254   2.533  19.006  0.00  0.00    +0.000 A 
ATOM     22  F   UNL     1       1.867   1.279  19.280  0.00  0.00    +0.000 F 
ATOM     23  C   UNL     1       1.419   3.338  18.242  0.00  0.00    +0.000 A 
ATOM     24  C   UNL     1       1.796   4.651  17.976  0.00  0.00    +0.000 A 
ATOM     25  F   UNL     1       0.984   5.410  17.229  0.00  0.00    +0.000 F 
ENDBRANCH  16  17
ENDBRANCH  11  16
TORSDOF 4
ENDMDL
MODEL 4
REMARK VINA RESULT:      -7.2      4.117      6.243
REMARK  Name = 
REMARK  4 active torsions:
REMARK  status: ('A' for Active; 'I' for Inactive)
REMARK    1  A    between atoms: C_6  and  O_7
REMARK    2  A    between atoms: C_8  and  O_9
REMARK    3  A    between atoms: N_13  and  C_14
REMARK    4  A    between atoms: C_14  and  C_15
REMARK                            x       y       z     vdW  Elec       q    Type
REMARK                         _______ _______ _______ _____ _____    ______ ____
ROOT
ATOM      1  O   UNL     1       2.239  10.150  17.351  0.00  0.00    +0.000 OA
ATOM      2  C   UNL     1       2.025   9.390  18.272  0.00  0.00    +0.000 C 
ATOM      3  C   UNL     1       2.522   8.011  18.331  0.00  0.00    +0.000 A 
ATOM      4  C   UNL     1       3.301   7.302  17.429  0.00  0.00    +0.000 A 
ATOM      5  C   UNL     1       3.673   5.997  17.778  0.00  0.00    +0.000 A 
ATOM      6  C   UNL     1       3.269   5.462  19.013  0.00  0.00    +0.000 A 
ATOM      7  C   UNL     1       2.478   6.195  19.900  0.00  0.00    +0.000 A 
ATOM      8  C   UNL     1       2.097   7.463  19.529  0.00  0.00    +0.000 A 
ATOM      9  C   UNL     1       1.275   8.468  20.201  0.00  0.00    +0.000 C 
ATOM     10  O   UNL     1       0.663   8.307  21.242  0.00  0.00    +0.000 OA
ATOM     11  N   UNL     1       1.322   9.594  19.427  0.00  0.00    +0.000 N 
ENDROOT
BRANCH   6  12
ATOM     12  O   UNL     1       3.639   4.204  19.402  0.00  0.00    +0.000 OA
ATOM     13  H   UNL     1       2.921   3.812  19.931  0.00  0.00    +0.000 HD
ENDBRANCH   6  12
BRANCH   7  14
ATOM     14  O   UNL     1       2.130   5.656  21.099  0.00  0.00    +0.000 OA
ATOM     15  H   UNL     1       1.254   5.243  20.963  0.00  0.00    +0.000 HD
ENDBRANCH   7  14
BRANCH  11  16
ATOM     16  C   UNL     1       0.688  10.844  19.803  0.00  0.00    +0.000 C 
BRANCH  16  17
ATOM     17  C   UNL     1      -0.673  11.000  19.160  0.00  0.00    +0.000 A 
ATOM     18  C   UNL     1      -1.008  10.308  17.981  0.00  0.00    +0.000 A 
ATOM     19  C   UNL     1      -2.292  10.408  17.442  0.00  0.00    +0.000 A 
ATOM     20 CL   UNL     1      -2.689   9.518  16.023  0.00  0.00    +0.000 Cl
ATOM     21  C   UNL     1      -3.243  11.216  18.063  0.00  0.00    +0.000 A 
ATOM     22  F   UNL     1      -4.487  11.308  17.573  0.00  0.00    +0.000 F 
ATOM     23  C   UNL     1      -2.918  11.941  19.202  0.00  0.00    +0.000 A 
ATOM     24  C   UNL     1      -1.639  11.830  19.738  0.00  0.00    +0.000 A 
ATOM     25  F   UNL     1      -1.339  12.544  20.830  0.00  0.00    +0.000 F 
ENDBRANCH  16  17
ENDBRANCH  11  16
TORSDOF 4
ENDMDL
MODEL 5
REMARK VINA RESULT:      -7.2      3.849      7.062
REMARK  Name = 
REMARK  4 active torsions:
REMARK  status: ('A' for Active; 'I' for Inactive)
REMARK    1  A    between atoms: C_6  and  O_7
REMARK    2  A    between atoms: C_8  and  O_9
REMARK    3  A    between atoms: N_13  and  C_14
REMARK    4  A    between atoms: C_14  and  C_15
REMARK                            x       y       z     vdW  Elec       q    Type
REMARK                         _______ _______ _______ _____ _____    ______ ____
ROOT
ATOM      1  O   UNL     1       2.226   9.073  17.074  0.00  0.00    +0.000 OA
ATOM      2  C   UNL     1       1.976   8.706  18.204  0.00  0.00    +0.000 C 
ATOM      3  C   UNL     1       1.461   9.586  19.258  0.00  0.00    +0.000 A 
ATOM      4  C   UNL     1       1.149  10.937  19.222  0.00  0.00    +0.000 A 
ATOM      5  C   UNL     1       0.617  11.511  20.385  0.00  0.00    +0.000 A 
ATOM      6  C   UNL     1       0.403  10.715  21.522  0.00  0.00    +0.000 A 
ATOM      7  C   UNL     1       0.733   9.358  21.534  0.00  0.00    +0.000 A 
ATOM      8  C   UNL     1       1.282   8.817  20.396  0.00  0.00    +0.000 A 
ATOM      9  C   UNL     1       1.745   7.466  20.086  0.00  0.00    +0.000 C 
ATOM     10  O   UNL     1       1.816   6.539  20.873  0.00  0.00    +0.000 OA
ATOM     11  N   UNL     1       2.090   7.464  18.762  0.00  0.00    +0.000 N 
ENDROOT
BRANCH   6  12
ATOM     12  O   UNL     1      -0.144  11.233  22.665  0.00  0.00    +0.000 OA
ATOM     13  H   UNL     1      -0.006  10.604  23.395  0.00  0.00    +0.000 HD
ENDBRANCH   6  12
BRANCH   7  14
ATOM     14  O   UNL     1       0.485   8.612  22.643  0.00  0.00    +0.000 OA
ATOM     15  H   UNL     1      -0.482   8.469  22.660  0.00  0.00    +0.000 HD
ENDBRANCH   7  14
BRANCH  11  16
ATOM     16  C   UNL     1       2.526   6.273  18.057  0.00  0.00    +0.000 C 
BRANCH  16  17
ATOM     17  C   UNL     1       4.007   6.021  18.244  0.00  0.00    +0.000 A 
ATOM     18  C   UNL     1       4.971   6.819  17.601  0.00  0.00    +0.000 A 
ATOM     19  C   UNL     1       6.332   6.618  17.842  0.00  0.00    +0.000 A 
ATOM     20 CL   UNL     1       7.490   7.634  17.076  0.00  0.00    +0.000 Cl
ATOM     21  C   UNL     1       6.739   5.605  18.708  0.00  0.00    +0.000 A 
ATOM     22  F   UNL     1       8.039   5.409  18.969  0.00  0.00    +0.000 F 
ATOM     23  C   UNL     1       5.804   4.778  19.318  0.00  0.00    +0.000 A 
ATOM     24  C   UNL     1       4.450   4.990  19.079  0.00  0.00    +0.000 A 
ATOM     25  F   UNL     1       3.562   4.178  19.667  0.00  0.00    +0.000 F 
ENDBRANCH  16  17
ENDBRANCH  11  16
TORSDOF 4
ENDMDL
MODEL 6
REMARK VINA RESULT:      -7.1      2.224      2.938
REMARK  Name = 
REMARK  4 active torsions:
REMARK  status: ('A' for Active; 'I' for Inactive)
REMARK    1  A    between atoms: C_6  and  O_7
REMARK    2  A    between atoms: C_8  and  O_9
REMARK    3  A    between atoms: N_13  and  C_14
REMARK    4  A    between atoms: C_14  and  C_15
REMARK                            x       y       z     vdW  Elec       q    Type
REMARK                         _______ _______ _______ _____ _____    ______ ____
ROOT
ATOM      1  O   UNL     1       4.166   3.184  17.015  0.00  0.00    +0.000 OA
ATOM      2  C   UNL     1       5.137   3.811  16.645  0.00  0.00    +0.000 C 
ATOM      3  C   UNL     1       5.598   3.863  15.253  0.00  0.00    +0.000 A 
ATOM      4  C   UNL     1       5.075   3.270  14.115  0.00  0.00    +0.000 A 
ATOM      5  C   UNL     1       5.704   3.542  12.892  0.00  0.00    +0.000 A 
ATOM      6  C   UNL     1       6.812   4.405  12.855  0.00  0.00    +0.000 A 
ATOM      7  C   UNL     1       7.323   4.985  14.018  0.00  0.00    +0.000 A 
ATOM      8  C   UNL     1       6.713   4.683  15.212  0.00  0.00    +0.000 A 
ATOM      9  C   UNL     1       7.001   5.098  16.584  0.00  0.00    +0.000 C 
ATOM     10  O   UNL     1       7.961   5.756  16.943  0.00  0.00    +0.000 OA
ATOM     11  N   UNL     1       6.000   4.588  17.365  0.00  0.00    +0.000 N 
ENDROOT
BRANCH   6  12
ATOM     12  O   UNL     1       7.433   4.721  11.677  0.00  0.00    +0.000 OA
ATOM     13  H   UNL     1       8.396   4.719  11.816  0.00  0.00    +0.000 HD
ENDBRANCH   6  12
BRANCH   7  14
ATOM     14  O   UNL     1       8.379   5.838  13.940  0.00  0.00    +0.000 OA
ATOM     15  H   UNL     1       8.054   6.625  13.459  0.00  0.00    +0.000 HD
ENDBRANCH   7  14
BRANCH  11  16
ATOM     16  C   UNL     1       5.892   4.851  18.788  0.00  0.00    +0.000 C 
BRANCH  16  17
ATOM     17  C   UNL     1       4.448   4.902  19.241  0.00  0.00    +0.000 A 
ATOM     18  C   UNL     1       3.903   3.895  20.058  0.00  0.00    +0.000 A 
ATOM     19  C   UNL     1       2.591   3.996  20.526  0.00  0.00    +0.000 A 
ATOM     20 CL   UNL     1       1.960   2.771  21.558  0.00  0.00    +0.000 Cl
ATOM     21  C   UNL     1       1.809   5.091  20.163  0.00  0.00    +0.000 A 
ATOM     22  F   UNL     1       0.555   5.217  20.619  0.00  0.00    +0.000 F 
ATOM     23  C   UNL     1       2.315   6.074  19.322  0.00  0.00    +0.000 A 
ATOM     24  C   UNL     1       3.626   5.970  18.866  0.00  0.00    +0.000 A 
ATOM     25  F   UNL     1       4.095   6.920  18.048  0.00  0.00    +0.000 F 
ENDBRANCH  16  17
ENDBRANCH  11  16
TORSDOF 4
ENDMDL
MODEL 7
REMARK VINA RESULT:      -7.1      3.612      5.323
REMARK  Name = 
REMARK  4 active torsions:
REMARK  status: ('A' for Active; 'I' for Inactive)
REMARK    1  A    between atoms: C_6  and  O_7
REMARK    2  A    between atoms: C_8  and  O_9
REMARK    3  A    between atoms: N_13  and  C_14
REMARK    4  A    between atoms: C_14  and  C_15
REMARK                            x       y       z     vdW  Elec       q    Type
REMARK                         _______ _______ _______ _____ _____    ______ ____
ROOT
ATOM      1  O   UNL     1       1.202   7.462  21.236  0.00  0.00    +0.000 OA
ATOM      2  C   UNL     1       1.695   6.977  20.239  0.00  0.00    +0.000 C 
ATOM      3  C   UNL     1       1.779   5.535  19.983  0.00  0.00    +0.000 A 
ATOM      4  C   UNL     1       1.341   4.465  20.747  0.00  0.00    +0.000 A 
ATOM      5  C   UNL     1       1.511   3.177  20.219  0.00  0.00    +0.000 A 
ATOM      6  C   UNL     1       2.090   3.014  18.950  0.00  0.00    +0.000 A 
ATOM      7  C   UNL     1       2.529   4.110  18.204  0.00  0.00    +0.000 A 
ATOM      8  C   UNL     1       2.383   5.363  18.749  0.00  0.00    +0.000 A 
ATOM      9  C   UNL     1       2.743   6.690  18.251  0.00  0.00    +0.000 C 
ATOM     10  O   UNL     1       3.368   6.922  17.231  0.00  0.00    +0.000 OA
ATOM     11  N   UNL     1       2.260   7.593  19.157  0.00  0.00    +0.000 N 
ENDROOT
BRANCH   6  12
ATOM     12  O   UNL     1       2.243   1.776  18.387  0.00  0.00    +0.000 OA
ATOM     13  H   UNL     1       1.387   1.485  18.024  0.00  0.00    +0.000 HD
ENDBRANCH   6  12
BRANCH   7  14
ATOM     14  O   UNL     1       3.058   3.916  16.966  0.00  0.00    +0.000 OA
ATOM     15  H   UNL     1       2.302   3.921  16.347  0.00  0.00    +0.000 HD
ENDBRANCH   7  14
BRANCH  11  16
ATOM     16  C   UNL     1       2.352   9.029  18.973  0.00  0.00    +0.000 C 
BRANCH  16  17
ATOM     17  C   UNL     1       0.985   9.677  18.917  0.00  0.00    +0.000 A 
ATOM     18  C   UNL     1       0.142   9.509  17.803  0.00  0.00    +0.000 A 
ATOM     19  C   UNL     1      -1.144  10.054  17.800  0.00  0.00    +0.000 A 
ATOM     20 CL   UNL     1      -2.171   9.799  16.443  0.00  0.00    +0.000 Cl
ATOM     21  C   UNL     1      -1.588  10.788  18.898  0.00  0.00    +0.000 A 
ATOM     22  F   UNL     1      -2.826  11.301  18.923  0.00  0.00    +0.000 F 
ATOM     23  C   UNL     1      -0.754  11.002  19.989  0.00  0.00    +0.000 A 
ATOM     24  C   UNL     1       0.523  10.449  19.988  0.00  0.00    +0.000 A 
ATOM     25  F   UNL     1       1.317  10.674  21.042  0.00  0.00    +0.000 F 
ENDBRANCH  16  17
ENDBRANCH  11  16
TORSDOF 4
ENDMDL
MODEL 8
REMARK VINA RESULT:      -7.0      4.500      7.427
REMARK  Name = 
REMARK  4 active torsions:
REMARK  status: ('A' for Active; 'I' for Inactive)
REMARK    1  A    between atoms: C_6  and  O_7
REMARK    2  A    between atoms: C_8  and  O_9
REMARK    3  A    between atoms: N_13  and  C_14
REMARK    4  A    between atoms: C_14  and  C_15
REMARK                            x       y       z     vdW  Elec       q    Type
REMARK                         _______ _______ _______ _____ _____    ______ ____
ROOT
ATOM      1  O   UNL     1       2.204   8.744  17.329  0.00  0.00    +0.000 OA
ATOM      2  C   UNL     1       1.799   8.803  18.471  0.00  0.00    +0.000 C 
ATOM      3  C   UNL     1       0.776   9.748  18.932  0.00  0.00    +0.000 A 
ATOM      4  C   UNL     1       0.073  10.717  18.231  0.00  0.00    +0.000 A 
ATOM      5  C   UNL     1      -0.896  11.449  18.931  0.00  0.00    +0.000 A 
ATOM      6  C   UNL     1      -1.136  11.172  20.287  0.00  0.00    +0.000 A 
ATOM      7  C   UNL     1      -0.408  10.196  20.971  0.00  0.00    +0.000 A 
ATOM      8  C   UNL     1       0.560   9.508  20.278  0.00  0.00    +0.000 A 
ATOM      9  C   UNL     1       1.491   8.458  20.689  0.00  0.00    +0.000 C 
ATOM     10  O   UNL     1       1.643   8.048  21.826  0.00  0.00    +0.000 OA
ATOM     11  N   UNL     1       2.150   8.056  19.561  0.00  0.00    +0.000 N 
ENDROOT
BRANCH   6  12
ATOM     12  O   UNL     1      -2.096  11.843  20.995  0.00  0.00    +0.000 OA
ATOM     13  H   UNL     1      -1.711  12.157  21.832  0.00  0.00    +0.000 HD
ENDBRANCH   6  12
BRANCH   7  14
ATOM     14  O   UNL     1      -0.687   9.936  22.276  0.00  0.00    +0.000 OA
ATOM     15  H   UNL     1       0.108   9.497  22.638  0.00  0.00    +0.000 HD
ENDBRANCH   7  14
BRANCH  11  16
ATOM     16  C   UNL     1       3.108   6.967  19.547  0.00  0.00    +0.000 C 
BRANCH  16  17
ATOM     17  C   UNL     1       2.428   5.621  19.417  0.00  0.00    +0.000 A 
ATOM     18  C   UNL     1       2.143   4.833  20.548  0.00  0.00    +0.000 A 
ATOM     19  C   UNL     1       1.450   3.629  20.415  0.00  0.00    +0.000 A 
ATOM     20 CL   UNL     1       1.077   2.704  21.818  0.00  0.00    +0.000 Cl
ATOM     21  C   UNL     1       1.057   3.191  19.151  0.00  0.00    +0.000 A 
ATOM     22  F   UNL     1       0.372   2.048  19.005  0.00  0.00    +0.000 F 
ATOM     23  C   UNL     1       1.367   3.933  18.019  0.00  0.00    +0.000 A 
ATOM     24  C   UNL     1       2.051   5.136  18.160  0.00  0.00    +0.000 A 
ATOM     25  F   UNL     1       2.352   5.834  17.057  0.00  0.00    +0.000 F 
ENDBRANCH  16  17
ENDBRANCH  11  16
TORSDOF 4
ENDMDL
MODEL 9
REMARK VINA RESULT:      -7.0      3.938      6.047
REMARK  Name = 
REMARK  4 active torsions:
REMARK  status: ('A' for Active; 'I' for Inactive)
REMARK    1  A    between atoms: C_6  and  O_7
REMARK    2  A    between atoms: C_8  and  O_9
REMARK    3  A    between atoms: N_13  and  C_14
REMARK    4  A    between atoms: C_14  and  C_15
REMARK                            x       y       z     vdW  Elec       q    Type
REMARK                         _______ _______ _______ _____ _____    ______ ____
ROOT
ATOM      1  O   UNL     1       2.214   9.622  17.453  0.00  0.00    +0.000 OA
ATOM      2  C   UNL     1       2.098   8.870  18.397  0.00  0.00    +0.000 C 
ATOM      3  C   UNL     1       2.605   7.493  18.418  0.00  0.00    +0.000 A 
ATOM      4  C   UNL     1       3.293   6.780  17.448  0.00  0.00    +0.000 A 
ATOM      5  C   UNL     1       3.704   5.479  17.769  0.00  0.00    +0.000 A 
ATOM      6  C   UNL     1       3.430   4.954  19.042  0.00  0.00    +0.000 A 
ATOM      7  C   UNL     1       2.729   5.692  19.999  0.00  0.00    +0.000 A 
ATOM      8  C   UNL     1       2.307   6.955  19.658  0.00  0.00    +0.000 A 
ATOM      9  C   UNL     1       1.552   7.963  20.401  0.00  0.00    +0.000 C 
ATOM     10  O   UNL     1       1.050   7.809  21.500  0.00  0.00    +0.000 OA
ATOM     11  N   UNL     1       1.515   9.082  19.616  0.00  0.00    +0.000 N 
ENDROOT
BRANCH   6  12
ATOM     12  O   UNL     1       3.844   3.700  19.403  0.00  0.00    +0.000 OA
ATOM     13  H   UNL     1       4.153   3.228  18.610  0.00  0.00    +0.000 HD
ENDBRANCH   6  12
BRANCH   7  14
ATOM     14  O   UNL     1       2.508   5.163  21.231  0.00  0.00    +0.000 OA
ATOM     15  H   UNL     1       2.900   5.792  21.868  0.00  0.00    +0.000 HD
ENDBRANCH   7  14
BRANCH  11  16
ATOM     16  C   UNL     1       0.917  10.332  20.044  0.00  0.00    +0.000 C 
BRANCH  16  17
ATOM     17  C   UNL     1      -0.242  10.733  19.157  0.00  0.00    +0.000 A 
ATOM     18  C   UNL     1      -1.294   9.840  18.880  0.00  0.00    +0.000 A 
ATOM     19  C   UNL     1      -2.390  10.251  18.119  0.00  0.00    +0.000 A 
ATOM     20 CL   UNL     1      -3.683   9.153  17.830  0.00  0.00    +0.000 Cl
ATOM     21  C   UNL     1      -2.433  11.548  17.611  0.00  0.00    +0.000 A 
ATOM     22  F   UNL     1      -3.487  11.969  16.897  0.00  0.00    +0.000 F 
ATOM     23  C   UNL     1      -1.385  12.431  17.837  0.00  0.00    +0.000 A 
ATOM     24  C   UNL     1      -0.299  12.016  18.602  0.00  0.00    +0.000 A 
ATOM     25  F   UNL     1       0.708  12.876  18.801  0.00  0.00    +0.000 F 
ENDBRANCH  16  17
ENDBRANCH  11  16
TORSDOF 4
ENDMDL
