MODEL 1
REMARK VINA RESULT:      -8.7      0.000      0.000
REMARK  Name = 
REMARK  12 active torsions:
REMARK  status: ('A' for Active; 'I' for Inactive)
REMARK    1  A    between atoms: C_1  and  O_2
REMARK    2  A    between atoms: O_2  and  C_3
REMARK    3  A    between atoms: C_5  and  C_6
REMARK    4  A    between atoms: C_9  and  C_10
REMARK    5  A    between atoms: C_15  and  C_16
REMARK    6  A    between atoms: C_16  and  O_17
REMARK    7  A    between atoms: O_17  and  C_18
REMARK    8  A    between atoms: C_22  and  C_23
REMARK    9  A    between atoms: C_27  and  O_28
REMARK   10  A    between atoms: O_28  and  C_29
REMARK   11  A    between atoms: C_30  and  O_31
REMARK   12  A    between atoms: O_31  and  C_32
REMARK                            x       y       z     vdW  Elec       q    Type
REMARK                         _______ _______ _______ _____ _____    ______ ____
ROOT
ATOM      1  C   UNL     1       2.336   7.131  19.032  0.00  0.00    +0.000 A 
ATOM      2  N   UNL     1       2.460   8.110  18.158  0.00  0.00    +0.000 NA
ATOM      3  N   UNL     1       1.810   9.200  18.697  0.00  0.00    +0.000 NA
ATOM      4  C   UNL     1       1.334   8.826  19.867  0.00  0.00    +0.000 A 
ATOM      5  O   UNL     1       1.625   7.508  20.140  0.00  0.00    +0.000 OA
ENDROOT
BRANCH   1   8
ATOM      6  C   UNL     1       5.035   4.526  19.191  0.00  0.00    +0.000 A 
ATOM      7  C   UNL     1       4.355   5.730  18.943  0.00  0.00    +0.000 A 
ATOM      8  C   UNL     1       2.966   5.817  19.047  0.00  0.00    +0.000 A 
ATOM      9  C   UNL     1       2.252   4.637  19.254  0.00  0.00    +0.000 A 
ATOM     10  C   UNL     1       2.904   3.398  19.402  0.00  0.00    +0.000 A 
ATOM     11  C   UNL     1       4.315   3.331  19.394  0.00  0.00    +0.000 A 
BRANCH   6  13
ATOM     12  C   UNL     1       7.038   4.922  17.991  0.00  0.00    +0.000 C 
ATOM     13  O   UNL     1       6.407   4.517  19.209  0.00  0.00    +0.000 OA
ENDBRANCH   6  13
BRANCH  10  14
ATOM     14  O   UNL     1       1.998   2.379  19.579  0.00  0.00    +0.000 OA
ATOM     15  C   UNL     1       0.804   2.359  18.811  0.00  0.00    +0.000 C 
ENDBRANCH  10  14
BRANCH  11  16
ATOM     16  O   UNL     1       4.861   2.090  19.581  0.00  0.00    +0.000 OA
ATOM     17  C   UNL     1       5.019   1.550  20.882  0.00  0.00    +0.000 C 
ENDBRANCH  11  16
ENDBRANCH   1   8
BRANCH   4  18
ATOM     18  C   UNL     1       0.589   9.567  20.891  0.00  0.00    +0.000 A 
ATOM     19  C   UNL     1       0.519   9.039  22.200  0.00  0.00    +0.000 A 
ATOM     20  C   UNL     1      -0.216   9.664  23.209  0.00  0.00    +0.000 A 
ATOM     21  C   UNL     1      -0.909  10.834  22.933  0.00  0.00    +0.000 A 
ATOM     22  C   UNL     1      -0.840  11.391  21.658  0.00  0.00    +0.000 A 
ATOM     23  C   UNL     1      -0.076  10.790  20.632  0.00  0.00    +0.000 A 
BRANCH  23  24
ATOM     24  C   UNL     1      -0.052  11.499  19.291  0.00  0.00    +0.000 C 
BRANCH  24  25
ATOM     25  O   UNL     1      -1.236  12.280  19.180  0.00  0.00    +0.000 OA
BRANCH  25  26
ATOM     26  C   UNL     1      -2.221  11.816  18.352  0.00  0.00    +0.000 A 
ATOM     27  C   UNL     1      -3.507  11.893  18.892  0.00  0.00    +0.000 A 
ATOM     28  C   UNL     1      -4.614  11.443  18.165  0.00  0.00    +0.000 A 
ATOM     29  C   UNL     1      -4.439  10.920  16.888  0.00  0.00    +0.000 A 
ATOM     30  C   UNL     1      -3.159  10.839  16.327  0.00  0.00    +0.000 A 
ATOM     31  C   UNL     1      -2.963  10.275  14.951  0.00  0.00    +0.000 C 
ATOM     32  C   UNL     1      -2.051  11.290  17.068  0.00  0.00    +0.000 A 
ENDBRANCH  25  26
ENDBRANCH  24  25
ENDBRANCH  23  24
ENDBRANCH   4  18
TORSDOF 8
ENDMDL
MODEL 2
REMARK VINA RESULT:      -8.6      1.639      9.025
REMARK  Name = 
REMARK  12 active torsions:
REMARK  status: ('A' for Active; 'I' for Inactive)
REMARK    1  A    between atoms: C_1  and  O_2
REMARK    2  A    between atoms: O_2  and  C_3
REMARK    3  A    between atoms: C_5  and  C_6
REMARK    4  A    between atoms: C_9  and  C_10
REMARK    5  A    between atoms: C_15  and  C_16
REMARK    6  A    between atoms: C_16  and  O_17
REMARK    7  A    between atoms: O_17  and  C_18
REMARK    8  A    between atoms: C_22  and  C_23
REMARK    9  A    between atoms: C_27  and  O_28
REMARK   10  A    between atoms: O_28  and  C_29
REMARK   11  A    between atoms: C_30  and  O_31
REMARK   12  A    between atoms: O_31  and  C_32
REMARK                            x       y       z     vdW  Elec       q    Type
REMARK                         _______ _______ _______ _____ _____    ______ ____
ROOT
ATOM      1  C   UNL     1       2.060   8.184  18.759  0.00  0.00    +0.000 A 
ATOM      2  N   UNL     1       2.982   8.178  17.818  0.00  0.00    +0.000 NA
ATOM      3  N   UNL     1       3.335   6.859  17.624  0.00  0.00    +0.000 NA
ATOM      4  C   UNL     1       2.605   6.139  18.451  0.00  0.00    +0.000 A 
ATOM      5  O   UNL     1       1.774   6.926  19.217  0.00  0.00    +0.000 OA
ENDROOT
BRANCH   1   8
ATOM      6  C   UNL     1      -0.539  10.893  18.737  0.00  0.00    +0.000 A 
ATOM      7  C   UNL     1       0.454   9.993  18.317  0.00  0.00    +0.000 A 
ATOM      8  C   UNL     1       1.228   9.282  19.235  0.00  0.00    +0.000 A 
ATOM      9  C   UNL     1       1.095   9.601  20.587  0.00  0.00    +0.000 A 
ATOM     10  C   UNL     1       0.180  10.576  21.027  0.00  0.00    +0.000 A 
ATOM     11  C   UNL     1      -0.671  11.222  20.102  0.00  0.00    +0.000 A 
BRANCH   6  13
ATOM     12  C   UNL     1      -2.526  10.706  17.463  0.00  0.00    +0.000 C 
ATOM     13  O   UNL     1      -1.367  11.469  17.806  0.00  0.00    +0.000 OA
ENDBRANCH   6  13
BRANCH  10  14
ATOM     14  O   UNL     1       0.238  10.730  22.391  0.00  0.00    +0.000 OA
ATOM     15  C   UNL     1      -0.336   9.744  23.235  0.00  0.00    +0.000 C 
ENDBRANCH  10  14
BRANCH  11  16
ATOM     16  O   UNL     1      -1.553  12.127  20.626  0.00  0.00    +0.000 OA
ATOM     17  C   UNL     1      -1.222  13.503  20.718  0.00  0.00    +0.000 C 
ENDBRANCH  11  16
ENDBRANCH   1   8
BRANCH   4  18
ATOM     18  C   UNL     1       2.528   4.689  18.663  0.00  0.00    +0.000 A 
ATOM     19  C   UNL     1       1.392   3.991  18.198  0.00  0.00    +0.000 A 
ATOM     20  C   UNL     1       1.229   2.621  18.413  0.00  0.00    +0.000 A 
ATOM     21  C   UNL     1       2.198   1.912  19.107  0.00  0.00    +0.000 A 
ATOM     22  C   UNL     1       3.342   2.570  19.557  0.00  0.00    +0.000 A 
ATOM     23  C   UNL     1       3.539   3.949  19.322  0.00  0.00    +0.000 A 
BRANCH  23  24
ATOM     24  C   UNL     1       4.833   4.552  19.835  0.00  0.00    +0.000 C 
BRANCH  24  25
ATOM     25  O   UNL     1       5.912   3.975  19.108  0.00  0.00    +0.000 OA
BRANCH  25  26
ATOM     26  C   UNL     1       6.225   4.530  17.898  0.00  0.00    +0.000 A 
ATOM     27  C   UNL     1       6.847   5.777  17.982  0.00  0.00    +0.000 A 
ATOM     28  C   UNL     1       7.214   6.471  16.826  0.00  0.00    +0.000 A 
ATOM     29  C   UNL     1       6.966   5.915  15.575  0.00  0.00    +0.000 A 
ATOM     30  C   UNL     1       6.348   4.663  15.469  0.00  0.00    +0.000 A 
ATOM     31  C   UNL     1       6.077   4.058  14.123  0.00  0.00    +0.000 C 
ATOM     32  C   UNL     1       5.979   3.975  16.638  0.00  0.00    +0.000 A 
ENDBRANCH  25  26
ENDBRANCH  24  25
ENDBRANCH  23  24
ENDBRANCH   4  18
TORSDOF 8
ENDMDL
MODEL 3
REMARK VINA RESULT:      -8.5      1.270      2.263
REMARK  Name = 
REMARK  12 active torsions:
REMARK  status: ('A' for Active; 'I' for Inactive)
REMARK    1  A    between atoms: C_1  and  O_2
REMARK    2  A    between atoms: O_2  and  C_3
REMARK    3  A    between atoms: C_5  and  C_6
REMARK    4  A    between atoms: C_9  and  C_10
REMARK    5  A    between atoms: C_15  and  C_16
REMARK    6  A    between atoms: C_16  and  O_17
REMARK    7  A    between atoms: O_17  and  C_18
REMARK    8  A    between atoms: C_22  and  C_23
REMARK    9  A    between atoms: C_27  and  O_28
REMARK   10  A    between atoms: O_28  and  C_29
REMARK   11  A    between atoms: C_30  and  O_31
REMARK   12  A    between atoms: O_31  and  C_32
REMARK                            x       y       z     vdW  Elec       q    Type
REMARK                         _______ _______ _______ _____ _____    ______ ____
ROOT
ATOM      1  C   UNL     1       1.992   7.836  19.039  0.00  0.00    +0.000 A 
ATOM      2  N   UNL     1       2.055   8.839  18.187  0.00  0.00    +0.000 NA
ATOM      3  N   UNL     1       1.372   9.888  18.764  0.00  0.00    +0.000 NA
ATOM      4  C   UNL     1       0.937   9.468  19.935  0.00  0.00    +0.000 A 
ATOM      5  O   UNL     1       1.290   8.157  20.171  0.00  0.00    +0.000 OA
ENDROOT
BRANCH   1   8
ATOM      6  C   UNL     1       2.962   4.346  20.025  0.00  0.00    +0.000 A 
ATOM      7  C   UNL     1       2.532   5.681  20.094  0.00  0.00    +0.000 A 
ATOM      8  C   UNL     1       2.676   6.550  19.011  0.00  0.00    +0.000 A 
ATOM      9  C   UNL     1       3.400   6.101  17.906  0.00  0.00    +0.000 A 
ATOM     10  C   UNL     1       3.934   4.799  17.855  0.00  0.00    +0.000 A 
ATOM     11  C   UNL     1       3.700   3.892  18.913  0.00  0.00    +0.000 A 
BRANCH   6  13
ATOM     12  C   UNL     1       1.386   2.885  21.020  0.00  0.00    +0.000 C 
ATOM     13  O   UNL     1       2.680   3.492  21.062  0.00  0.00    +0.000 OA
ENDBRANCH   6  13
BRANCH  10  14
ATOM     14  O   UNL     1       4.618   4.590  16.682  0.00  0.00    +0.000 OA
ATOM     15  C   UNL     1       5.398   5.637  16.126  0.00  0.00    +0.000 C 
ENDBRANCH  10  14
BRANCH  11  16
ATOM     16  O   UNL     1       4.226   2.638  18.759  0.00  0.00    +0.000 OA
ATOM     17  C   UNL     1       3.471   1.597  18.161  0.00  0.00    +0.000 C 
ENDBRANCH  11  16
ENDBRANCH   1   8
BRANCH   4  18
ATOM     18  C   UNL     1       0.185  10.153  20.992  0.00  0.00    +0.000 A 
ATOM     19  C   UNL     1       0.029   9.516  22.242  0.00  0.00    +0.000 A 
ATOM     20  C   UNL     1      -0.719  10.087  23.273  0.00  0.00    +0.000 A 
ATOM     21  C   UNL     1      -1.340  11.312  23.078  0.00  0.00    +0.000 A 
ATOM     22  C   UNL     1      -1.184  11.975  21.863  0.00  0.00    +0.000 A 
ATOM     23  C   UNL     1      -0.406  11.429  20.818  0.00  0.00    +0.000 A 
BRANCH  23  24
ATOM     24  C   UNL     1      -0.285  12.252  19.550  0.00  0.00    +0.000 C 
BRANCH  24  25
ATOM     25  O   UNL     1      -1.552  12.840  19.279  0.00  0.00    +0.000 OA
BRANCH  25  26
ATOM     26  C   UNL     1      -2.429  12.121  18.514  0.00  0.00    +0.000 A 
ATOM     27  C   UNL     1      -3.729  12.073  19.022  0.00  0.00    +0.000 A 
ATOM     28  C   UNL     1      -4.731  11.364  18.353  0.00  0.00    +0.000 A 
ATOM     29  C   UNL     1      -4.438  10.704  17.164  0.00  0.00    +0.000 A 
ATOM     30  C   UNL     1      -3.143  10.745  16.635  0.00  0.00    +0.000 A 
ATOM     31  C   UNL     1      -2.819  10.034  15.354  0.00  0.00    +0.000 C 
ATOM     32  C   UNL     1      -2.140  11.457  17.318  0.00  0.00    +0.000 A 
ENDBRANCH  25  26
ENDBRANCH  24  25
ENDBRANCH  23  24
ENDBRANCH   4  18
TORSDOF 8
ENDMDL
MODEL 4
REMARK VINA RESULT:      -8.5      2.618      9.100
REMARK  Name = 
REMARK  12 active torsions:
REMARK  status: ('A' for Active; 'I' for Inactive)
REMARK    1  A    between atoms: C_1  and  O_2
REMARK    2  A    between atoms: O_2  and  C_3
REMARK    3  A    between atoms: C_5  and  C_6
REMARK    4  A    between atoms: C_9  and  C_10
REMARK    5  A    between atoms: C_15  and  C_16
REMARK    6  A    between atoms: C_16  and  O_17
REMARK    7  A    between atoms: O_17  and  C_18
REMARK    8  A    between atoms: C_22  and  C_23
REMARK    9  A    between atoms: C_27  and  O_28
REMARK   10  A    between atoms: O_28  and  C_29
REMARK   11  A    between atoms: C_30  and  O_31
REMARK   12  A    between atoms: O_31  and  C_32
REMARK                            x       y       z     vdW  Elec       q    Type
REMARK                         _______ _______ _______ _____ _____    ______ ____
ROOT
ATOM      1  C   UNL     1       1.939   8.247  19.022  0.00  0.00    +0.000 A 
ATOM      2  N   UNL     1       2.540   7.908  17.900  0.00  0.00    +0.000 NA
ATOM      3  N   UNL     1       2.859   6.571  18.014  0.00  0.00    +0.000 NA
ATOM      4  C   UNL     1       2.429   6.172  19.194  0.00  0.00    +0.000 A 
ATOM      5  O   UNL     1       1.839   7.198  19.897  0.00  0.00    +0.000 OA
ENDROOT
BRANCH   1   8
ATOM      6  C   UNL     1      -0.105  10.701  20.995  0.00  0.00    +0.000 A 
ATOM      7  C   UNL     1       0.393   9.498  20.468  0.00  0.00    +0.000 A 
ATOM      8  C   UNL     1       1.253   9.485  19.369  0.00  0.00    +0.000 A 
ATOM      9  C   UNL     1       1.486  10.692  18.708  0.00  0.00    +0.000 A 
ATOM     10  C   UNL     1       0.913  11.898  19.155  0.00  0.00    +0.000 A 
ATOM     11  C   UNL     1       0.123  11.920  20.325  0.00  0.00    +0.000 A 
BRANCH   6  13
ATOM     12  C   UNL     1      -0.374   9.764  23.154  0.00  0.00    +0.000 C 
ATOM     13  O   UNL     1      -0.837  10.678  22.156  0.00  0.00    +0.000 OA
ENDBRANCH   6  13
BRANCH  10  14
ATOM     14  O   UNL     1       1.270  12.946  18.340  0.00  0.00    +0.000 OA
ATOM     15  C   UNL     1       2.642  13.227  18.115  0.00  0.00    +0.000 C 
ENDBRANCH  10  14
BRANCH  11  16
ATOM     16  O   UNL     1      -0.360  13.144  20.703  0.00  0.00    +0.000 OA
ATOM     17  C   UNL     1       0.371  13.978  21.586  0.00  0.00    +0.000 C 
ENDBRANCH  11  16
ENDBRANCH   1   8
BRANCH   4  18
ATOM     18  C   UNL     1       2.462   4.856  19.841  0.00  0.00    +0.000 A 
ATOM     19  C   UNL     1       1.382   4.475  20.667  0.00  0.00    +0.000 A 
ATOM     20  C   UNL     1       1.373   3.260  21.356  0.00  0.00    +0.000 A 
ATOM     21  C   UNL     1       2.451   2.395  21.243  0.00  0.00    +0.000 A 
ATOM     22  C   UNL     1       3.521   2.734  20.416  0.00  0.00    +0.000 A 
ATOM     23  C   UNL     1       3.535   3.944  19.687  0.00  0.00    +0.000 A 
BRANCH  23  24
ATOM     24  C   UNL     1       4.739   4.195  18.799  0.00  0.00    +0.000 C 
BRANCH  24  25
ATOM     25  O   UNL     1       4.461   3.658  17.511  0.00  0.00    +0.000 OA
BRANCH  25  26
ATOM     26  C   UNL     1       5.303   4.004  16.490  0.00  0.00    +0.000 A 
ATOM     27  C   UNL     1       6.328   4.877  16.861  0.00  0.00    +0.000 A 
ATOM     28  C   UNL     1       7.257   5.327  15.919  0.00  0.00    +0.000 A 
ATOM     29  C   UNL     1       7.171   4.897  14.599  0.00  0.00    +0.000 A 
ATOM     30  C   UNL     1       6.155   4.018  14.208  0.00  0.00    +0.000 A 
ATOM     31  C   UNL     1       6.055   3.552  12.785  0.00  0.00    +0.000 C 
ATOM     32  C   UNL     1       5.221   3.574  15.162  0.00  0.00    +0.000 A 
ENDBRANCH  25  26
ENDBRANCH  24  25
ENDBRANCH  23  24
ENDBRANCH   4  18
TORSDOF 8
ENDMDL
MODEL 5
REMARK VINA RESULT:      -8.5      2.131      9.051
REMARK  Name = 
REMARK  12 active torsions:
REMARK  status: ('A' for Active; 'I' for Inactive)
REMARK    1  A    between atoms: C_1  and  O_2
REMARK    2  A    between atoms: O_2  and  C_3
REMARK    3  A    between atoms: C_5  and  C_6
REMARK    4  A    between atoms: C_9  and  C_10
REMARK    5  A    between atoms: C_15  and  C_16
REMARK    6  A    between atoms: C_16  and  O_17
REMARK    7  A    between atoms: O_17  and  C_18
REMARK    8  A    between atoms: C_22  and  C_23
REMARK    9  A    between atoms: C_27  and  O_28
REMARK   10  A    between atoms: O_28  and  C_29
REMARK   11  A    between atoms: C_30  and  O_31
REMARK   12  A    between atoms: O_31  and  C_32
REMARK                            x       y       z     vdW  Elec       q    Type
REMARK                         _______ _______ _______ _____ _____    ______ ____
ROOT
ATOM      1  C   UNL     1       1.871   8.228  19.155  0.00  0.00    +0.000 A 
ATOM      2  N   UNL     1       2.550   7.959  18.059  0.00  0.00    +0.000 NA
ATOM      3  N   UNL     1       2.931   6.636  18.148  0.00  0.00    +0.000 NA
ATOM      4  C   UNL     1       2.457   6.175  19.288  0.00  0.00    +0.000 A 
ATOM      5  O   UNL     1       1.777   7.146  19.989  0.00  0.00    +0.000 OA
ENDROOT
BRANCH   1   8
ATOM      6  C   UNL     1      -0.403  11.187  18.754  0.00  0.00    +0.000 A 
ATOM      7  C   UNL     1       0.536  10.180  18.481  0.00  0.00    +0.000 A 
ATOM      8  C   UNL     1       1.105   9.418  19.503  0.00  0.00    +0.000 A 
ATOM      9  C   UNL     1       0.832   9.785  20.820  0.00  0.00    +0.000 A 
ATOM     10  C   UNL     1      -0.025  10.860  21.123  0.00  0.00    +0.000 A 
ATOM     11  C   UNL     1      -0.676  11.565  20.085  0.00  0.00    +0.000 A 
BRANCH   6  13
ATOM     12  C   UNL     1      -2.247  11.201  17.267  0.00  0.00    +0.000 C 
ATOM     13  O   UNL     1      -1.037  11.820  17.714  0.00  0.00    +0.000 OA
ENDBRANCH   6  13
BRANCH  10  14
ATOM     14  O   UNL     1      -0.129  11.045  22.481  0.00  0.00    +0.000 OA
ATOM     15  C   UNL     1      -0.424   9.938  23.320  0.00  0.00    +0.000 C 
ENDBRANCH  10  14
BRANCH  11  16
ATOM     16  O   UNL     1      -1.519  12.570  20.476  0.00  0.00    +0.000 OA
ATOM     17  C   UNL     1      -1.098  13.924  20.464  0.00  0.00    +0.000 C 
ENDBRANCH  11  16
ENDBRANCH   1   8
BRANCH   4  18
ATOM     18  C   UNL     1       2.522   4.841  19.894  0.00  0.00    +0.000 A 
ATOM     19  C   UNL     1       1.475   4.426  20.746  0.00  0.00    +0.000 A 
ATOM     20  C   UNL     1       1.498   3.192  21.398  0.00  0.00    +0.000 A 
ATOM     21  C   UNL     1       2.577   2.339  21.220  0.00  0.00    +0.000 A 
ATOM     22  C   UNL     1       3.615   2.710  20.367  0.00  0.00    +0.000 A 
ATOM     23  C   UNL     1       3.594   3.942  19.674  0.00  0.00    +0.000 A 
BRANCH  23  24
ATOM     24  C   UNL     1       4.764   4.228  18.752  0.00  0.00    +0.000 C 
BRANCH  24  25
ATOM     25  O   UNL     1       4.446   3.725  17.460  0.00  0.00    +0.000 OA
BRANCH  25  26
ATOM     26  C   UNL     1       5.281   4.060  16.430  0.00  0.00    +0.000 A 
ATOM     27  C   UNL     1       6.282   4.971  16.775  0.00  0.00    +0.000 A 
ATOM     28  C   UNL     1       7.202   5.416  15.822  0.00  0.00    +0.000 A 
ATOM     29  C   UNL     1       7.130   4.943  14.515  0.00  0.00    +0.000 A 
ATOM     30  C   UNL     1       6.138   4.025  14.150  0.00  0.00    +0.000 A 
ATOM     31  C   UNL     1       6.054   3.513  12.743  0.00  0.00    +0.000 C 
ATOM     32  C   UNL     1       5.214   3.588  15.116  0.00  0.00    +0.000 A 
ENDBRANCH  25  26
ENDBRANCH  24  25
ENDBRANCH  23  24
ENDBRANCH   4  18
TORSDOF 8
ENDMDL
MODEL 6
REMARK VINA RESULT:      -8.4      0.918      2.581
REMARK  Name = 
REMARK  12 active torsions:
REMARK  status: ('A' for Active; 'I' for Inactive)
REMARK    1  A    between atoms: C_1  and  O_2
REMARK    2  A    between atoms: O_2  and  C_3
REMARK    3  A    between atoms: C_5  and  C_6
REMARK    4  A    between atoms: C_9  and  C_10
REMARK    5  A    between atoms: C_15  and  C_16
REMARK    6  A    between atoms: C_16  and  O_17
REMARK    7  A    between atoms: O_17  and  C_18
REMARK    8  A    between atoms: C_22  and  C_23
REMARK    9  A    between atoms: C_27  and  O_28
REMARK   10  A    between atoms: O_28  and  C_29
REMARK   11  A    between atoms: C_30  and  O_31
REMARK   12  A    between atoms: O_31  and  C_32
REMARK                            x       y       z     vdW  Elec       q    Type
REMARK                         _______ _______ _______ _____ _____    ______ ____
ROOT
ATOM      1  C   UNL     1       2.319   7.110  19.480  0.00  0.00    +0.000 A 
ATOM      2  N   UNL     1       2.439   8.013  18.528  0.00  0.00    +0.000 NA
ATOM      3  N   UNL     1       1.757   9.130  18.961  0.00  0.00    +0.000 NA
ATOM      4  C   UNL     1       1.267   8.847  20.151  0.00  0.00    +0.000 A 
ATOM      5  O   UNL     1       1.580   7.564  20.540  0.00  0.00    +0.000 OA
ENDROOT
BRANCH   1   8
ATOM      6  C   UNL     1       2.749   3.434  20.112  0.00  0.00    +0.000 A 
ATOM      7  C   UNL     1       2.263   4.750  20.171  0.00  0.00    +0.000 A 
ATOM      8  C   UNL     1       2.975   5.816  19.618  0.00  0.00    +0.000 A 
ATOM      9  C   UNL     1       4.260   5.562  19.138  0.00  0.00    +0.000 A 
ATOM     10  C   UNL     1       4.814   4.268  19.162  0.00  0.00    +0.000 A 
ATOM     11  C   UNL     1       4.050   3.176  19.633  0.00  0.00    +0.000 A 
BRANCH   6  13
ATOM     12  C   UNL     1       1.369   2.583  21.838  0.00  0.00    +0.000 C 
ATOM     13  O   UNL     1       1.957   2.401  20.547  0.00  0.00    +0.000 OA
ENDBRANCH   6  13
BRANCH  10  14
ATOM     14  O   UNL     1       6.090   4.265  18.654  0.00  0.00    +0.000 OA
ATOM     15  C   UNL     1       6.372   4.974  17.456  0.00  0.00    +0.000 C 
ENDBRANCH  10  14
BRANCH  11  16
ATOM     16  O   UNL     1       4.657   1.951  19.584  0.00  0.00    +0.000 OA
ATOM     17  C   UNL     1       4.239   0.964  18.656  0.00  0.00    +0.000 C 
ENDBRANCH  11  16
ENDBRANCH   1   8
BRANCH   4  18
ATOM     18  C   UNL     1       0.489   9.656  21.095  0.00  0.00    +0.000 A 
ATOM     19  C   UNL     1       0.237   9.144  22.387  0.00  0.00    +0.000 A 
ATOM     20  C   UNL     1      -0.540   9.837  23.317  0.00  0.00    +0.000 A 
ATOM     21  C   UNL     1      -1.096  11.061  22.975  0.00  0.00    +0.000 A 
ATOM     22  C   UNL     1      -0.846  11.602  21.716  0.00  0.00    +0.000 A 
ATOM     23  C   UNL     1      -0.036  10.931  20.772  0.00  0.00    +0.000 A 
BRANCH  23  24
ATOM     24  C   UNL     1       0.189  11.628  19.444  0.00  0.00    +0.000 C 
BRANCH  24  25
ATOM     25  O   UNL     1      -1.009  12.310  19.091  0.00  0.00    +0.000 OA
BRANCH  25  26
ATOM     26  C   UNL     1      -1.960  11.601  18.409  0.00  0.00    +0.000 A 
ATOM     27  C   UNL     1      -1.444  10.628  17.550  0.00  0.00    +0.000 A 
ATOM     28  C   UNL     1      -2.296   9.834  16.777  0.00  0.00    +0.000 A 
ATOM     29  C   UNL     1      -3.674  10.005  16.867  0.00  0.00    +0.000 A 
ATOM     30  C   UNL     1      -4.211  10.971  17.726  0.00  0.00    +0.000 A 
ATOM     31  C   UNL     1      -5.696  11.162  17.826  0.00  0.00    +0.000 C 
ATOM     32  C   UNL     1      -3.345  11.768  18.496  0.00  0.00    +0.000 A 
ENDBRANCH  25  26
ENDBRANCH  24  25
ENDBRANCH  23  24
ENDBRANCH   4  18
TORSDOF 8
ENDMDL
MODEL 7
REMARK VINA RESULT:      -8.4      1.424      2.562
REMARK  Name = 
REMARK  12 active torsions:
REMARK  status: ('A' for Active; 'I' for Inactive)
REMARK    1  A    between atoms: C_1  and  O_2
REMARK    2  A    between atoms: O_2  and  C_3
REMARK    3  A    between atoms: C_5  and  C_6
REMARK    4  A    between atoms: C_9  and  C_10
REMARK    5  A    between atoms: C_15  and  C_16
REMARK    6  A    between atoms: C_16  and  O_17
REMARK    7  A    between atoms: O_17  and  C_18
REMARK    8  A    between atoms: C_22  and  C_23
REMARK    9  A    between atoms: C_27  and  O_28
REMARK   10  A    between atoms: O_28  and  C_29
REMARK   11  A    between atoms: C_30  and  O_31
REMARK   12  A    between atoms: O_31  and  C_32
REMARK                            x       y       z     vdW  Elec       q    Type
REMARK                         _______ _______ _______ _____ _____    ______ ____
ROOT
ATOM      1  C   UNL     1       2.401   7.995  18.336  0.00  0.00    +0.000 A 
ATOM      2  N   UNL     1       1.824   8.820  17.486  0.00  0.00    +0.000 NA
ATOM      3  N   UNL     1       0.962   9.604  18.224  0.00  0.00    +0.000 NA
ATOM      4  C   UNL     1       1.068   9.217  19.479  0.00  0.00    +0.000 A 
ATOM      5  O   UNL     1       1.965   8.182  19.621  0.00  0.00    +0.000 OA
ENDROOT
BRANCH   1   8
ATOM      6  C   UNL     1       4.647   5.027  18.829  0.00  0.00    +0.000 A 
ATOM      7  C   UNL     1       3.761   6.087  19.083  0.00  0.00    +0.000 A 
ATOM      8  C   UNL     1       3.507   7.071  18.125  0.00  0.00    +0.000 A 
ATOM      9  C   UNL     1       4.275   7.060  16.961  0.00  0.00    +0.000 A 
ATOM     10  C   UNL     1       5.246   6.068  16.727  0.00  0.00    +0.000 A 
ATOM     11  C   UNL     1       5.429   5.019  17.656  0.00  0.00    +0.000 A 
BRANCH   6  13
ATOM     12  C   UNL     1       3.831   2.938  19.590  0.00  0.00    +0.000 C 
ATOM     13  O   UNL     1       4.764   4.011  19.744  0.00  0.00    +0.000 OA
ENDBRANCH   6  13
BRANCH  10  14
ATOM     14  O   UNL     1       5.885   6.272  15.527  0.00  0.00    +0.000 OA
ATOM     15  C   UNL     1       5.736   5.324  14.482  0.00  0.00    +0.000 C 
ENDBRANCH  10  14
BRANCH  11  16
ATOM     16  O   UNL     1       6.368   4.080  17.326  0.00  0.00    +0.000 OA
ATOM     17  C   UNL     1       7.751   4.330  17.519  0.00  0.00    +0.000 C 
ENDBRANCH  11  16
ENDBRANCH   1   8
BRANCH   4  18
ATOM     18  C   UNL     1       0.421   9.707  20.701  0.00  0.00    +0.000 A 
ATOM     19  C   UNL     1       0.561   8.963  21.894  0.00  0.00    +0.000 A 
ATOM     20  C   UNL     1      -0.071   9.343  23.079  0.00  0.00    +0.000 A 
ATOM     21  C   UNL     1      -0.868  10.478  23.102  0.00  0.00    +0.000 A 
ATOM     22  C   UNL     1      -1.006  11.245  21.947  0.00  0.00    +0.000 A 
ATOM     23  C   UNL     1      -0.349  10.895  20.746  0.00  0.00    +0.000 A 
BRANCH  23  24
ATOM     24  C   UNL     1      -0.550  11.819  19.560  0.00  0.00    +0.000 C 
BRANCH  24  25
ATOM     25  O   UNL     1      -1.898  12.275  19.575  0.00  0.00    +0.000 OA
BRANCH  25  26
ATOM     26  C   UNL     1      -2.716  11.859  18.561  0.00  0.00    +0.000 A 
ATOM     27  C   UNL     1      -4.079  11.986  18.833  0.00  0.00    +0.000 A 
ATOM     28  C   UNL     1      -5.035  11.589  17.894  0.00  0.00    +0.000 A 
ATOM     29  C   UNL     1      -4.629  11.067  16.670  0.00  0.00    +0.000 A 
ATOM     30  C   UNL     1      -3.267  10.936  16.375  0.00  0.00    +0.000 A 
ATOM     31  C   UNL     1      -2.822  10.373  15.057  0.00  0.00    +0.000 C 
ATOM     32  C   UNL     1      -2.313  11.335  17.328  0.00  0.00    +0.000 A 
ENDBRANCH  25  26
ENDBRANCH  24  25
ENDBRANCH  23  24
ENDBRANCH   4  18
TORSDOF 8
ENDMDL
MODEL 8
REMARK VINA RESULT:      -8.4      2.004      9.106
REMARK  Name = 
REMARK  12 active torsions:
REMARK  status: ('A' for Active; 'I' for Inactive)
REMARK    1  A    between atoms: C_1  and  O_2
REMARK    2  A    between atoms: O_2  and  C_3
REMARK    3  A    between atoms: C_5  and  C_6
REMARK    4  A    between atoms: C_9  and  C_10
REMARK    5  A    between atoms: C_15  and  C_16
REMARK    6  A    between atoms: C_16  and  O_17
REMARK    7  A    between atoms: O_17  and  C_18
REMARK    8  A    between atoms: C_22  and  C_23
REMARK    9  A    between atoms: C_27  and  O_28
REMARK   10  A    between atoms: O_28  and  C_29
REMARK   11  A    between atoms: C_30  and  O_31
REMARK   12  A    between atoms: O_31  and  C_32
REMARK                            x       y       z     vdW  Elec       q    Type
REMARK                         _______ _______ _______ _____ _____    ______ ____
ROOT
ATOM      1  C   UNL     1       1.855   8.527  18.827  0.00  0.00    +0.000 A 
ATOM      2  N   UNL     1       2.766   8.274  17.910  0.00  0.00    +0.000 NA
ATOM      3  N   UNL     1       3.117   6.949  18.060  0.00  0.00    +0.000 NA
ATOM      4  C   UNL     1       2.397   6.469  19.054  0.00  0.00    +0.000 A 
ATOM      5  O   UNL     1       1.574   7.430  19.599  0.00  0.00    +0.000 OA
ENDROOT
BRANCH   1   8
ATOM      6  C   UNL     1      -1.037  10.891  18.455  0.00  0.00    +0.000 A 
ATOM      7  C   UNL     1      -0.073   9.907  18.179  0.00  0.00    +0.000 A 
ATOM      8  C   UNL     1       1.029   9.713  19.012  0.00  0.00    +0.000 A 
ATOM      9  C   UNL     1       1.232  10.624  20.048  0.00  0.00    +0.000 A 
ATOM     10  C   UNL     1       0.336  11.684  20.284  0.00  0.00    +0.000 A 
ATOM     11  C   UNL     1      -0.830  11.817  19.498  0.00  0.00    +0.000 A 
BRANCH   6  13
ATOM     12  C   UNL     1      -2.255   9.999  16.630  0.00  0.00    +0.000 C 
ATOM     13  O   UNL     1      -2.172  10.959  17.687  0.00  0.00    +0.000 OA
ENDBRANCH   6  13
BRANCH  10  14
ATOM     14  O   UNL     1       0.750  12.457  21.342  0.00  0.00    +0.000 OA
ATOM     15  C   UNL     1       1.415  13.686  21.097  0.00  0.00    +0.000 C 
ENDBRANCH  10  14
BRANCH  11  16
ATOM     16  O   UNL     1      -1.661  12.855  19.824  0.00  0.00    +0.000 OA
ATOM     17  C   UNL     1      -2.711  12.684  20.761  0.00  0.00    +0.000 C 
ENDBRANCH  11  16
ENDBRANCH   1   8
BRANCH   4  18
ATOM     18  C   UNL     1       2.323   5.125  19.635  0.00  0.00    +0.000 A 
ATOM     19  C   UNL     1       2.121   4.992  21.027  0.00  0.00    +0.000 A 
ATOM     20  C   UNL     1       2.094   3.745  21.653  0.00  0.00    +0.000 A 
ATOM     21  C   UNL     1       2.276   2.593  20.902  0.00  0.00    +0.000 A 
ATOM     22  C   UNL     1       2.453   2.691  19.523  0.00  0.00    +0.000 A 
ATOM     23  C   UNL     1       2.453   3.942  18.867  0.00  0.00    +0.000 A 
BRANCH  23  24
ATOM     24  C   UNL     1       2.628   3.925  17.361  0.00  0.00    +0.000 C 
BRANCH  24  25
ATOM     25  O   UNL     1       3.871   3.299  17.064  0.00  0.00    +0.000 OA
BRANCH  25  26
ATOM     26  C   UNL     1       4.980   4.097  17.005  0.00  0.00    +0.000 A 
ATOM     27  C   UNL     1       5.314   4.521  15.717  0.00  0.00    +0.000 A 
ATOM     28  C   UNL     1       6.432   5.331  15.499  0.00  0.00    +0.000 A 
ATOM     29  C   UNL     1       7.218   5.730  16.575  0.00  0.00    +0.000 A 
ATOM     30  C   UNL     1       6.897   5.322  17.875  0.00  0.00    +0.000 A 
ATOM     31  C   UNL     1       7.743   5.747  19.039  0.00  0.00    +0.000 C 
ATOM     32  C   UNL     1       5.773   4.502  18.082  0.00  0.00    +0.000 A 
ENDBRANCH  25  26
ENDBRANCH  24  25
ENDBRANCH  23  24
ENDBRANCH   4  18
TORSDOF 8
ENDMDL
MODEL 9
REMARK VINA RESULT:      -8.4      2.103      8.981
REMARK  Name = 
REMARK  12 active torsions:
REMARK  status: ('A' for Active; 'I' for Inactive)
REMARK    1  A    between atoms: C_1  and  O_2
REMARK    2  A    between atoms: O_2  and  C_3
REMARK    3  A    between atoms: C_5  and  C_6
REMARK    4  A    between atoms: C_9  and  C_10
REMARK    5  A    between atoms: C_15  and  C_16
REMARK    6  A    between atoms: C_16  and  O_17
REMARK    7  A    between atoms: O_17  and  C_18
REMARK    8  A    between atoms: C_22  and  C_23
REMARK    9  A    between atoms: C_27  and  O_28
REMARK   10  A    between atoms: O_28  and  C_29
REMARK   11  A    between atoms: C_30  and  O_31
REMARK   12  A    between atoms: O_31  and  C_32
REMARK                            x       y       z     vdW  Elec       q    Type
REMARK                         _______ _______ _______ _____ _____    ______ ____
ROOT
ATOM      1  C   UNL     1       2.168   8.137  18.868  0.00  0.00    +0.000 A 
ATOM      2  N   UNL     1       2.912   8.081  17.781  0.00  0.00    +0.000 NA
ATOM      3  N   UNL     1       3.157   6.745  17.542  0.00  0.00    +0.000 NA
ATOM      4  C   UNL     1       2.545   6.065  18.491  0.00  0.00    +0.000 A 
ATOM      5  O   UNL     1       1.901   6.895  19.381  0.00  0.00    +0.000 OA
ENDROOT
BRANCH   1   8
ATOM      6  C   UNL     1       0.714  10.369  21.513  0.00  0.00    +0.000 A 
ATOM      7  C   UNL     1       1.146   9.225  20.821  0.00  0.00    +0.000 A 
ATOM      8  C   UNL     1       1.490   9.278  19.470  0.00  0.00    +0.000 A 
ATOM      9  C   UNL     1       1.248  10.466  18.780  0.00  0.00    +0.000 A 
ATOM     10  C   UNL     1       0.717  11.598  19.427  0.00  0.00    +0.000 A 
ATOM     11  C   UNL     1       0.462  11.569  20.816  0.00  0.00    +0.000 A 
BRANCH   6  13
ATOM     12  C   UNL     1      -0.546   9.443  23.291  0.00  0.00    +0.000 C 
ATOM     13  O   UNL     1       0.515  10.304  22.869  0.00  0.00    +0.000 OA
ENDBRANCH   6  13
BRANCH  10  14
ATOM     14  O   UNL     1       0.550  12.639  18.546  0.00  0.00    +0.000 OA
ATOM     15  C   UNL     1      -0.733  12.898  17.998  0.00  0.00    +0.000 C 
ENDBRANCH  10  14
BRANCH  11  16
ATOM     16  O   UNL     1      -0.019  12.727  21.365  0.00  0.00    +0.000 OA
ATOM     17  C   UNL     1      -1.409  12.920  21.563  0.00  0.00    +0.000 C 
ENDBRANCH  11  16
ENDBRANCH   1   8
BRANCH   4  18
ATOM     18  C   UNL     1       2.430   4.622  18.727  0.00  0.00    +0.000 A 
ATOM     19  C   UNL     1       1.285   3.942  18.257  0.00  0.00    +0.000 A 
ATOM     20  C   UNL     1       1.086   2.580  18.494  0.00  0.00    +0.000 A 
ATOM     21  C   UNL     1       2.028   1.862  19.216  0.00  0.00    +0.000 A 
ATOM     22  C   UNL     1       3.179   2.500  19.672  0.00  0.00    +0.000 A 
ATOM     23  C   UNL     1       3.413   3.870  19.416  0.00  0.00    +0.000 A 
BRANCH  23  24
ATOM     24  C   UNL     1       4.713   4.452  19.937  0.00  0.00    +0.000 C 
BRANCH  24  25
ATOM     25  O   UNL     1       5.784   3.891  19.188  0.00  0.00    +0.000 OA
BRANCH  25  26
ATOM     26  C   UNL     1       6.099   4.485  17.997  0.00  0.00    +0.000 A 
ATOM     27  C   UNL     1       6.820   5.674  18.122  0.00  0.00    +0.000 A 
ATOM     28  C   UNL     1       7.201   6.400  16.989  0.00  0.00    +0.000 A 
ATOM     29  C   UNL     1       6.869   5.932  15.722  0.00  0.00    +0.000 A 
ATOM     30  C   UNL     1       6.152   4.739  15.575  0.00  0.00    +0.000 A 
ATOM     31  C   UNL     1       5.790   4.230  14.211  0.00  0.00    +0.000 C 
ATOM     32  C   UNL     1       5.769   4.018  16.721  0.00  0.00    +0.000 A 
ENDBRANCH  25  26
ENDBRANCH  24  25
ENDBRANCH  23  24
ENDBRANCH   4  18
TORSDOF 8
ENDMDL
