MODEL 1
REMARK VINA RESULT:      -7.6      0.000      0.000
REMARK  Name = 
REMARK  9 active torsions:
REMARK  status: ('A' for Active; 'I' for Inactive)
REMARK    1  A    between atoms: C_2  and  C_3
REMARK    2  A    between atoms: C_3  and  C_4
REMARK    3  A    between atoms: C_4  and  C_5
REMARK    4  A    between atoms: C_8  and  C_9
REMARK    5  A    between atoms: C_9  and  C_10
REMARK    6  A    between atoms: C_10  and  C_11
REMARK    7  A    between atoms: C_11  and  C_12
REMARK    8  A    between atoms: C_12  and  C_13
REMARK    9  A    between atoms: N_20  and  C_21
REMARK                            x       y       z     vdW  Elec       q    Type
REMARK                         _______ _______ _______ _____ _____    ______ ____
ROOT
ATOM      1  C   UNL     1       5.106   4.986  18.225  0.00  0.00    +0.000 A 
ATOM      2  N   UNL     1       4.475   4.929  17.072  0.00  0.00    +0.000 NA
ATOM      3  N   UNL     1       3.538   3.927  17.185  0.00  0.00    +0.000 NA
ATOM      4  C   UNL     1       3.662   3.434  18.399  0.00  0.00    +0.000 A 
ATOM      5  O   UNL     1       4.646   4.059  19.128  0.00  0.00    +0.000 OA
ENDROOT
BRANCH   1   6
ATOM      6  C   UNL     1       6.190   5.910  18.652  0.00  0.00    +0.000 C 
BRANCH   6   7
ATOM      7  C   UNL     1       7.041   6.325  17.454  0.00  0.00    +0.000 C 
BRANCH   7   9
ATOM      8  O   UNL     1       8.077   4.223  16.847  0.00  0.00    +0.000 OA
ATOM      9  C   UNL     1       7.379   5.173  16.524  0.00  0.00    +0.000 C 
ATOM     10  N   UNL     1       6.802   5.326  15.275  0.00  0.00    +0.000 N 
ATOM     11  H   UNL     1       6.371   6.216  15.060  0.00  0.00    +0.000 HD
BRANCH  10  12
ATOM     12  C   UNL     1       7.021   4.403  14.173  0.00  0.00    +0.000 C 
ATOM     13  C   UNL     1       5.708   3.876  13.599  0.00  0.00    +0.000 C 
ATOM     14  C   UNL     1       6.092   3.364  12.220  0.00  0.00    +0.000 C 
ATOM     15  C   UNL     1       7.214   4.282  11.744  0.00  0.00    +0.000 C 
ATOM     16  C   UNL     1       7.672   5.080  12.967  0.00  0.00    +0.000 C 
ENDBRANCH  10  12
ENDBRANCH   7   9
ENDBRANCH   6   7
ENDBRANCH   1   6
BRANCH   4  17
ATOM     17  C   UNL     1       2.883   2.350  19.046  0.00  0.00    +0.000 C 
BRANCH  17  18
ATOM     18  C   UNL     1       2.036   2.829  20.228  0.00  0.00    +0.000 C 
BRANCH  18  19
ATOM     19  C   UNL     1       1.343   4.171  19.970  0.00  0.00    +0.000 C 
BRANCH  19  20
ATOM     20  C   UNL     1       1.928   5.278  20.850  0.00  0.00    +0.000 C 
BRANCH  20  21
ATOM     21  C   UNL     1       1.807   6.636  20.203  0.00  0.00    +0.000 A 
ATOM     22  C   UNL     1       1.292   7.721  20.924  0.00  0.00    +0.000 A 
ATOM     23  C   UNL     1       1.175   8.977  20.325  0.00  0.00    +0.000 A 
ATOM     24  C   UNL     1       1.565   9.158  19.000  0.00  0.00    +0.000 A 
ATOM     25  C   UNL     1       2.068   8.082  18.270  0.00  0.00    +0.000 A 
ATOM     26  C   UNL     1       2.186   6.825  18.867  0.00  0.00    +0.000 A 
ENDBRANCH  20  21
ENDBRANCH  19  20
ENDBRANCH  18  19
ENDBRANCH  17  18
ENDBRANCH   4  17
TORSDOF 9
ENDMDL
MODEL 2
REMARK VINA RESULT:      -7.5      5.185      7.339
REMARK  Name = 
REMARK  9 active torsions:
REMARK  status: ('A' for Active; 'I' for Inactive)
REMARK    1  A    between atoms: C_2  and  C_3
REMARK    2  A    between atoms: C_3  and  C_4
REMARK    3  A    between atoms: C_4  and  C_5
REMARK    4  A    between atoms: C_8  and  C_9
REMARK    5  A    between atoms: C_9  and  C_10
REMARK    6  A    between atoms: C_10  and  C_11
REMARK    7  A    between atoms: C_11  and  C_12
REMARK    8  A    between atoms: C_12  and  C_13
REMARK    9  A    between atoms: N_20  and  C_21
REMARK                            x       y       z     vdW  Elec       q    Type
REMARK                         _______ _______ _______ _____ _____    ______ ____
ROOT
ATOM      1  C   UNL     1       8.114   8.255  18.023  0.00  0.00    +0.000 A 
ATOM      2  N   UNL     1       8.381   7.209  18.775  0.00  0.00    +0.000 NA
ATOM      3  N   UNL     1       7.660   6.157  18.257  0.00  0.00    +0.000 NA
ATOM      4  C   UNL     1       6.997   6.631  17.223  0.00  0.00    +0.000 A 
ATOM      5  O   UNL     1       7.233   7.968  17.009  0.00  0.00    +0.000 OA
ENDROOT
BRANCH   1   6
ATOM      6  C   UNL     1       8.650   9.638  18.123  0.00  0.00    +0.000 C 
BRANCH   6   7
ATOM      7  C   UNL     1       9.188   9.902  19.527  0.00  0.00    +0.000 C 
BRANCH   7   9
ATOM      8  O   UNL     1      10.229  11.726  20.732  0.00  0.00    +0.000 OA
ATOM      9  C   UNL     1       9.902  11.236  19.660  0.00  0.00    +0.000 C 
ATOM     10  N   UNL     1      10.140  11.825  18.431  0.00  0.00    +0.000 N 
ATOM     11  H   UNL     1       9.698  11.415  17.617  0.00  0.00    +0.000 HD
BRANCH  10  12
ATOM     12  C   UNL     1      10.746  13.137  18.274  0.00  0.00    +0.000 C 
ATOM     13  C   UNL     1      11.255  13.366  16.853  0.00  0.00    +0.000 C 
ATOM     14  C   UNL     1      11.382  14.878  16.750  0.00  0.00    +0.000 C 
ATOM     15  C   UNL     1      10.265  15.439  17.626  0.00  0.00    +0.000 C 
ATOM     16  C   UNL     1       9.738  14.271  18.462  0.00  0.00    +0.000 C 
ENDBRANCH  10  12
ENDBRANCH   7   9
ENDBRANCH   6   7
ENDBRANCH   1   6
BRANCH   4  17
ATOM     17  C   UNL     1       6.085   5.916  16.297  0.00  0.00    +0.000 C 
BRANCH  17  18
ATOM     18  C   UNL     1       4.667   6.494  16.272  0.00  0.00    +0.000 C 
BRANCH  18  19
ATOM     19  C   UNL     1       4.143   6.870  17.662  0.00  0.00    +0.000 C 
BRANCH  19  20
ATOM     20  C   UNL     1       2.854   6.114  17.993  0.00  0.00    +0.000 C 
BRANCH  20  21
ATOM     21  C   UNL     1       3.104   4.641  18.205  0.00  0.00    +0.000 A 
ATOM     22  C   UNL     1       2.396   3.688  17.460  0.00  0.00    +0.000 A 
ATOM     23  C   UNL     1       2.623   2.324  17.658  0.00  0.00    +0.000 A 
ATOM     24  C   UNL     1       3.553   1.901  18.605  0.00  0.00    +0.000 A 
ATOM     25  C   UNL     1       4.253   2.840  19.359  0.00  0.00    +0.000 A 
ATOM     26  C   UNL     1       4.028   4.204  19.163  0.00  0.00    +0.000 A 
ENDBRANCH  20  21
ENDBRANCH  19  20
ENDBRANCH  18  19
ENDBRANCH  17  18
ENDBRANCH   4  17
TORSDOF 9
ENDMDL
MODEL 3
REMARK VINA RESULT:      -7.4      4.603      7.997
REMARK  Name = 
REMARK  9 active torsions:
REMARK  status: ('A' for Active; 'I' for Inactive)
REMARK    1  A    between atoms: C_2  and  C_3
REMARK    2  A    between atoms: C_3  and  C_4
REMARK    3  A    between atoms: C_4  and  C_5
REMARK    4  A    between atoms: C_8  and  C_9
REMARK    5  A    between atoms: C_9  and  C_10
REMARK    6  A    between atoms: C_10  and  C_11
REMARK    7  A    between atoms: C_11  and  C_12
REMARK    8  A    between atoms: C_12  and  C_13
REMARK    9  A    between atoms: N_20  and  C_21
REMARK                            x       y       z     vdW  Elec       q    Type
REMARK                         _______ _______ _______ _____ _____    ______ ____
ROOT
ATOM      1  C   UNL     1       7.145   5.631  17.180  0.00  0.00    +0.000 A 
ATOM      2  N   UNL     1       7.745   5.512  18.345  0.00  0.00    +0.000 NA
ATOM      3  N   UNL     1       8.080   6.785  18.748  0.00  0.00    +0.000 NA
ATOM      4  C   UNL     1       7.667   7.598  17.799  0.00  0.00    +0.000 A 
ATOM      5  O   UNL     1       7.059   6.936  16.759  0.00  0.00    +0.000 OA
ENDROOT
BRANCH   1   6
ATOM      6  C   UNL     1       6.557   4.572  16.318  0.00  0.00    +0.000 C 
BRANCH   6   7
ATOM      7  C   UNL     1       5.053   4.785  16.162  0.00  0.00    +0.000 C 
BRANCH   7   9
ATOM      8  O   UNL     1       4.522   3.482  18.131  0.00  0.00    +0.000 OA
ATOM      9  C   UNL     1       4.258   4.430  17.406  0.00  0.00    +0.000 C 
ATOM     10  N   UNL     1       3.208   5.306  17.622  0.00  0.00    +0.000 N 
ATOM     11  H   UNL     1       2.983   5.963  16.886  0.00  0.00    +0.000 HD
BRANCH  10  12
ATOM     12  C   UNL     1       2.248   5.155  18.703  0.00  0.00    +0.000 C 
ATOM     13  C   UNL     1       1.490   3.833  18.614  0.00  0.00    +0.000 C 
ATOM     14  C   UNL     1       0.938   3.633  20.017  0.00  0.00    +0.000 C 
ATOM     15  C   UNL     1       1.975   4.249  20.952  0.00  0.00    +0.000 C 
ATOM     16  C   UNL     1       2.922   5.069  20.073  0.00  0.00    +0.000 C 
ENDBRANCH  10  12
ENDBRANCH   7   9
ENDBRANCH   6   7
ENDBRANCH   1   6
BRANCH   4  17
ATOM     17  C   UNL     1       7.760   9.078  17.738  0.00  0.00    +0.000 C 
BRANCH  17  18
ATOM     18  C   UNL     1       9.121   9.622  18.179  0.00  0.00    +0.000 C 
BRANCH  18  19
ATOM     19  C   UNL     1       9.069  10.363  19.520  0.00  0.00    +0.000 C 
BRANCH  19  20
ATOM     20  C   UNL     1      10.389  11.081  19.809  0.00  0.00    +0.000 C 
BRANCH  20  21
ATOM     21  C   UNL     1      10.662  12.180  18.812  0.00  0.00    +0.000 A 
ATOM     22  C   UNL     1       9.822  13.300  18.745  0.00  0.00    +0.000 A 
ATOM     23  C   UNL     1      10.070  14.316  17.819  0.00  0.00    +0.000 A 
ATOM     24  C   UNL     1      11.155  14.220  16.949  0.00  0.00    +0.000 A 
ATOM     25  C   UNL     1      11.989  13.104  17.000  0.00  0.00    +0.000 A 
ATOM     26  C   UNL     1      11.743  12.087  17.925  0.00  0.00    +0.000 A 
ENDBRANCH  20  21
ENDBRANCH  19  20
ENDBRANCH  18  19
ENDBRANCH  17  18
ENDBRANCH   4  17
TORSDOF 9
ENDMDL
MODEL 4
REMARK VINA RESULT:      -7.4      5.114      8.078
REMARK  Name = 
REMARK  9 active torsions:
REMARK  status: ('A' for Active; 'I' for Inactive)
REMARK    1  A    between atoms: C_2  and  C_3
REMARK    2  A    between atoms: C_3  and  C_4
REMARK    3  A    between atoms: C_4  and  C_5
REMARK    4  A    between atoms: C_8  and  C_9
REMARK    5  A    between atoms: C_9  and  C_10
REMARK    6  A    between atoms: C_10  and  C_11
REMARK    7  A    between atoms: C_11  and  C_12
REMARK    8  A    between atoms: C_12  and  C_13
REMARK    9  A    between atoms: N_20  and  C_21
REMARK                            x       y       z     vdW  Elec       q    Type
REMARK                         _______ _______ _______ _____ _____    ______ ____
ROOT
ATOM      1  C   UNL     1       7.408   6.512  17.862  0.00  0.00    +0.000 A 
ATOM      2  N   UNL     1       6.922   7.316  16.942  0.00  0.00    +0.000 NA
ATOM      3  N   UNL     1       7.434   8.567  17.202  0.00  0.00    +0.000 NA
ATOM      4  C   UNL     1       8.197   8.445  18.267  0.00  0.00    +0.000 A 
ATOM      5  O   UNL     1       8.231   7.159  18.752  0.00  0.00    +0.000 OA
ENDROOT
BRANCH   1   6
ATOM      6  C   UNL     1       7.200   5.049  18.030  0.00  0.00    +0.000 C 
BRANCH   6   7
ATOM      7  C   UNL     1       6.203   4.530  16.996  0.00  0.00    +0.000 C 
BRANCH   7   9
ATOM      8  O   UNL     1       3.941   5.063  17.675  0.00  0.00    +0.000 OA
ATOM      9  C   UNL     1       4.831   4.231  17.575  0.00  0.00    +0.000 C 
ATOM     10  N   UNL     1       4.709   2.909  17.970  0.00  0.00    +0.000 N 
ATOM     11  H   UNL     1       5.548   2.342  17.985  0.00  0.00    +0.000 HD
BRANCH  10  12
ATOM     12  C   UNL     1       3.525   2.373  18.620  0.00  0.00    +0.000 C 
ATOM     13  C   UNL     1       3.164   3.151  19.883  0.00  0.00    +0.000 C 
ATOM     14  C   UNL     1       1.706   2.795  20.128  0.00  0.00    +0.000 C 
ATOM     15  C   UNL     1       1.098   2.602  18.741  0.00  0.00    +0.000 C 
ATOM     16  C   UNL     1       2.270   2.523  17.759  0.00  0.00    +0.000 C 
ENDBRANCH  10  12
ENDBRANCH   7   9
ENDBRANCH   6   7
ENDBRANCH   1   6
BRANCH   4  17
ATOM     17  C   UNL     1       9.001   9.482  18.959  0.00  0.00    +0.000 C 
BRANCH  17  18
ATOM     18  C   UNL     1       9.016  10.828  18.229  0.00  0.00    +0.000 C 
BRANCH  18  19
ATOM     19  C   UNL     1      10.430  11.341  17.936  0.00  0.00    +0.000 C 
BRANCH  19  20
ATOM     20  C   UNL     1      11.265  11.431  19.216  0.00  0.00    +0.000 C 
BRANCH  20  21
ATOM     21  C   UNL     1      10.808  12.560  20.107  0.00  0.00    +0.000 A 
ATOM     22  C   UNL     1       9.949  12.308  21.185  0.00  0.00    +0.000 A 
ATOM     23  C   UNL     1       9.521  13.352  22.008  0.00  0.00    +0.000 A 
ATOM     24  C   UNL     1       9.944  14.656  21.759  0.00  0.00    +0.000 A 
ATOM     25  C   UNL     1      10.789  14.919  20.683  0.00  0.00    +0.000 A 
ATOM     26  C   UNL     1      11.217  13.877  19.858  0.00  0.00    +0.000 A 
ENDBRANCH  20  21
ENDBRANCH  19  20
ENDBRANCH  18  19
ENDBRANCH  17  18
ENDBRANCH   4  17
TORSDOF 9
ENDMDL
MODEL 5
REMARK VINA RESULT:      -7.4      4.322      6.783
REMARK  Name = 
REMARK  9 active torsions:
REMARK  status: ('A' for Active; 'I' for Inactive)
REMARK    1  A    between atoms: C_2  and  C_3
REMARK    2  A    between atoms: C_3  and  C_4
REMARK    3  A    between atoms: C_4  and  C_5
REMARK    4  A    between atoms: C_8  and  C_9
REMARK    5  A    between atoms: C_9  and  C_10
REMARK    6  A    between atoms: C_10  and  C_11
REMARK    7  A    between atoms: C_11  and  C_12
REMARK    8  A    between atoms: C_12  and  C_13
REMARK    9  A    between atoms: N_20  and  C_21
REMARK                            x       y       z     vdW  Elec       q    Type
REMARK                         _______ _______ _______ _____ _____    ______ ____
ROOT
ATOM      1  C   UNL     1       7.925   6.418  18.472  0.00  0.00    +0.000 A 
ATOM      2  N   UNL     1       8.011   5.220  19.009  0.00  0.00    +0.000 NA
ATOM      3  N   UNL     1       7.431   4.346  18.117  0.00  0.00    +0.000 NA
ATOM      4  C   UNL     1       7.025   5.070  17.095  0.00  0.00    +0.000 A 
ATOM      5  O   UNL     1       7.303   6.408  17.248  0.00  0.00    +0.000 OA
ENDROOT
BRANCH   1   6
ATOM      6  C   UNL     1       8.421   7.716  19.001  0.00  0.00    +0.000 C 
BRANCH   6   7
ATOM      7  C   UNL     1       8.203   8.828  17.977  0.00  0.00    +0.000 C 
BRANCH   7   9
ATOM      8  O   UNL     1       8.688  11.188  17.738  0.00  0.00    +0.000 OA
ATOM      9  C   UNL     1       8.782  10.166  18.403  0.00  0.00    +0.000 C 
ATOM     10  N   UNL     1       9.421  10.090  19.628  0.00  0.00    +0.000 N 
ATOM     11  H   UNL     1       9.575   9.171  20.025  0.00  0.00    +0.000 HD
BRANCH  10  12
ATOM     12  C   UNL     1      10.122  11.209  20.237  0.00  0.00    +0.000 C 
ATOM     13  C   UNL     1      11.298  11.679  19.385  0.00  0.00    +0.000 C 
ATOM     14  C   UNL     1      11.576  13.086  19.891  0.00  0.00    +0.000 C 
ATOM     15  C   UNL     1      10.216  13.646  20.298  0.00  0.00    +0.000 C 
ATOM     16  C   UNL     1       9.249  12.461  20.332  0.00  0.00    +0.000 C 
ENDBRANCH  10  12
ENDBRANCH   7   9
ENDBRANCH   6   7
ENDBRANCH   1   6
BRANCH   4  17
ATOM     17  C   UNL     1       6.353   4.625  15.850  0.00  0.00    +0.000 C 
BRANCH  17  18
ATOM     18  C   UNL     1       4.860   4.961  15.809  0.00  0.00    +0.000 C 
BRANCH  18  19
ATOM     19  C   UNL     1       4.184   4.877  17.183  0.00  0.00    +0.000 C 
BRANCH  19  20
ATOM     20  C   UNL     1       3.702   3.455  17.479  0.00  0.00    +0.000 C 
BRANCH  20  21
ATOM     21  C   UNL     1       2.918   3.383  18.766  0.00  0.00    +0.000 A 
ATOM     22  C   UNL     1       1.618   3.902  18.834  0.00  0.00    +0.000 A 
ATOM     23  C   UNL     1       0.893   3.841  20.026  0.00  0.00    +0.000 A 
ATOM     24  C   UNL     1       1.461   3.267  21.161  0.00  0.00    +0.000 A 
ATOM     25  C   UNL     1       2.757   2.759  21.107  0.00  0.00    +0.000 A 
ATOM     26  C   UNL     1       3.485   2.819  19.917  0.00  0.00    +0.000 A 
ENDBRANCH  20  21
ENDBRANCH  19  20
ENDBRANCH  18  19
ENDBRANCH  17  18
ENDBRANCH   4  17
TORSDOF 9
ENDMDL
MODEL 6
REMARK VINA RESULT:      -7.4      2.227      4.686
REMARK  Name = 
REMARK  9 active torsions:
REMARK  status: ('A' for Active; 'I' for Inactive)
REMARK    1  A    between atoms: C_2  and  C_3
REMARK    2  A    between atoms: C_3  and  C_4
REMARK    3  A    between atoms: C_4  and  C_5
REMARK    4  A    between atoms: C_8  and  C_9
REMARK    5  A    between atoms: C_9  and  C_10
REMARK    6  A    between atoms: C_10  and  C_11
REMARK    7  A    between atoms: C_11  and  C_12
REMARK    8  A    between atoms: C_12  and  C_13
REMARK    9  A    between atoms: N_20  and  C_21
REMARK                            x       y       z     vdW  Elec       q    Type
REMARK                         _______ _______ _______ _____ _____    ______ ____
ROOT
ATOM      1  C   UNL     1       1.748   4.750  19.544  0.00  0.00    +0.000 A 
ATOM      2  N   UNL     1       1.851   5.457  20.649  0.00  0.00    +0.000 NA
ATOM      3  N   UNL     1       2.227   6.726  20.271  0.00  0.00    +0.000 NA
ATOM      4  C   UNL     1       2.333   6.710  18.959  0.00  0.00    +0.000 A 
ATOM      5  O   UNL     1       2.044   5.479  18.419  0.00  0.00    +0.000 OA
ENDROOT
BRANCH   1   6
ATOM      6  C   UNL     1       1.344   3.329  19.379  0.00  0.00    +0.000 C 
BRANCH   6   7
ATOM      7  C   UNL     1       1.958   2.744  18.109  0.00  0.00    +0.000 C 
BRANCH   7   9
ATOM      8  O   UNL     1       4.213   2.342  18.892  0.00  0.00    +0.000 OA
ATOM      9  C   UNL     1       3.472   2.851  18.063  0.00  0.00    +0.000 C 
ATOM     10  N   UNL     1       3.909   3.585  16.974  0.00  0.00    +0.000 N 
ATOM     11  H   UNL     1       3.216   4.088  16.435  0.00  0.00    +0.000 HD
BRANCH  10  12
ATOM     12  C   UNL     1       5.307   3.899  16.729  0.00  0.00    +0.000 C 
ATOM     13  C   UNL     1       5.583   4.166  15.252  0.00  0.00    +0.000 C 
ATOM     14  C   UNL     1       6.898   4.931  15.258  0.00  0.00    +0.000 C 
ATOM     15  C   UNL     1       6.882   5.754  16.544  0.00  0.00    +0.000 C 
ATOM     16  C   UNL     1       5.736   5.206  17.397  0.00  0.00    +0.000 C 
ENDBRANCH  10  12
ENDBRANCH   7   9
ENDBRANCH   6   7
ENDBRANCH   1   6
BRANCH   4  17
ATOM     17  C   UNL     1       2.691   7.819  18.041  0.00  0.00    +0.000 C 
BRANCH  17  18
ATOM     18  C   UNL     1       1.521   8.759  17.736  0.00  0.00    +0.000 C 
BRANCH  18  19
ATOM     19  C   UNL     1       1.454   9.966  18.677  0.00  0.00    +0.000 C 
BRANCH  19  20
ATOM     20  C   UNL     1       0.006  10.378  18.951  0.00  0.00    +0.000 C 
BRANCH  20  21
ATOM     21  C   UNL     1      -0.311  10.376  20.426  0.00  0.00    +0.000 A 
ATOM     22  C   UNL     1      -0.071   9.234  21.201  0.00  0.00    +0.000 A 
ATOM     23  C   UNL     1      -0.368   9.229  22.566  0.00  0.00    +0.000 A 
ATOM     24  C   UNL     1      -0.913  10.362  23.166  0.00  0.00    +0.000 A 
ATOM     25  C   UNL     1      -1.166  11.499  22.402  0.00  0.00    +0.000 A 
ATOM     26  C   UNL     1      -0.870  11.507  21.037  0.00  0.00    +0.000 A 
ENDBRANCH  20  21
ENDBRANCH  19  20
ENDBRANCH  18  19
ENDBRANCH  17  18
ENDBRANCH   4  17
TORSDOF 9
ENDMDL
MODEL 7
REMARK VINA RESULT:      -7.4      4.653      7.480
REMARK  Name = 
REMARK  9 active torsions:
REMARK  status: ('A' for Active; 'I' for Inactive)
REMARK    1  A    between atoms: C_2  and  C_3
REMARK    2  A    between atoms: C_3  and  C_4
REMARK    3  A    between atoms: C_4  and  C_5
REMARK    4  A    between atoms: C_8  and  C_9
REMARK    5  A    between atoms: C_9  and  C_10
REMARK    6  A    between atoms: C_10  and  C_11
REMARK    7  A    between atoms: C_11  and  C_12
REMARK    8  A    between atoms: C_12  and  C_13
REMARK    9  A    between atoms: N_20  and  C_21
REMARK                            x       y       z     vdW  Elec       q    Type
REMARK                         _______ _______ _______ _____ _____    ______ ____
ROOT
ATOM      1  C   UNL     1       7.213   5.235  17.156  0.00  0.00    +0.000 A 
ATOM      2  N   UNL     1       7.651   5.153  18.393  0.00  0.00    +0.000 NA
ATOM      3  N   UNL     1       7.955   6.435  18.790  0.00  0.00    +0.000 NA
ATOM      4  C   UNL     1       7.687   7.217  17.765  0.00  0.00    +0.000 A 
ATOM      5  O   UNL     1       7.209   6.523  16.679  0.00  0.00    +0.000 OA
ENDROOT
BRANCH   1   6
ATOM      6  C   UNL     1       6.722   4.151  16.264  0.00  0.00    +0.000 C 
BRANCH   6   7
ATOM      7  C   UNL     1       5.259   4.386  15.894  0.00  0.00    +0.000 C 
BRANCH   7   9
ATOM      8  O   UNL     1       3.639   5.008  17.581  0.00  0.00    +0.000 OA
ATOM      9  C   UNL     1       4.296   4.131  17.040  0.00  0.00    +0.000 C 
ATOM     10  N   UNL     1       4.249   2.793  17.393  0.00  0.00    +0.000 N 
ATOM     11  H   UNL     1       4.939   2.173  16.988  0.00  0.00    +0.000 HD
BRANCH  10  12
ATOM     12  C   UNL     1       3.461   2.285  18.504  0.00  0.00    +0.000 C 
ATOM     13  C   UNL     1       3.722   3.061  19.793  0.00  0.00    +0.000 C 
ATOM     14  C   UNL     1       2.514   2.745  20.661  0.00  0.00    +0.000 C 
ATOM     15  C   UNL     1       1.348   2.581  19.689  0.00  0.00    +0.000 C 
ATOM     16  C   UNL     1       1.959   2.478  18.290  0.00  0.00    +0.000 C 
ENDBRANCH  10  12
ENDBRANCH   7   9
ENDBRANCH   6   7
ENDBRANCH   1   6
BRANCH   4  17
ATOM     17  C   UNL     1       7.816   8.691  17.662  0.00  0.00    +0.000 C 
BRANCH  17  18
ATOM     18  C   UNL     1       8.762   9.294  18.704  0.00  0.00    +0.000 C 
BRANCH  18  19
ATOM     19  C   UNL     1       9.333  10.654  18.285  0.00  0.00    +0.000 C 
BRANCH  19  20
ATOM     20  C   UNL     1      10.278  11.212  19.352  0.00  0.00    +0.000 C 
BRANCH  20  21
ATOM     21  C   UNL     1       9.660  12.366  20.103  0.00  0.00    +0.000 A 
ATOM     22  C   UNL     1       9.778  12.449  21.497  0.00  0.00    +0.000 A 
ATOM     23  C   UNL     1       9.202  13.513  22.194  0.00  0.00    +0.000 A 
ATOM     24  C   UNL     1       8.499  14.500  21.507  0.00  0.00    +0.000 A 
ATOM     25  C   UNL     1       8.366  14.421  20.122  0.00  0.00    +0.000 A 
ATOM     26  C   UNL     1       8.940  13.358  19.422  0.00  0.00    +0.000 A 
ENDBRANCH  20  21
ENDBRANCH  19  20
ENDBRANCH  18  19
ENDBRANCH  17  18
ENDBRANCH   4  17
TORSDOF 9
ENDMDL
MODEL 8
REMARK VINA RESULT:      -7.2      4.839      8.104
REMARK  Name = 
REMARK  9 active torsions:
REMARK  status: ('A' for Active; 'I' for Inactive)
REMARK    1  A    between atoms: C_2  and  C_3
REMARK    2  A    between atoms: C_3  and  C_4
REMARK    3  A    between atoms: C_4  and  C_5
REMARK    4  A    between atoms: C_8  and  C_9
REMARK    5  A    between atoms: C_9  and  C_10
REMARK    6  A    between atoms: C_10  and  C_11
REMARK    7  A    between atoms: C_11  and  C_12
REMARK    8  A    between atoms: C_12  and  C_13
REMARK    9  A    between atoms: N_20  and  C_21
REMARK                            x       y       z     vdW  Elec       q    Type
REMARK                         _______ _______ _______ _____ _____    ______ ____
ROOT
ATOM      1  C   UNL     1       6.658   5.716  16.882  0.00  0.00    +0.000 A 
ATOM      2  N   UNL     1       6.231   6.779  16.235  0.00  0.00    +0.000 NA
ATOM      3  N   UNL     1       6.858   7.864  16.803  0.00  0.00    +0.000 NA
ATOM      4  C   UNL     1       7.625   7.393  17.763  0.00  0.00    +0.000 A 
ATOM      5  O   UNL     1       7.551   6.025  17.878  0.00  0.00    +0.000 OA
ENDROOT
BRANCH   1   6
ATOM      6  C   UNL     1       6.322   4.285  16.654  0.00  0.00    +0.000 C 
BRANCH   6   7
ATOM      7  C   UNL     1       4.840   4.132  16.319  0.00  0.00    +0.000 C 
BRANCH   7   9
ATOM      8  O   UNL     1       3.337   5.633  17.480  0.00  0.00    +0.000 OA
ATOM      9  C   UNL     1       3.917   4.557  17.447  0.00  0.00    +0.000 C 
ATOM     10  N   UNL     1       3.808   3.584  18.426  0.00  0.00    +0.000 N 
ATOM     11  H   UNL     1       4.443   2.797  18.381  0.00  0.00    +0.000 HD
BRANCH  10  12
ATOM     12  C   UNL     1       3.044   3.761  19.649  0.00  0.00    +0.000 C 
ATOM     13  C   UNL     1       1.546   3.566  19.422  0.00  0.00    +0.000 C 
ATOM     14  C   UNL     1       0.997   3.298  20.814  0.00  0.00    +0.000 C 
ATOM     15  C   UNL     1       2.107   2.552  21.551  0.00  0.00    +0.000 C 
ATOM     16  C   UNL     1       3.369   2.697  20.698  0.00  0.00    +0.000 C 
ENDBRANCH  10  12
ENDBRANCH   7   9
ENDBRANCH   6   7
ENDBRANCH   1   6
BRANCH   4  17
ATOM     17  C   UNL     1       8.531   8.132  18.676  0.00  0.00    +0.000 C 
BRANCH  17  18
ATOM     18  C   UNL     1       8.644   9.623  18.347  0.00  0.00    +0.000 C 
BRANCH  18  19
ATOM     19  C   UNL     1       9.351  10.431  19.441  0.00  0.00    +0.000 C 
BRANCH  19  20
ATOM     20  C   UNL     1      10.564  11.179  18.883  0.00  0.00    +0.000 C 
BRANCH  20  21
ATOM     21  C   UNL     1      10.442  12.671  19.076  0.00  0.00    +0.000 A 
ATOM     22  C   UNL     1       9.772  13.455  18.129  0.00  0.00    +0.000 A 
ATOM     23  C   UNL     1       9.663  14.837  18.303  0.00  0.00    +0.000 A 
ATOM     24  C   UNL     1      10.227  15.447  19.422  0.00  0.00    +0.000 A 
ATOM     25  C   UNL     1      10.905  14.676  20.365  0.00  0.00    +0.000 A 
ATOM     26  C   UNL     1      11.016  13.295  20.192  0.00  0.00    +0.000 A 
ENDBRANCH  20  21
ENDBRANCH  19  20
ENDBRANCH  18  19
ENDBRANCH  17  18
ENDBRANCH   4  17
TORSDOF 9
ENDMDL
MODEL 9
REMARK VINA RESULT:      -7.2      4.799      6.761
REMARK  Name = 
REMARK  9 active torsions:
REMARK  status: ('A' for Active; 'I' for Inactive)
REMARK    1  A    between atoms: C_2  and  C_3
REMARK    2  A    between atoms: C_3  and  C_4
REMARK    3  A    between atoms: C_4  and  C_5
REMARK    4  A    between atoms: C_8  and  C_9
REMARK    5  A    between atoms: C_9  and  C_10
REMARK    6  A    between atoms: C_10  and  C_11
REMARK    7  A    between atoms: C_11  and  C_12
REMARK    8  A    between atoms: C_12  and  C_13
REMARK    9  A    between atoms: N_20  and  C_21
REMARK                            x       y       z     vdW  Elec       q    Type
REMARK                         _______ _______ _______ _____ _____    ______ ____
ROOT
ATOM      1  C   UNL     1       7.732   7.350  17.875  0.00  0.00    +0.000 A 
ATOM      2  N   UNL     1       7.372   7.301  16.610  0.00  0.00    +0.000 NA
ATOM      3  N   UNL     1       6.559   6.198  16.475  0.00  0.00    +0.000 NA
ATOM      4  C   UNL     1       6.479   5.644  17.666  0.00  0.00    +0.000 A 
ATOM      5  O   UNL     1       7.205   6.321  18.616  0.00  0.00    +0.000 OA
ENDROOT
BRANCH   1   6
ATOM      6  C   UNL     1       8.582   8.355  18.566  0.00  0.00    +0.000 C 
BRANCH   6   7
ATOM      7  C   UNL     1       8.260   9.761  18.066  0.00  0.00    +0.000 C 
BRANCH   7   9
ATOM      8  O   UNL     1       9.794  10.740  19.662  0.00  0.00    +0.000 OA
ATOM      9  C   UNL     1       9.210  10.823  18.592  0.00  0.00    +0.000 C 
ATOM     10  N   UNL     1       9.337  11.888  17.717  0.00  0.00    +0.000 N 
ATOM     11  H   UNL     1       8.698  11.933  16.932  0.00  0.00    +0.000 HD
BRANCH  10  12
ATOM     12  C   UNL     1      10.130  13.071  18.005  0.00  0.00    +0.000 C 
ATOM     13  C   UNL     1      11.082  13.414  16.862  0.00  0.00    +0.000 C 
ATOM     14  C   UNL     1      11.434  14.874  17.104  0.00  0.00    +0.000 C 
ATOM     15  C   UNL     1      10.184  15.495  17.722  0.00  0.00    +0.000 C 
ATOM     16  C   UNL     1       9.273  14.332  18.122  0.00  0.00    +0.000 C 
ENDBRANCH  10  12
ENDBRANCH   7   9
ENDBRANCH   6   7
ENDBRANCH   1   6
BRANCH   4  17
ATOM     17  C   UNL     1       5.716   4.442  18.082  0.00  0.00    +0.000 C 
BRANCH  17  18
ATOM     18  C   UNL     1       4.984   3.754  16.926  0.00  0.00    +0.000 C 
BRANCH  18  19
ATOM     19  C   UNL     1       3.538   4.234  16.757  0.00  0.00    +0.000 C 
BRANCH  19  20
ATOM     20  C   UNL     1       3.125   5.169  17.896  0.00  0.00    +0.000 C 
BRANCH  20  21
ATOM     21  C   UNL     1       2.440   4.423  19.015  0.00  0.00    +0.000 A 
ATOM     22  C   UNL     1       1.393   3.535  18.738  0.00  0.00    +0.000 A 
ATOM     23  C   UNL     1       0.755   2.848  19.774  0.00  0.00    +0.000 A 
ATOM     24  C   UNL     1       1.153   3.047  21.094  0.00  0.00    +0.000 A 
ATOM     25  C   UNL     1       2.186   3.937  21.381  0.00  0.00    +0.000 A 
ATOM     26  C   UNL     1       2.825   4.626  20.348  0.00  0.00    +0.000 A 
ENDBRANCH  20  21
ENDBRANCH  19  20
ENDBRANCH  18  19
ENDBRANCH  17  18
ENDBRANCH   4  17
TORSDOF 9
ENDMDL
