MODEL 1
REMARK VINA RESULT:      -7.5      0.000      0.000
REMARK  Name = 
REMARK  9 active torsions:
REMARK  status: ('A' for Active; 'I' for Inactive)
REMARK    1  A    between atoms: C_1  and  C_2
REMARK    2  A    between atoms: C_5  and  C_6
REMARK    3  A    between atoms: C_7  and  C_8
REMARK    4  A    between atoms: C_14  and  N_15
REMARK    5  A    between atoms: C_14  and  C_20
REMARK    6  A    between atoms: N_15  and  C_16
REMARK    7  A    between atoms: C_16  and  C_17
REMARK    8  A    between atoms: C_17  and  C_18
REMARK    9  A    between atoms: C_17  and  O_19
REMARK                            x       y       z     vdW  Elec       q    Type
REMARK                         _______ _______ _______ _____ _____    ______ ____
ROOT
ATOM      1  C   UNL     1       5.181   5.481  17.876  0.00  0.00    +0.000 A 
ATOM      2  C   UNL     1       4.358   6.555  18.291  0.00  0.00    +0.000 A 
ATOM      3  C   UNL     1       3.438   6.420  19.335  0.00  0.00    +0.000 A 
ATOM      4  C   UNL     1       3.334   5.185  19.925  0.00  0.00    +0.000 A 
ATOM      5  C   UNL     1       4.100   4.094  19.518  0.00  0.00    +0.000 A 
ATOM      6  C   UNL     1       5.040   4.236  18.511  0.00  0.00    +0.000 A 
ATOM      7  C   UNL     1       3.728   2.867  20.345  0.00  0.00    +0.000 C 
ATOM      8  C   UNL     1       2.731   3.523  21.385  0.00  0.00    +0.000 C 
ATOM      9  O   UNL     1       2.250   3.051  22.399  0.00  0.00    +0.000 OA
ATOM     10  N   UNL     1       2.532   4.843  20.995  0.00  0.00    +0.000 N 
ATOM     11  H   UNL     1       1.947   5.475  21.520  0.00  0.00    +0.000 HD
ENDROOT
BRANCH   1  18
ATOM     12  C   UNL     1       5.482   4.035  14.881  0.00  0.00    +0.000 C 
ATOM     13  C   UNL     1       6.317   5.071  15.541  0.00  0.00    +0.000 A 
ATOM     14  N   UNL     1       7.379   5.553  14.883  0.00  0.00    +0.000 NA
ATOM     15  O   UNL     1       7.939   6.497  15.714  0.00  0.00    +0.000 OA
ATOM     16  C   UNL     1       7.226   6.582  16.868  0.00  0.00    +0.000 A 
ATOM     17  C   UNL     1       7.749   7.558  17.846  0.00  0.00    +0.000 C 
ATOM     18  C   UNL     1       6.169   5.687  16.822  0.00  0.00    +0.000 A 
ENDBRANCH   1  18
BRANCH   7  19
ATOM     19  C   UNL     1       3.109   1.749  19.420  0.00  0.00    +0.000 C 
ATOM     20  C   UNL     1       1.604   1.465  19.618  0.00  0.00    +0.000 C 
ATOM     21  C   UNL     1       0.670   2.466  18.946  0.00  0.00    +0.000 C 
ATOM     22  C   UNL     1       1.044   2.808  17.506  0.00  0.00    +0.000 C 
ATOM     23  C   UNL     1       2.536   2.963  17.236  0.00  0.00    +0.000 C 
ATOM     24  C   UNL     1       3.371   1.882  17.906  0.00  0.00    +0.000 C 
ENDBRANCH   7  19
BRANCH   7  25
ATOM     25  N   UNL     1       4.920   2.298  21.030  0.00  0.00    +0.000 NA
ATOM     26  H   UNL     1       4.797   2.427  22.032  0.00  0.00    +0.000 HD
BRANCH  25  27
ATOM     27  C   UNL     1       5.170   0.870  20.764  0.00  0.00    +0.000 C 
BRANCH  27  28
ATOM     28  C   UNL     1       5.817   0.178  21.979  0.00  0.00    +0.000 C 
ATOM     29  C   UNL     1       6.525  -1.122  21.616  0.00  0.00    +0.000 C 
BRANCH  28  30
ATOM     30  O   UNL     1       6.744   1.072  22.602  0.00  0.00    +0.000 OA
ATOM     31  H   UNL     1       6.838   1.833  22.003  0.00  0.00    +0.000 HD
ENDBRANCH  28  30
ENDBRANCH  27  28
ENDBRANCH  25  27
ENDBRANCH   7  25
TORSDOF 6
ENDMDL
MODEL 2
REMARK VINA RESULT:      -7.4      3.301      5.949
REMARK  Name = 
REMARK  9 active torsions:
REMARK  status: ('A' for Active; 'I' for Inactive)
REMARK    1  A    between atoms: C_1  and  C_2
REMARK    2  A    between atoms: C_5  and  C_6
REMARK    3  A    between atoms: C_7  and  C_8
REMARK    4  A    between atoms: C_14  and  N_15
REMARK    5  A    between atoms: C_14  and  C_20
REMARK    6  A    between atoms: N_15  and  C_16
REMARK    7  A    between atoms: C_16  and  C_17
REMARK    8  A    between atoms: C_17  and  C_18
REMARK    9  A    between atoms: C_17  and  O_19
REMARK                            x       y       z     vdW  Elec       q    Type
REMARK                         _______ _______ _______ _____ _____    ______ ____
ROOT
ATOM      1  C   UNL     1       1.746   7.405  20.187  0.00  0.00    +0.000 A 
ATOM      2  C   UNL     1       1.080   6.411  20.943  0.00  0.00    +0.000 A 
ATOM      3  C   UNL     1       1.501   5.078  20.943  0.00  0.00    +0.000 A 
ATOM      4  C   UNL     1       2.571   4.756  20.145  0.00  0.00    +0.000 A 
ATOM      5  C   UNL     1       3.227   5.701  19.358  0.00  0.00    +0.000 A 
ATOM      6  C   UNL     1       2.838   7.029  19.387  0.00  0.00    +0.000 A 
ATOM      7  C   UNL     1       4.346   5.025  18.569  0.00  0.00    +0.000 C 
ATOM      8  C   UNL     1       4.283   3.569  19.189  0.00  0.00    +0.000 C 
ATOM      9  O   UNL     1       5.060   2.640  19.061  0.00  0.00    +0.000 OA
ATOM     10  N   UNL     1       3.176   3.522  20.030  0.00  0.00    +0.000 N 
ATOM     11  H   UNL     1       2.940   2.697  20.559  0.00  0.00    +0.000 HD
ENDROOT
BRANCH   1  18
ATOM     12  C   UNL     1       0.899   9.258  22.833  0.00  0.00    +0.000 C 
ATOM     13  C   UNL     1       0.933   9.598  21.388  0.00  0.00    +0.000 A 
ATOM     14  N   UNL     1       0.585  10.835  21.012  0.00  0.00    +0.000 NA
ATOM     15  O   UNL     1       0.732  10.868  19.644  0.00  0.00    +0.000 OA
ATOM     16  C   UNL     1       1.161   9.660  19.193  0.00  0.00    +0.000 A 
ATOM     17  C   UNL     1       1.339   9.575  17.729  0.00  0.00    +0.000 C 
ATOM     18  C   UNL     1       1.308   8.795  20.266  0.00  0.00    +0.000 A 
ENDBRANCH   1  18
BRANCH   7  19
ATOM     19  C   UNL     1       4.060   5.119  17.021  0.00  0.00    +0.000 C 
ATOM     20  C   UNL     1       4.643   6.355  16.301  0.00  0.00    +0.000 C 
ATOM     21  C   UNL     1       6.129   6.260  15.969  0.00  0.00    +0.000 C 
ATOM     22  C   UNL     1       6.552   4.932  15.346  0.00  0.00    +0.000 C 
ATOM     23  C   UNL     1       5.894   3.692  15.938  0.00  0.00    +0.000 C 
ATOM     24  C   UNL     1       4.403   3.874  16.178  0.00  0.00    +0.000 C 
ENDBRANCH   7  19
BRANCH   7  25
ATOM     25  N   UNL     1       5.660   5.667  18.842  0.00  0.00    +0.000 NA
ATOM     26  H   UNL     1       5.572   6.209  19.698  0.00  0.00    +0.000 HD
BRANCH  25  27
ATOM     27  C   UNL     1       6.792   4.735  18.985  0.00  0.00    +0.000 C 
BRANCH  27  28
ATOM     28  C   UNL     1       8.087   5.479  19.363  0.00  0.00    +0.000 C 
ATOM     29  C   UNL     1       8.133   6.904  18.824  0.00  0.00    +0.000 C 
BRANCH  28  30
ATOM     30  O   UNL     1       8.230   5.499  20.786  0.00  0.00    +0.000 OA
ATOM     31  H   UNL     1       9.154   5.743  20.968  0.00  0.00    +0.000 HD
ENDBRANCH  28  30
ENDBRANCH  27  28
ENDBRANCH  25  27
ENDBRANCH   7  25
TORSDOF 6
ENDMDL
MODEL 3
REMARK VINA RESULT:      -7.4      2.529      3.996
REMARK  Name = 
REMARK  9 active torsions:
REMARK  status: ('A' for Active; 'I' for Inactive)
REMARK    1  A    between atoms: C_1  and  C_2
REMARK    2  A    between atoms: C_5  and  C_6
REMARK    3  A    between atoms: C_7  and  C_8
REMARK    4  A    between atoms: C_14  and  N_15
REMARK    5  A    between atoms: C_14  and  C_20
REMARK    6  A    between atoms: N_15  and  C_16
REMARK    7  A    between atoms: C_16  and  C_17
REMARK    8  A    between atoms: C_17  and  C_18
REMARK    9  A    between atoms: C_17  and  O_19
REMARK                            x       y       z     vdW  Elec       q    Type
REMARK                         _______ _______ _______ _____ _____    ______ ____
ROOT
ATOM      1  C   UNL     1       5.752   5.125  14.470  0.00  0.00    +0.000 A 
ATOM      2  C   UNL     1       5.180   6.420  14.459  0.00  0.00    +0.000 A 
ATOM      3  C   UNL     1       4.597   6.980  15.600  0.00  0.00    +0.000 A 
ATOM      4  C   UNL     1       4.567   6.206  16.734  0.00  0.00    +0.000 A 
ATOM      5  C   UNL     1       5.087   4.914  16.772  0.00  0.00    +0.000 A 
ATOM      6  C   UNL     1       5.699   4.372  15.655  0.00  0.00    +0.000 A 
ATOM      7  C   UNL     1       4.871   4.314  18.159  0.00  0.00    +0.000 C 
ATOM      8  C   UNL     1       4.280   5.571  18.918  0.00  0.00    +0.000 C 
ATOM      9  O   UNL     1       4.079   5.732  20.108  0.00  0.00    +0.000 OA
ATOM     10  N   UNL     1       4.087   6.574  17.974  0.00  0.00    +0.000 N 
ATOM     11  H   UNL     1       3.736   7.486  18.225  0.00  0.00    +0.000 HD
ENDROOT
BRANCH   1  18
ATOM     12  C   UNL     1       4.673   2.923  12.203  0.00  0.00    +0.000 C 
ATOM     13  C   UNL     1       5.959   3.659  12.298  0.00  0.00    +0.000 A 
ATOM     14  N   UNL     1       6.883   3.460  11.349  0.00  0.00    +0.000 NA
ATOM     15  O   UNL     1       7.941   4.276  11.677  0.00  0.00    +0.000 OA
ATOM     16  C   UNL     1       7.664   4.961  12.818  0.00  0.00    +0.000 A 
ATOM     17  C   UNL     1       8.743   5.860  13.275  0.00  0.00    +0.000 C 
ATOM     18  C   UNL     1       6.403   4.607  13.271  0.00  0.00    +0.000 A 
ENDBRANCH   1  18
BRANCH   7  19
ATOM     19  C   UNL     1       3.917   3.060  18.072  0.00  0.00    +0.000 C 
ATOM     20  C   UNL     1       3.667   2.308  19.397  0.00  0.00    +0.000 C 
ATOM     21  C   UNL     1       2.642   2.959  20.319  0.00  0.00    +0.000 C 
ATOM     22  C   UNL     1       1.361   3.409  19.620  0.00  0.00    +0.000 C 
ATOM     23  C   UNL     1       1.552   4.035  18.244  0.00  0.00    +0.000 C 
ATOM     24  C   UNL     1       2.553   3.276  17.385  0.00  0.00    +0.000 C 
ENDBRANCH   7  19
BRANCH   7  25
ATOM     25  N   UNL     1       6.159   3.878  18.763  0.00  0.00    +0.000 NA
ATOM     26  H   UNL     1       6.189   2.862  18.737  0.00  0.00    +0.000 HD
BRANCH  25  27
ATOM     27  C   UNL     1       7.367   4.406  18.105  0.00  0.00    +0.000 C 
BRANCH  27  28
ATOM     28  C   UNL     1       8.020   5.522  18.942  0.00  0.00    +0.000 C 
ATOM     29  C   UNL     1       7.795   6.912  18.358  0.00  0.00    +0.000 C 
BRANCH  28  30
ATOM     30  O   UNL     1       7.514   5.475  20.280  0.00  0.00    +0.000 OA
ATOM     31  H   UNL     1       7.033   4.635  20.363  0.00  0.00    +0.000 HD
ENDBRANCH  28  30
ENDBRANCH  27  28
ENDBRANCH  25  27
ENDBRANCH   7  25
TORSDOF 6
ENDMDL
MODEL 4
REMARK VINA RESULT:      -7.3      3.287      5.835
REMARK  Name = 
REMARK  9 active torsions:
REMARK  status: ('A' for Active; 'I' for Inactive)
REMARK    1  A    between atoms: C_1  and  C_2
REMARK    2  A    between atoms: C_5  and  C_6
REMARK    3  A    between atoms: C_7  and  C_8
REMARK    4  A    between atoms: C_14  and  N_15
REMARK    5  A    between atoms: C_14  and  C_20
REMARK    6  A    between atoms: N_15  and  C_16
REMARK    7  A    between atoms: C_16  and  C_17
REMARK    8  A    between atoms: C_17  and  C_18
REMARK    9  A    between atoms: C_17  and  O_19
REMARK                            x       y       z     vdW  Elec       q    Type
REMARK                         _______ _______ _______ _____ _____    ______ ____
ROOT
ATOM      1  C   UNL     1       1.757   7.454  20.163  0.00  0.00    +0.000 A 
ATOM      2  C   UNL     1       1.065   6.477  20.918  0.00  0.00    +0.000 A 
ATOM      3  C   UNL     1       1.465   5.137  20.935  0.00  0.00    +0.000 A 
ATOM      4  C   UNL     1       2.541   4.793  20.157  0.00  0.00    +0.000 A 
ATOM      5  C   UNL     1       3.224   5.720  19.371  0.00  0.00    +0.000 A 
ATOM      6  C   UNL     1       2.855   7.054  19.383  0.00  0.00    +0.000 A 
ATOM      7  C   UNL     1       4.343   5.020  18.605  0.00  0.00    +0.000 C 
ATOM      8  C   UNL     1       4.249   3.571  19.236  0.00  0.00    +0.000 C 
ATOM      9  O   UNL     1       5.014   2.629  19.128  0.00  0.00    +0.000 OA
ATOM     10  N   UNL     1       3.129   3.548  20.061  0.00  0.00    +0.000 N 
ATOM     11  H   UNL     1       2.872   2.731  20.593  0.00  0.00    +0.000 HD
ENDROOT
BRANCH   1  18
ATOM     12  C   UNL     1       1.471   9.735  17.741  0.00  0.00    +0.000 C 
ATOM     13  C   UNL     1       1.221   9.841  19.201  0.00  0.00    +0.000 A 
ATOM     14  N   UNL     1       0.806  11.013  19.696  0.00  0.00    +0.000 NA
ATOM     15  O   UNL     1       0.637  10.812  21.047  0.00  0.00    +0.000 OA
ATOM     16  C   UNL     1       0.952   9.530  21.369  0.00  0.00    +0.000 A 
ATOM     17  C   UNL     1       0.822   9.205  22.804  0.00  0.00    +0.000 C 
ATOM     18  C   UNL     1       1.339   8.852  20.225  0.00  0.00    +0.000 A 
ENDBRANCH   1  18
BRANCH   7  19
ATOM     19  C   UNL     1       4.082   5.105  17.052  0.00  0.00    +0.000 C 
ATOM     20  C   UNL     1       4.673   6.339  16.335  0.00  0.00    +0.000 C 
ATOM     21  C   UNL     1       6.163   6.248  16.027  0.00  0.00    +0.000 C 
ATOM     22  C   UNL     1       6.601   4.918  15.418  0.00  0.00    +0.000 C 
ATOM     23  C   UNL     1       5.938   3.678  16.006  0.00  0.00    +0.000 C 
ATOM     24  C   UNL     1       4.442   3.857  16.221  0.00  0.00    +0.000 C 
ENDBRANCH   7  19
BRANCH   7  25
ATOM     25  N   UNL     1       5.663   5.644  18.892  0.00  0.00    +0.000 NA
ATOM     26  H   UNL     1       5.558   6.236  19.712  0.00  0.00    +0.000 HD
BRANCH  25  27
ATOM     27  C   UNL     1       6.764   4.694  19.130  0.00  0.00    +0.000 C 
BRANCH  27  28
ATOM     28  C   UNL     1       8.071   5.428  19.488  0.00  0.00    +0.000 C 
ATOM     29  C   UNL     1       8.134   6.841  18.920  0.00  0.00    +0.000 C 
BRANCH  28  30
ATOM     30  O   UNL     1       8.219   5.476  20.910  0.00  0.00    +0.000 OA
ATOM     31  H   UNL     1       8.119   4.562  21.229  0.00  0.00    +0.000 HD
ENDBRANCH  28  30
ENDBRANCH  27  28
ENDBRANCH  25  27
ENDBRANCH   7  25
TORSDOF 6
ENDMDL
MODEL 5
REMARK VINA RESULT:      -7.2      2.524      4.219
REMARK  Name = 
REMARK  9 active torsions:
REMARK  status: ('A' for Active; 'I' for Inactive)
REMARK    1  A    between atoms: C_1  and  C_2
REMARK    2  A    between atoms: C_5  and  C_6
REMARK    3  A    between atoms: C_7  and  C_8
REMARK    4  A    between atoms: C_14  and  N_15
REMARK    5  A    between atoms: C_14  and  C_20
REMARK    6  A    between atoms: N_15  and  C_16
REMARK    7  A    between atoms: C_16  and  C_17
REMARK    8  A    between atoms: C_17  and  C_18
REMARK    9  A    between atoms: C_17  and  O_19
REMARK                            x       y       z     vdW  Elec       q    Type
REMARK                         _______ _______ _______ _____ _____    ______ ____
ROOT
ATOM      1  C   UNL     1       5.756   5.170  14.508  0.00  0.00    +0.000 A 
ATOM      2  C   UNL     1       5.177   6.461  14.509  0.00  0.00    +0.000 A 
ATOM      3  C   UNL     1       4.587   7.006  15.653  0.00  0.00    +0.000 A 
ATOM      4  C   UNL     1       4.556   6.221  16.779  0.00  0.00    +0.000 A 
ATOM      5  C   UNL     1       5.082   4.931  16.806  0.00  0.00    +0.000 A 
ATOM      6  C   UNL     1       5.702   4.404  15.686  0.00  0.00    +0.000 A 
ATOM      7  C   UNL     1       4.864   4.315  18.185  0.00  0.00    +0.000 C 
ATOM      8  C   UNL     1       4.264   5.561  18.955  0.00  0.00    +0.000 C 
ATOM      9  O   UNL     1       4.057   5.708  20.146  0.00  0.00    +0.000 OA
ATOM     10  N   UNL     1       4.069   6.573  18.021  0.00  0.00    +0.000 N 
ATOM     11  H   UNL     1       3.713   7.480  18.280  0.00  0.00    +0.000 HD
ENDROOT
BRANCH   1  18
ATOM     12  C   UNL     1       8.772   5.853  13.248  0.00  0.00    +0.000 C 
ATOM     13  C   UNL     1       7.698   4.957  12.749  0.00  0.00    +0.000 A 
ATOM     14  N   UNL     1       7.906   4.276  11.616  0.00  0.00    +0.000 NA
ATOM     15  O   UNL     1       6.772   3.523  11.415  0.00  0.00    +0.000 OA
ATOM     16  C   UNL     1       5.880   3.751  12.415  0.00  0.00    +0.000 A 
ATOM     17  C   UNL     1       4.611   3.005  12.292  0.00  0.00    +0.000 C 
ATOM     18  C   UNL     1       6.414   4.668  13.306  0.00  0.00    +0.000 A 
ENDBRANCH   1  18
BRANCH   7  19
ATOM     19  C   UNL     1       3.916   3.057  18.081  0.00  0.00    +0.000 C 
ATOM     20  C   UNL     1       3.685   2.276  19.392  0.00  0.00    +0.000 C 
ATOM     21  C   UNL     1       2.665   2.901  20.338  0.00  0.00    +0.000 C 
ATOM     22  C   UNL     1       1.375   3.358  19.661  0.00  0.00    +0.000 C 
ATOM     23  C   UNL     1       1.548   4.014  18.297  0.00  0.00    +0.000 C 
ATOM     24  C   UNL     1       2.544   3.280  17.413  0.00  0.00    +0.000 C 
ENDBRANCH   7  19
BRANCH   7  25
ATOM     25  N   UNL     1       6.152   3.879  18.790  0.00  0.00    +0.000 NA
ATOM     26  H   UNL     1       6.179   2.863  18.770  0.00  0.00    +0.000 HD
BRANCH  25  27
ATOM     27  C   UNL     1       7.360   4.400  18.126  0.00  0.00    +0.000 C 
BRANCH  27  28
ATOM     28  C   UNL     1       8.021   5.515  18.959  0.00  0.00    +0.000 C 
ATOM     29  C   UNL     1       7.804   6.904  18.370  0.00  0.00    +0.000 C 
BRANCH  28  30
ATOM     30  O   UNL     1       7.516   5.477  20.297  0.00  0.00    +0.000 OA
ATOM     31  H   UNL     1       7.501   6.396  20.613  0.00  0.00    +0.000 HD
ENDBRANCH  28  30
ENDBRANCH  27  28
ENDBRANCH  25  27
ENDBRANCH   7  25
TORSDOF 6
ENDMDL
MODEL 6
REMARK VINA RESULT:      -7.1      6.316      9.529
REMARK  Name = 
REMARK  9 active torsions:
REMARK  status: ('A' for Active; 'I' for Inactive)
REMARK    1  A    between atoms: C_1  and  C_2
REMARK    2  A    between atoms: C_5  and  C_6
REMARK    3  A    between atoms: C_7  and  C_8
REMARK    4  A    between atoms: C_14  and  N_15
REMARK    5  A    between atoms: C_14  and  C_20
REMARK    6  A    between atoms: N_15  and  C_16
REMARK    7  A    between atoms: C_16  and  C_17
REMARK    8  A    between atoms: C_17  and  C_18
REMARK    9  A    between atoms: C_17  and  O_19
REMARK                            x       y       z     vdW  Elec       q    Type
REMARK                         _______ _______ _______ _____ _____    ______ ____
ROOT
ATOM      1  C   UNL     1       1.655   7.865  20.001  0.00  0.00    +0.000 A 
ATOM      2  C   UNL     1       1.100   7.700  21.293  0.00  0.00    +0.000 A 
ATOM      3  C   UNL     1       0.264   8.662  21.866  0.00  0.00    +0.000 A 
ATOM      4  C   UNL     1       0.029   9.803  21.140  0.00  0.00    +0.000 A 
ATOM      5  C   UNL     1       0.588  10.018  19.882  0.00  0.00    +0.000 A 
ATOM      6  C   UNL     1       1.383   9.049  19.295  0.00  0.00    +0.000 A 
ATOM      7  C   UNL     1       0.161  11.386  19.356  0.00  0.00    +0.000 C 
ATOM      8  C   UNL     1      -0.861  11.813  20.487  0.00  0.00    +0.000 C 
ATOM      9  O   UNL     1      -1.643  12.746  20.510  0.00  0.00    +0.000 OA
ATOM     10  N   UNL     1      -0.795  10.853  21.492  0.00  0.00    +0.000 N 
ATOM     11  H   UNL     1      -1.376  10.898  22.314  0.00  0.00    +0.000 HD
ENDROOT
BRANCH   1  18
ATOM     12  C   UNL     1       3.630   7.888  17.309  0.00  0.00    +0.000 C 
ATOM     13  C   UNL     1       3.313   6.796  18.264  0.00  0.00    +0.000 A 
ATOM     14  N   UNL     1       3.882   5.598  18.080  0.00  0.00    +0.000 NA
ATOM     15  O   UNL     1       3.433   4.806  19.111  0.00  0.00    +0.000 OA
ATOM     16  C   UNL     1       2.594   5.515  19.911  0.00  0.00    +0.000 A 
ATOM     17  C   UNL     1       2.035   4.755  21.048  0.00  0.00    +0.000 C 
ATOM     18  C   UNL     1       2.472   6.805  19.419  0.00  0.00    +0.000 A 
ENDBRANCH   1  18
BRANCH   7  19
ATOM     19  C   UNL     1       1.418  12.324  19.183  0.00  0.00    +0.000 C 
ATOM     20  C   UNL     1       1.235  13.532  18.239  0.00  0.00    +0.000 C 
ATOM     21  C   UNL     1       0.498  14.718  18.853  0.00  0.00    +0.000 C 
ATOM     22  C   UNL     1       0.976  15.101  20.252  0.00  0.00    +0.000 C 
ATOM     23  C   UNL     1       1.301  13.933  21.176  0.00  0.00    +0.000 C 
ATOM     24  C   UNL     1       2.085  12.831  20.478  0.00  0.00    +0.000 C 
ENDBRANCH   7  19
BRANCH   7  25
ATOM     25  N   UNL     1      -0.517  11.268  18.037  0.00  0.00    +0.000 NA
ATOM     26  H   UNL     1       0.185  11.016  17.345  0.00  0.00    +0.000 HD
BRANCH  25  27
ATOM     27  C   UNL     1      -1.610  10.281  17.984  0.00  0.00    +0.000 C 
BRANCH  27  28
ATOM     28  C   UNL     1      -2.785  10.791  17.128  0.00  0.00    +0.000 C 
ATOM     29  C   UNL     1      -3.856  11.499  17.950  0.00  0.00    +0.000 C 
BRANCH  28  30
ATOM     30  O   UNL     1      -2.293  11.676  16.117  0.00  0.00    +0.000 OA
ATOM     31  H   UNL     1      -2.248  11.157  15.295  0.00  0.00    +0.000 HD
ENDBRANCH  28  30
ENDBRANCH  27  28
ENDBRANCH  25  27
ENDBRANCH   7  25
TORSDOF 6
ENDMDL
MODEL 7
REMARK VINA RESULT:      -7.1     10.247     13.025
REMARK  Name = 
REMARK  9 active torsions:
REMARK  status: ('A' for Active; 'I' for Inactive)
REMARK    1  A    between atoms: C_1  and  C_2
REMARK    2  A    between atoms: C_5  and  C_6
REMARK    3  A    between atoms: C_7  and  C_8
REMARK    4  A    between atoms: C_14  and  N_15
REMARK    5  A    between atoms: C_14  and  C_20
REMARK    6  A    between atoms: N_15  and  C_16
REMARK    7  A    between atoms: C_16  and  C_17
REMARK    8  A    between atoms: C_17  and  C_18
REMARK    9  A    between atoms: C_17  and  O_19
REMARK                            x       y       z     vdW  Elec       q    Type
REMARK                         _______ _______ _______ _____ _____    ______ ____
ROOT
ATOM      1  C   UNL     1       8.059  14.436  22.346  0.00  0.00    +0.000 A 
ATOM      2  C   UNL     1       9.211  15.027  22.917  0.00  0.00    +0.000 A 
ATOM      3  C   UNL     1      10.296  15.436  22.135  0.00  0.00    +0.000 A 
ATOM      4  C   UNL     1      10.218  15.206  20.784  0.00  0.00    +0.000 A 
ATOM      5  C   UNL     1       9.116  14.593  20.191  0.00  0.00    +0.000 A 
ATOM      6  C   UNL     1       8.024  14.224  20.957  0.00  0.00    +0.000 A 
ATOM      7  C   UNL     1       9.350  14.455  18.689  0.00  0.00    +0.000 C 
ATOM      8  C   UNL     1      10.713  15.249  18.545  0.00  0.00    +0.000 C 
ATOM      9  O   UNL     1      11.293  15.613  17.538  0.00  0.00    +0.000 OA
ATOM     10  N   UNL     1      11.145  15.568  19.828  0.00  0.00    +0.000 N 
ATOM     11  H   UNL     1      11.988  16.097  19.993  0.00  0.00    +0.000 HD
ENDROOT
BRANCH   1  18
ATOM     12  C   UNL     1       5.310  16.167  23.121  0.00  0.00    +0.000 C 
ATOM     13  C   UNL     1       5.750  14.813  23.545  0.00  0.00    +0.000 A 
ATOM     14  N   UNL     1       4.961  14.112  24.368  0.00  0.00    +0.000 NA
ATOM     15  O   UNL     1       5.599  12.909  24.567  0.00  0.00    +0.000 OA
ATOM     16  C   UNL     1       6.768  12.883  23.874  0.00  0.00    +0.000 A 
ATOM     17  C   UNL     1       7.549  11.639  24.028  0.00  0.00    +0.000 C 
ATOM     18  C   UNL     1       6.926  14.081  23.196  0.00  0.00    +0.000 A 
ENDBRANCH   1  18
BRANCH   7  19
ATOM     19  C   UNL     1       9.401  12.933  18.279  0.00  0.00    +0.000 C 
ATOM     20  C   UNL     1      10.492  12.545  17.257  0.00  0.00    +0.000 C 
ATOM     21  C   UNL     1      11.889  12.380  17.844  0.00  0.00    +0.000 C 
ATOM     22  C   UNL     1      11.939  11.562  19.133  0.00  0.00    +0.000 C 
ATOM     23  C   UNL     1      10.800  11.816  20.114  0.00  0.00    +0.000 C 
ATOM     24  C   UNL     1       9.444  11.908  19.430  0.00  0.00    +0.000 C 
ENDBRANCH   7  19
BRANCH   7  25
ATOM     25  N   UNL     1       8.263  15.112  17.913  0.00  0.00    +0.000 NA
ATOM     26  H   UNL     1       8.648  15.399  17.016  0.00  0.00    +0.000 HD
BRANCH  25  27
ATOM     27  C   UNL     1       7.075  14.274  17.672  0.00  0.00    +0.000 C 
BRANCH  27  28
ATOM     28  C   UNL     1       5.811  14.901  18.290  0.00  0.00    +0.000 C 
ATOM     29  C   UNL     1       6.010  16.355  18.703  0.00  0.00    +0.000 C 
BRANCH  28  30
ATOM     30  O   UNL     1       4.727  14.810  17.361  0.00  0.00    +0.000 OA
ATOM     31  H   UNL     1       5.069  15.125  16.506  0.00  0.00    +0.000 HD
ENDBRANCH  28  30
ENDBRANCH  27  28
ENDBRANCH  25  27
ENDBRANCH   7  25
TORSDOF 6
ENDMDL
MODEL 8
REMARK VINA RESULT:      -7.0     10.377     13.053
REMARK  Name = 
REMARK  9 active torsions:
REMARK  status: ('A' for Active; 'I' for Inactive)
REMARK    1  A    between atoms: C_1  and  C_2
REMARK    2  A    between atoms: C_5  and  C_6
REMARK    3  A    between atoms: C_7  and  C_8
REMARK    4  A    between atoms: C_14  and  N_15
REMARK    5  A    between atoms: C_14  and  C_20
REMARK    6  A    between atoms: N_15  and  C_16
REMARK    7  A    between atoms: C_16  and  C_17
REMARK    8  A    between atoms: C_17  and  C_18
REMARK    9  A    between atoms: C_17  and  O_19
REMARK                            x       y       z     vdW  Elec       q    Type
REMARK                         _______ _______ _______ _____ _____    ______ ____
ROOT
ATOM      1  C   UNL     1       7.972  14.462  22.616  0.00  0.00    +0.000 A 
ATOM      2  C   UNL     1       9.126  15.022  23.214  0.00  0.00    +0.000 A 
ATOM      3  C   UNL     1      10.234  15.415  22.456  0.00  0.00    +0.000 A 
ATOM      4  C   UNL     1      10.176  15.202  21.101  0.00  0.00    +0.000 A 
ATOM      5  C   UNL     1       9.072  14.618  20.482  0.00  0.00    +0.000 A 
ATOM      6  C   UNL     1       7.958  14.265  21.225  0.00  0.00    +0.000 A 
ATOM      7  C   UNL     1       9.330  14.491  18.983  0.00  0.00    +0.000 C 
ATOM      8  C   UNL     1      10.712  15.256  18.873  0.00  0.00    +0.000 C 
ATOM      9  O   UNL     1      11.318  15.619  17.880  0.00  0.00    +0.000 OA
ATOM     10  N   UNL     1      11.128  15.553  20.167  0.00  0.00    +0.000 N 
ATOM     11  H   UNL     1      11.978  16.062  20.352  0.00  0.00    +0.000 HD
ENDROOT
BRANCH   1  18
ATOM     12  C   UNL     1       7.306  11.704  24.378  0.00  0.00    +0.000 C 
ATOM     13  C   UNL     1       6.513  12.946  24.192  0.00  0.00    +0.000 A 
ATOM     14  N   UNL     1       5.329  13.048  24.808  0.00  0.00    +0.000 NA
ATOM     15  O   UNL     1       4.840  14.291  24.480  0.00  0.00    +0.000 OA
ATOM     16  C   UNL     1       5.718  14.937  23.668  0.00  0.00    +0.000 A 
ATOM     17  C   UNL     1       5.286  16.282  23.237  0.00  0.00    +0.000 C 
ATOM     18  C   UNL     1       6.817  14.123  23.442  0.00  0.00    +0.000 A 
ENDBRANCH   1  18
BRANCH   7  19
ATOM     19  C   UNL     1       9.356  12.973  18.557  0.00  0.00    +0.000 C 
ATOM     20  C   UNL     1      10.358  12.601  17.443  0.00  0.00    +0.000 C 
ATOM     21  C   UNL     1      11.802  12.441  17.908  0.00  0.00    +0.000 C 
ATOM     22  C   UNL     1      11.966  11.614  19.181  0.00  0.00    +0.000 C 
ATOM     23  C   UNL     1      10.913  11.852  20.257  0.00  0.00    +0.000 C 
ATOM     24  C   UNL     1       9.503  11.939  19.693  0.00  0.00    +0.000 C 
ENDBRANCH   7  19
BRANCH   7  25
ATOM     25  N   UNL     1       8.272  15.179  18.195  0.00  0.00    +0.000 NA
ATOM     26  H   UNL     1       8.701  15.545  17.348  0.00  0.00    +0.000 HD
BRANCH  25  27
ATOM     27  C   UNL     1       7.126  14.333  17.818  0.00  0.00    +0.000 C 
BRANCH  27  28
ATOM     28  C   UNL     1       5.805  14.897  18.377  0.00  0.00    +0.000 C 
ATOM     29  C   UNL     1       5.926  16.343  18.844  0.00  0.00    +0.000 C 
BRANCH  28  30
ATOM     30  O   UNL     1       4.783  14.799  17.381  0.00  0.00    +0.000 OA
ATOM     31  H   UNL     1       4.076  15.411  17.649  0.00  0.00    +0.000 HD
ENDBRANCH  28  30
ENDBRANCH  27  28
ENDBRANCH  25  27
ENDBRANCH   7  25
TORSDOF 6
ENDMDL
MODEL 9
REMARK VINA RESULT:      -7.0      6.279      9.412
REMARK  Name = 
REMARK  9 active torsions:
REMARK  status: ('A' for Active; 'I' for Inactive)
REMARK    1  A    between atoms: C_1  and  C_2
REMARK    2  A    between atoms: C_5  and  C_6
REMARK    3  A    between atoms: C_7  and  C_8
REMARK    4  A    between atoms: C_14  and  N_15
REMARK    5  A    between atoms: C_14  and  C_20
REMARK    6  A    between atoms: N_15  and  C_16
REMARK    7  A    between atoms: C_16  and  C_17
REMARK    8  A    between atoms: C_17  and  C_18
REMARK    9  A    between atoms: C_17  and  O_19
REMARK                            x       y       z     vdW  Elec       q    Type
REMARK                         _______ _______ _______ _____ _____    ______ ____
ROOT
ATOM      1  C   UNL     1       1.624   7.960  20.146  0.00  0.00    +0.000 A 
ATOM      2  C   UNL     1       1.762   8.107  21.547  0.00  0.00    +0.000 A 
ATOM      3  C   UNL     1       1.124   9.134  22.249  0.00  0.00    +0.000 A 
ATOM      4  C   UNL     1       0.382  10.028  21.518  0.00  0.00    +0.000 A 
ATOM      5  C   UNL     1       0.254   9.938  20.133  0.00  0.00    +0.000 A 
ATOM      6  C   UNL     1       0.852   8.898  19.441  0.00  0.00    +0.000 A 
ATOM      7  C   UNL     1      -0.604  11.091  19.619  0.00  0.00    +0.000 C 
ATOM      8  C   UNL     1      -1.053  11.737  20.993  0.00  0.00    +0.000 C 
ATOM      9  O   UNL     1      -1.891  12.594  21.207  0.00  0.00    +0.000 OA
ATOM     10  N   UNL     1      -0.363  11.081  22.007  0.00  0.00    +0.000 N 
ATOM     11  H   UNL     1      -0.500  11.305  22.981  0.00  0.00    +0.000 HD
ENDROOT
BRANCH   1  18
ATOM     12  C   UNL     1       1.580   4.697  20.857  0.00  0.00    +0.000 C 
ATOM     13  C   UNL     1       2.259   5.438  19.763  0.00  0.00    +0.000 A 
ATOM     14  N   UNL     1       2.985   4.747  18.875  0.00  0.00    +0.000 NA
ATOM     15  O   UNL     1       3.466   5.674  17.980  0.00  0.00    +0.000 OA
ATOM     16  C   UNL     1       3.041   6.918  18.324  0.00  0.00    +0.000 A 
ATOM     17  C   UNL     1       3.514   8.000  17.438  0.00  0.00    +0.000 C 
ATOM     18  C   UNL     1       2.260   6.836  19.466  0.00  0.00    +0.000 A 
ENDBRANCH   1  18
BRANCH   7  19
ATOM     19  C   UNL     1       0.243  12.025  18.671  0.00  0.00    +0.000 C 
ATOM     20  C   UNL     1      -0.425  13.356  18.263  0.00  0.00    +0.000 C 
ATOM     21  C   UNL     1      -0.359  14.455  19.318  0.00  0.00    +0.000 C 
ATOM     22  C   UNL     1       1.016  14.630  19.960  0.00  0.00    +0.000 C 
ATOM     23  C   UNL     1       1.770  13.339  20.255  0.00  0.00    +0.000 C 
ATOM     24  C   UNL     1       1.686  12.335  19.116  0.00  0.00    +0.000 C 
ENDBRANCH   7  19
BRANCH   7  25
ATOM     25  N   UNL     1      -1.777  10.589  18.854  0.00  0.00    +0.000 NA
ATOM     26  H   UNL     1      -2.460  11.341  18.800  0.00  0.00    +0.000 HD
BRANCH  25  27
ATOM     27  C   UNL     1      -1.478  10.121  17.489  0.00  0.00    +0.000 C 
BRANCH  27  28
ATOM     28  C   UNL     1      -2.656  10.391  16.533  0.00  0.00    +0.000 C 
ATOM     29  C   UNL     1      -3.954  10.710  17.264  0.00  0.00    +0.000 C 
BRANCH  28  30
ATOM     30  O   UNL     1      -2.321  11.471  15.656  0.00  0.00    +0.000 OA
ATOM     31  H   UNL     1      -3.160  11.902  15.417  0.00  0.00    +0.000 HD
ENDBRANCH  28  30
ENDBRANCH  27  28
ENDBRANCH  25  27
ENDBRANCH   7  25
TORSDOF 6
ENDMDL
