MODEL 1
REMARK VINA RESULT:      -6.0      0.000      0.000
REMARK  Name = 
REMARK  15 active torsions:
REMARK  status: ('A' for Active; 'I' for Inactive)
REMARK    1  A    between atoms: C_1  and  C_2
REMARK    2  A    between atoms: C_2  and  C_3
REMARK    3  A    between atoms: C_3  and  C_4
REMARK    4  A    between atoms: C_4  and  C_5
REMARK    5  A    between atoms: C_5  and  C_6
REMARK    6  A    between atoms: C_6  and  C_7
REMARK    7  A    between atoms: C_7  and  C_8
REMARK    8  A    between atoms: C_8  and  C_9
REMARK    9  A    between atoms: C_9  and  C_10
REMARK   10  A    between atoms: C_10  and  C_11
REMARK   11  A    between atoms: C_11  and  C_12
REMARK   12  A    between atoms: C_12  and  C_13
REMARK   13  A    between atoms: C_14  and  O_15
REMARK   14  A    between atoms: C_19  and  O_20
REMARK   15  A    between atoms: O_20  and  C_21
REMARK                            x       y       z     vdW  Elec       q    Type
REMARK                         _______ _______ _______ _____ _____    ______ ____
ROOT
ATOM      1  C   UNL     1       4.933   3.925  16.605  0.00  0.00    +0.000 C 
ENDROOT
BRANCH   1   2
ATOM      2  C   UNL     1       5.944   4.735  17.372  0.00  0.00    +0.000 C 
ATOM      3  C   UNL     1       6.261   4.525  18.662  0.00  0.00    +0.000 C 
ATOM      4  C   UNL     1       7.240   5.418  19.346  0.00  0.00    +0.000 C 
ATOM      5  O   UNL     1       7.682   5.184  20.465  0.00  0.00    +0.000 OA
ATOM      6  C   UNL     1       7.630   6.647  18.646  0.00  0.00    +0.000 C 
ATOM      7  C   UNL     1       7.347   6.874  17.358  0.00  0.00    +0.000 C 
ATOM      8  C   UNL     1       6.609   5.820  16.588  0.00  0.00    +0.000 C 
ATOM      9  O   UNL     1       6.525   5.830  15.365  0.00  0.00    +0.000 OA
BRANCH   3  10
ATOM     10  O   UNL     1       5.724   3.503  19.428  0.00  0.00    +0.000 OA
ATOM     11  H   UNL     1       4.756   3.509  19.387  0.00  0.00    +0.000 HD
ENDBRANCH   3  10
BRANCH   7  12
ATOM     12  O   UNL     1       7.773   8.081  16.823  0.00  0.00    +0.000 OA
ATOM     13  C   UNL     1       8.067   9.147  17.718  0.00  0.00    +0.000 C 
ENDBRANCH   7  12
ENDBRANCH   1   2
BRANCH   1  14
ATOM     14  C   UNL     1       3.561   4.587  16.662  0.00  0.00    +0.000 C 
BRANCH  14  15
ATOM     15  C   UNL     1       2.530   3.656  17.283  0.00  0.00    +0.000 C 
BRANCH  15  16
ATOM     16  C   UNL     1       3.035   2.220  17.231  0.00  0.00    +0.000 C 
BRANCH  16  17
ATOM     17  C   UNL     1       3.124   1.638  18.632  0.00  0.00    +0.000 C 
BRANCH  17  18
ATOM     18  C   UNL     1       2.007   2.184  19.507  0.00  0.00    +0.000 C 
BRANCH  18  19
ATOM     19  C   UNL     1       2.551   2.551  20.880  0.00  0.00    +0.000 C 
BRANCH  19  20
ATOM     20  C   UNL     1       1.689   3.626  21.526  0.00  0.00    +0.000 C 
BRANCH  20  21
ATOM     21  C   UNL     1       1.238   4.643  20.486  0.00  0.00    +0.000 C 
BRANCH  21  22
ATOM     22  C   UNL     1       1.442   6.062  21.002  0.00  0.00    +0.000 C 
BRANCH  22  24
ATOM     23  C   UNL     1       3.388   6.434  19.467  0.00  0.00    +0.000 C 
ATOM     24  C   UNL     1       2.037   6.957  19.921  0.00  0.00    +0.000 C 
ENDBRANCH  22  24
ENDBRANCH  21  22
ENDBRANCH  20  21
ENDBRANCH  19  20
ENDBRANCH  18  19
ENDBRANCH  17  18
ENDBRANCH  16  17
ENDBRANCH  15  16
ENDBRANCH  14  15
ENDBRANCH   1  14
TORSDOF 13
ENDMDL
MODEL 2
REMARK VINA RESULT:      -5.9      3.546      6.061
REMARK  Name = 
REMARK  15 active torsions:
REMARK  status: ('A' for Active; 'I' for Inactive)
REMARK    1  A    between atoms: C_1  and  C_2
REMARK    2  A    between atoms: C_2  and  C_3
REMARK    3  A    between atoms: C_3  and  C_4
REMARK    4  A    between atoms: C_4  and  C_5
REMARK    5  A    between atoms: C_5  and  C_6
REMARK    6  A    between atoms: C_6  and  C_7
REMARK    7  A    between atoms: C_7  and  C_8
REMARK    8  A    between atoms: C_8  and  C_9
REMARK    9  A    between atoms: C_9  and  C_10
REMARK   10  A    between atoms: C_10  and  C_11
REMARK   11  A    between atoms: C_11  and  C_12
REMARK   12  A    between atoms: C_12  and  C_13
REMARK   13  A    between atoms: C_14  and  O_15
REMARK   14  A    between atoms: C_19  and  O_20
REMARK   15  A    between atoms: O_20  and  C_21
REMARK                            x       y       z     vdW  Elec       q    Type
REMARK                         _______ _______ _______ _____ _____    ______ ____
ROOT
ATOM      1  C   UNL     1       2.401   7.047  18.183  0.00  0.00    +0.000 C 
ENDROOT
BRANCH   1   2
ATOM      2  C   UNL     1       1.785   8.186  18.952  0.00  0.00    +0.000 C 
ATOM      3  C   UNL     1       1.500   9.390  18.423  0.00  0.00    +0.000 C 
ATOM      4  C   UNL     1       0.936  10.469  19.283  0.00  0.00    +0.000 C 
ATOM      5  O   UNL     1       0.515  11.527  18.831  0.00  0.00    +0.000 OA
ATOM      6  C   UNL     1       0.951  10.247  20.734  0.00  0.00    +0.000 C 
ATOM      7  C   UNL     1       1.210   9.056  21.287  0.00  0.00    +0.000 C 
ATOM      8  C   UNL     1       1.486   7.891  20.386  0.00  0.00    +0.000 C 
ATOM      9  O   UNL     1       1.488   6.732  20.784  0.00  0.00    +0.000 OA
BRANCH   3  10
ATOM     10  O   UNL     1       1.699   9.709  17.089  0.00  0.00    +0.000 OA
ATOM     11  H   UNL     1       0.925  10.161  16.721  0.00  0.00    +0.000 HD
ENDBRANCH   3  10
BRANCH   7  12
ATOM     12  O   UNL     1       1.194   8.990  22.673  0.00  0.00    +0.000 OA
ATOM     13  C   UNL     1       0.054   9.495  23.357  0.00  0.00    +0.000 C 
ENDBRANCH   7  12
ENDBRANCH   1   2
BRANCH   1  14
ATOM     14  C   UNL     1       3.851   7.361  17.832  0.00  0.00    +0.000 C 
BRANCH  14  15
ATOM     15  C   UNL     1       4.712   6.107  17.894  0.00  0.00    +0.000 C 
BRANCH  15  16
ATOM     16  C   UNL     1       4.542   5.433  19.250  0.00  0.00    +0.000 C 
BRANCH  16  17
ATOM     17  C   UNL     1       4.722   3.930  19.121  0.00  0.00    +0.000 C 
BRANCH  17  18
ATOM     18  C   UNL     1       4.426   3.479  17.698  0.00  0.00    +0.000 C 
BRANCH  18  19
ATOM     19  C   UNL     1       3.209   2.565  17.683  0.00  0.00    +0.000 C 
BRANCH  19  20
ATOM     20  C   UNL     1       1.928   3.383  17.593  0.00  0.00    +0.000 C 
BRANCH  20  21
ATOM     21  C   UNL     1       0.861   2.804  18.512  0.00  0.00    +0.000 C 
BRANCH  21  22
ATOM     22  C   UNL     1       0.877   3.512  19.862  0.00  0.00    +0.000 C 
BRANCH  22  24
ATOM     23  C   UNL     1       2.290   3.471  21.932  0.00  0.00    +0.000 C 
ATOM     24  C   UNL     1       1.513   2.633  20.932  0.00  0.00    +0.000 C 
ENDBRANCH  22  24
ENDBRANCH  21  22
ENDBRANCH  20  21
ENDBRANCH  19  20
ENDBRANCH  18  19
ENDBRANCH  17  18
ENDBRANCH  16  17
ENDBRANCH  15  16
ENDBRANCH  14  15
ENDBRANCH   1  14
TORSDOF 13
ENDMDL
MODEL 3
REMARK VINA RESULT:      -5.8      3.254      8.404
REMARK  Name = 
REMARK  15 active torsions:
REMARK  status: ('A' for Active; 'I' for Inactive)
REMARK    1  A    between atoms: C_1  and  C_2
REMARK    2  A    between atoms: C_2  and  C_3
REMARK    3  A    between atoms: C_3  and  C_4
REMARK    4  A    between atoms: C_4  and  C_5
REMARK    5  A    between atoms: C_5  and  C_6
REMARK    6  A    between atoms: C_6  and  C_7
REMARK    7  A    between atoms: C_7  and  C_8
REMARK    8  A    between atoms: C_8  and  C_9
REMARK    9  A    between atoms: C_9  and  C_10
REMARK   10  A    between atoms: C_10  and  C_11
REMARK   11  A    between atoms: C_11  and  C_12
REMARK   12  A    between atoms: C_12  and  C_13
REMARK   13  A    between atoms: C_14  and  O_15
REMARK   14  A    between atoms: C_19  and  O_20
REMARK   15  A    between atoms: O_20  and  C_21
REMARK                            x       y       z     vdW  Elec       q    Type
REMARK                         _______ _______ _______ _____ _____    ______ ____
ROOT
ATOM      1  C   UNL     1       7.899   6.897  18.035  0.00  0.00    +0.000 C 
ENDROOT
BRANCH   1   2
ATOM      2  C   UNL     1       7.035   5.749  17.586  0.00  0.00    +0.000 C 
ATOM      3  C   UNL     1       6.962   5.308  16.318  0.00  0.00    +0.000 C 
ATOM      4  C   UNL     1       6.035   4.194  15.967  0.00  0.00    +0.000 C 
ATOM      5  O   UNL     1       6.038   3.649  14.869  0.00  0.00    +0.000 OA
ATOM      6  C   UNL     1       5.054   3.791  16.982  0.00  0.00    +0.000 C 
ATOM      7  C   UNL     1       5.114   4.198  18.255  0.00  0.00    +0.000 C 
ATOM      8  C   UNL     1       6.242   5.094  18.671  0.00  0.00    +0.000 C 
ATOM      9  O   UNL     1       6.516   5.313  19.845  0.00  0.00    +0.000 OA
BRANCH   3  10
ATOM     10  O   UNL     1       7.712   5.832  15.278  0.00  0.00    +0.000 OA
ATOM     11  H   UNL     1       7.142   6.134  14.555  0.00  0.00    +0.000 HD
ENDBRANCH   3  10
BRANCH   7  12
ATOM     12  O   UNL     1       4.119   3.743  19.108  0.00  0.00    +0.000 OA
ATOM     13  C   UNL     1       4.346   2.536  19.824  0.00  0.00    +0.000 C 
ENDBRANCH   7  12
ENDBRANCH   1   2
BRANCH   1  14
ATOM     14  C   UNL     1       7.256   8.229  17.664  0.00  0.00    +0.000 C 
BRANCH  14  15
ATOM     15  C   UNL     1       8.284   9.351  17.659  0.00  0.00    +0.000 C 
BRANCH  15  16
ATOM     16  C   UNL     1       8.961   9.435  19.021  0.00  0.00    +0.000 C 
BRANCH  16  17
ATOM     17  C   UNL     1       9.633  10.787  19.197  0.00  0.00    +0.000 C 
BRANCH  17  18
ATOM     18  C   UNL     1      10.278  11.233  17.894  0.00  0.00    +0.000 C 
BRANCH  18  19
ATOM     19  C   UNL     1      10.829  12.644  18.040  0.00  0.00    +0.000 C 
BRANCH  19  20
ATOM     20  C   UNL     1       9.698  13.662  18.034  0.00  0.00    +0.000 C 
BRANCH  20  21
ATOM     21  C   UNL     1       9.920  14.711  19.115  0.00  0.00    +0.000 C 
BRANCH  21  22
ATOM     22  C   UNL     1      10.824  14.163  20.214  0.00  0.00    +0.000 C 
BRANCH  22  24
ATOM     23  C   UNL     1       8.736  14.583  21.536  0.00  0.00    +0.000 C 
ATOM     24  C   UNL     1      10.011  13.764  21.440  0.00  0.00    +0.000 C 
ENDBRANCH  22  24
ENDBRANCH  21  22
ENDBRANCH  20  21
ENDBRANCH  19  20
ENDBRANCH  18  19
ENDBRANCH  17  18
ENDBRANCH  16  17
ENDBRANCH  15  16
ENDBRANCH  14  15
ENDBRANCH   1  14
TORSDOF 13
ENDMDL
MODEL 4
REMARK VINA RESULT:      -5.7      0.978      2.586
REMARK  Name = 
REMARK  15 active torsions:
REMARK  status: ('A' for Active; 'I' for Inactive)
REMARK    1  A    between atoms: C_1  and  C_2
REMARK    2  A    between atoms: C_2  and  C_3
REMARK    3  A    between atoms: C_3  and  C_4
REMARK    4  A    between atoms: C_4  and  C_5
REMARK    5  A    between atoms: C_5  and  C_6
REMARK    6  A    between atoms: C_6  and  C_7
REMARK    7  A    between atoms: C_7  and  C_8
REMARK    8  A    between atoms: C_8  and  C_9
REMARK    9  A    between atoms: C_9  and  C_10
REMARK   10  A    between atoms: C_10  and  C_11
REMARK   11  A    between atoms: C_11  and  C_12
REMARK   12  A    between atoms: C_12  and  C_13
REMARK   13  A    between atoms: C_14  and  O_15
REMARK   14  A    between atoms: C_19  and  O_20
REMARK   15  A    between atoms: O_20  and  C_21
REMARK                            x       y       z     vdW  Elec       q    Type
REMARK                         _______ _______ _______ _____ _____    ______ ____
ROOT
ATOM      1  C   UNL     1       4.719   4.774  16.622  0.00  0.00    +0.000 C 
ENDROOT
BRANCH   1   2
ATOM      2  C   UNL     1       5.922   5.386  17.290  0.00  0.00    +0.000 C 
ATOM      3  C   UNL     1       6.550   4.853  18.353  0.00  0.00    +0.000 C 
ATOM      4  C   UNL     1       7.705   5.565  18.973  0.00  0.00    +0.000 C 
ATOM      5  O   UNL     1       8.409   5.059  19.839  0.00  0.00    +0.000 OA
ATOM      6  C   UNL     1       7.949   6.948  18.545  0.00  0.00    +0.000 C 
ATOM      7  C   UNL     1       7.354   7.497  17.480  0.00  0.00    +0.000 C 
ATOM      8  C   UNL     1       6.405   6.661  16.675  0.00  0.00    +0.000 C 
ATOM      9  O   UNL     1       6.011   6.990  15.563  0.00  0.00    +0.000 OA
BRANCH   3  10
ATOM     10  O   UNL     1       6.190   3.648  18.934  0.00  0.00    +0.000 OA
ATOM     11  H   UNL     1       6.338   3.665  19.891  0.00  0.00    +0.000 HD
ENDBRANCH   3  10
BRANCH   7  12
ATOM     12  O   UNL     1       7.674   8.816  17.192  0.00  0.00    +0.000 OA
ATOM     13  C   UNL     1       8.391   9.563  18.167  0.00  0.00    +0.000 C 
ENDBRANCH   7  12
ENDBRANCH   1   2
BRANCH   1  14
ATOM     14  C   UNL     1       3.702   4.320  17.663  0.00  0.00    +0.000 C 
BRANCH  14  15
ATOM     15  C   UNL     1       2.387   5.069  17.507  0.00  0.00    +0.000 C 
BRANCH  15  16
ATOM     16  C   UNL     1       2.576   6.529  17.897  0.00  0.00    +0.000 C 
BRANCH  16  17
ATOM     17  C   UNL     1       3.084   6.635  19.325  0.00  0.00    +0.000 C 
BRANCH  17  18
ATOM     18  C   UNL     1       1.936   6.933  20.277  0.00  0.00    +0.000 C 
BRANCH  18  19
ATOM     19  C   UNL     1       1.314   5.634  20.769  0.00  0.00    +0.000 C 
BRANCH  19  20
ATOM     20  C   UNL     1       2.391   4.682  21.269  0.00  0.00    +0.000 C 
BRANCH  20  21
ATOM     21  C   UNL     1       2.104   3.261  20.803  0.00  0.00    +0.000 C 
BRANCH  21  22
ATOM     22  C   UNL     1       0.731   3.181  20.147  0.00  0.00    +0.000 C 
BRANCH  22  24
ATOM     23  C   UNL     1       2.079   1.537  18.819  0.00  0.00    +0.000 C 
ATOM     24  C   UNL     1       0.772   2.306  18.900  0.00  0.00    +0.000 C 
ENDBRANCH  22  24
ENDBRANCH  21  22
ENDBRANCH  20  21
ENDBRANCH  19  20
ENDBRANCH  18  19
ENDBRANCH  17  18
ENDBRANCH  16  17
ENDBRANCH  15  16
ENDBRANCH  14  15
ENDBRANCH   1  14
TORSDOF 13
ENDMDL
MODEL 5
REMARK VINA RESULT:      -5.7      3.172      8.428
REMARK  Name = 
REMARK  15 active torsions:
REMARK  status: ('A' for Active; 'I' for Inactive)
REMARK    1  A    between atoms: C_1  and  C_2
REMARK    2  A    between atoms: C_2  and  C_3
REMARK    3  A    between atoms: C_3  and  C_4
REMARK    4  A    between atoms: C_4  and  C_5
REMARK    5  A    between atoms: C_5  and  C_6
REMARK    6  A    between atoms: C_6  and  C_7
REMARK    7  A    between atoms: C_7  and  C_8
REMARK    8  A    between atoms: C_8  and  C_9
REMARK    9  A    between atoms: C_9  and  C_10
REMARK   10  A    between atoms: C_10  and  C_11
REMARK   11  A    between atoms: C_11  and  C_12
REMARK   12  A    between atoms: C_12  and  C_13
REMARK   13  A    between atoms: C_14  and  O_15
REMARK   14  A    between atoms: C_19  and  O_20
REMARK   15  A    between atoms: O_20  and  C_21
REMARK                            x       y       z     vdW  Elec       q    Type
REMARK                         _______ _______ _______ _____ _____    ______ ____
ROOT
ATOM      1  C   UNL     1       7.939   6.915  18.054  0.00  0.00    +0.000 C 
ENDROOT
BRANCH   1   2
ATOM      2  C   UNL     1       7.075   5.760  17.621  0.00  0.00    +0.000 C 
ATOM      3  C   UNL     1       6.981   5.319  16.353  0.00  0.00    +0.000 C 
ATOM      4  C   UNL     1       6.055   4.198  16.020  0.00  0.00    +0.000 C 
ATOM      5  O   UNL     1       6.041   3.654  14.922  0.00  0.00    +0.000 OA
ATOM      6  C   UNL     1       5.096   3.789  17.053  0.00  0.00    +0.000 C 
ATOM      7  C   UNL     1       5.177   4.196  18.325  0.00  0.00    +0.000 C 
ATOM      8  C   UNL     1       6.306   5.100  18.720  0.00  0.00    +0.000 C 
ATOM      9  O   UNL     1       6.601   5.321  19.889  0.00  0.00    +0.000 OA
BRANCH   3  10
ATOM     10  O   UNL     1       7.708   5.849  15.300  0.00  0.00    +0.000 OA
ATOM     11  H   UNL     1       7.779   5.213  14.572  0.00  0.00    +0.000 HD
ENDBRANCH   3  10
BRANCH   7  12
ATOM     12  O   UNL     1       4.202   3.734  19.196  0.00  0.00    +0.000 OA
ATOM     13  C   UNL     1       3.411   2.623  18.793  0.00  0.00    +0.000 C 
ENDBRANCH   7  12
ENDBRANCH   1   2
BRANCH   1  14
ATOM     14  C   UNL     1       7.306   8.240  17.645  0.00  0.00    +0.000 C 
BRANCH  14  15
ATOM     15  C   UNL     1       8.314   9.377  17.730  0.00  0.00    +0.000 C 
BRANCH  15  16
ATOM     16  C   UNL     1       8.877   9.461  19.143  0.00  0.00    +0.000 C 
BRANCH  16  17
ATOM     17  C   UNL     1       9.775  10.679  19.285  0.00  0.00    +0.000 C 
BRANCH  17  18
ATOM     18  C   UNL     1      10.128  11.242  17.917  0.00  0.00    +0.000 C 
BRANCH  18  19
ATOM     19  C   UNL     1      11.378  12.104  18.014  0.00  0.00    +0.000 C 
BRANCH  19  20
ATOM     20  C   UNL     1      11.023  13.512  18.469  0.00  0.00    +0.000 C 
BRANCH  20  21
ATOM     21  C   UNL     1       9.805  14.024  17.712  0.00  0.00    +0.000 C 
BRANCH  21  22
ATOM     22  C   UNL     1       9.581  15.504  17.999  0.00  0.00    +0.000 C 
BRANCH  22  24
ATOM     23  C   UNL     1       7.244  14.640  17.727  0.00  0.00    +0.000 C 
ATOM     24  C   UNL     1       8.099  15.804  18.193  0.00  0.00    +0.000 C 
ENDBRANCH  22  24
ENDBRANCH  21  22
ENDBRANCH  20  21
ENDBRANCH  19  20
ENDBRANCH  18  19
ENDBRANCH  17  18
ENDBRANCH  16  17
ENDBRANCH  15  16
ENDBRANCH  14  15
ENDBRANCH   1  14
TORSDOF 13
ENDMDL
MODEL 6
REMARK VINA RESULT:      -5.6      2.716      6.505
REMARK  Name = 
REMARK  15 active torsions:
REMARK  status: ('A' for Active; 'I' for Inactive)
REMARK    1  A    between atoms: C_1  and  C_2
REMARK    2  A    between atoms: C_2  and  C_3
REMARK    3  A    between atoms: C_3  and  C_4
REMARK    4  A    between atoms: C_4  and  C_5
REMARK    5  A    between atoms: C_5  and  C_6
REMARK    6  A    between atoms: C_6  and  C_7
REMARK    7  A    between atoms: C_7  and  C_8
REMARK    8  A    between atoms: C_8  and  C_9
REMARK    9  A    between atoms: C_9  and  C_10
REMARK   10  A    between atoms: C_10  and  C_11
REMARK   11  A    between atoms: C_11  and  C_12
REMARK   12  A    between atoms: C_12  and  C_13
REMARK   13  A    between atoms: C_14  and  O_15
REMARK   14  A    between atoms: C_19  and  O_20
REMARK   15  A    between atoms: O_20  and  C_21
REMARK                            x       y       z     vdW  Elec       q    Type
REMARK                         _______ _______ _______ _____ _____    ______ ____
ROOT
ATOM      1  C   UNL     1       2.225   5.269  18.356  0.00  0.00    +0.000 C 
ENDROOT
BRANCH   1   2
ATOM      2  C   UNL     1       2.392   4.170  19.372  0.00  0.00    +0.000 C 
ATOM      3  C   UNL     1       1.534   3.934  20.380  0.00  0.00    +0.000 C 
ATOM      4  C   UNL     1       1.818   2.851  21.365  0.00  0.00    +0.000 C 
ATOM      5  O   UNL     1       1.004   2.489  22.207  0.00  0.00    +0.000 OA
ATOM      6  C   UNL     1       3.156   2.249  21.334  0.00  0.00    +0.000 C 
ATOM      7  C   UNL     1       4.023   2.450  20.334  0.00  0.00    +0.000 C 
ATOM      8  C   UNL     1       3.606   3.317  19.184  0.00  0.00    +0.000 C 
ATOM      9  O   UNL     1       4.223   3.357  18.127  0.00  0.00    +0.000 OA
BRANCH   3  10
ATOM     10  O   UNL     1       0.364   4.650  20.576  0.00  0.00    +0.000 OA
ATOM     11  H   UNL     1      -0.090   4.360  21.381  0.00  0.00    +0.000 HD
ENDBRANCH   3  10
BRANCH   7  12
ATOM     12  O   UNL     1       5.255   1.821  20.435  0.00  0.00    +0.000 OA
ATOM     13  C   UNL     1       5.435   0.853  21.460  0.00  0.00    +0.000 C 
ENDBRANCH   7  12
ENDBRANCH   1   2
BRANCH   1  14
ATOM     14  C   UNL     1       3.042   6.494  18.753  0.00  0.00    +0.000 C 
BRANCH  14  15
ATOM     15  C   UNL     1       3.297   7.393  17.552  0.00  0.00    +0.000 C 
BRANCH  15  16
ATOM     16  C   UNL     1       4.543   6.925  16.813  0.00  0.00    +0.000 C 
BRANCH  16  17
ATOM     17  C   UNL     1       5.600   6.457  17.799  0.00  0.00    +0.000 C 
BRANCH  17  18
ATOM     18  C   UNL     1       6.949   6.320  17.108  0.00  0.00    +0.000 C 
BRANCH  18  19
ATOM     19  C   UNL     1       7.442   4.884  17.207  0.00  0.00    +0.000 C 
BRANCH  19  20
ATOM     20  C   UNL     1       6.783   4.018  16.143  0.00  0.00    +0.000 C 
BRANCH  20  21
ATOM     21  C   UNL     1       6.835   4.709  14.787  0.00  0.00    +0.000 C 
BRANCH  21  22
ATOM     22  C   UNL     1       5.683   4.243  13.904  0.00  0.00    +0.000 C 
BRANCH  22  24
ATOM     23  C   UNL     1       7.158   4.167  11.880  0.00  0.00    +0.000 C 
ATOM     24  C   UNL     1       6.191   3.385  12.751  0.00  0.00    +0.000 C 
ENDBRANCH  22  24
ENDBRANCH  21  22
ENDBRANCH  20  21
ENDBRANCH  19  20
ENDBRANCH  18  19
ENDBRANCH  17  18
ENDBRANCH  16  17
ENDBRANCH  15  16
ENDBRANCH  14  15
ENDBRANCH   1  14
TORSDOF 13
ENDMDL
MODEL 7
REMARK VINA RESULT:      -5.6      1.117      2.612
REMARK  Name = 
REMARK  15 active torsions:
REMARK  status: ('A' for Active; 'I' for Inactive)
REMARK    1  A    between atoms: C_1  and  C_2
REMARK    2  A    between atoms: C_2  and  C_3
REMARK    3  A    between atoms: C_3  and  C_4
REMARK    4  A    between atoms: C_4  and  C_5
REMARK    5  A    between atoms: C_5  and  C_6
REMARK    6  A    between atoms: C_6  and  C_7
REMARK    7  A    between atoms: C_7  and  C_8
REMARK    8  A    between atoms: C_8  and  C_9
REMARK    9  A    between atoms: C_9  and  C_10
REMARK   10  A    between atoms: C_10  and  C_11
REMARK   11  A    between atoms: C_11  and  C_12
REMARK   12  A    between atoms: C_12  and  C_13
REMARK   13  A    between atoms: C_14  and  O_15
REMARK   14  A    between atoms: C_19  and  O_20
REMARK   15  A    between atoms: O_20  and  C_21
REMARK                            x       y       z     vdW  Elec       q    Type
REMARK                         _______ _______ _______ _____ _____    ______ ____
ROOT
ATOM      1  C   UNL     1       4.397   5.251  17.153  0.00  0.00    +0.000 C 
ENDROOT
BRANCH   1   2
ATOM      2  C   UNL     1       5.745   5.707  17.646  0.00  0.00    +0.000 C 
ATOM      3  C   UNL     1       6.435   5.102  18.629  0.00  0.00    +0.000 C 
ATOM      4  C   UNL     1       7.741   5.663  19.079  0.00  0.00    +0.000 C 
ATOM      5  O   UNL     1       8.484   5.075  19.856  0.00  0.00    +0.000 OA
ATOM      6  C   UNL     1       8.098   7.003  18.596  0.00  0.00    +0.000 C 
ATOM      7  C   UNL     1       7.443   7.620  17.607  0.00  0.00    +0.000 C 
ATOM      8  C   UNL     1       6.299   6.908  16.949  0.00  0.00    +0.000 C 
ATOM      9  O   UNL     1       5.807   7.282  15.891  0.00  0.00    +0.000 OA
BRANCH   3  10
ATOM     10  O   UNL     1       6.005   3.954  19.275  0.00  0.00    +0.000 OA
ATOM     11  H   UNL     1       5.162   4.105  19.728  0.00  0.00    +0.000 HD
ENDBRANCH   3  10
BRANCH   7  12
ATOM     12  O   UNL     1       7.886   8.886  17.253  0.00  0.00    +0.000 OA
ATOM     13  C   UNL     1       8.558   9.663  18.236  0.00  0.00    +0.000 C 
ENDBRANCH   7  12
ENDBRANCH   1   2
BRANCH   1  14
ATOM     14  C   UNL     1       3.303   6.201  17.629  0.00  0.00    +0.000 C 
BRANCH  14  15
ATOM     15  C   UNL     1       2.858   5.856  19.044  0.00  0.00    +0.000 C 
BRANCH  15  16
ATOM     16  C   UNL     1       1.531   5.110  18.998  0.00  0.00    +0.000 C 
BRANCH  16  17
ATOM     17  C   UNL     1       1.084   4.738  20.402  0.00  0.00    +0.000 C 
BRANCH  17  18
ATOM     18  C   UNL     1       0.637   3.285  20.451  0.00  0.00    +0.000 C 
BRANCH  18  19
ATOM     19  C   UNL     1       1.339   2.561  21.591  0.00  0.00    +0.000 C 
BRANCH  19  20
ATOM     20  C   UNL     1       2.813   2.938  21.637  0.00  0.00    +0.000 C 
BRANCH  20  21
ATOM     21  C   UNL     1       3.653   1.886  20.926  0.00  0.00    +0.000 C 
BRANCH  21  22
ATOM     22  C   UNL     1       4.045   2.367  19.533  0.00  0.00    +0.000 C 
BRANCH  22  24
ATOM     23  C   UNL     1       2.470   2.085  17.604  0.00  0.00    +0.000 C 
ATOM     24  C   UNL     1       3.529   1.415  18.461  0.00  0.00    +0.000 C 
ENDBRANCH  22  24
ENDBRANCH  21  22
ENDBRANCH  20  21
ENDBRANCH  19  20
ENDBRANCH  18  19
ENDBRANCH  17  18
ENDBRANCH  16  17
ENDBRANCH  15  16
ENDBRANCH  14  15
ENDBRANCH   1  14
TORSDOF 13
ENDMDL
MODEL 8
REMARK VINA RESULT:      -5.6      3.941      5.848
REMARK  Name = 
REMARK  15 active torsions:
REMARK  status: ('A' for Active; 'I' for Inactive)
REMARK    1  A    between atoms: C_1  and  C_2
REMARK    2  A    between atoms: C_2  and  C_3
REMARK    3  A    between atoms: C_3  and  C_4
REMARK    4  A    between atoms: C_4  and  C_5
REMARK    5  A    between atoms: C_5  and  C_6
REMARK    6  A    between atoms: C_6  and  C_7
REMARK    7  A    between atoms: C_7  and  C_8
REMARK    8  A    between atoms: C_8  and  C_9
REMARK    9  A    between atoms: C_9  and  C_10
REMARK   10  A    between atoms: C_10  and  C_11
REMARK   11  A    between atoms: C_11  and  C_12
REMARK   12  A    between atoms: C_12  and  C_13
REMARK   13  A    between atoms: C_14  and  O_15
REMARK   14  A    between atoms: C_19  and  O_20
REMARK   15  A    between atoms: O_20  and  C_21
REMARK                            x       y       z     vdW  Elec       q    Type
REMARK                         _______ _______ _______ _____ _____    ______ ____
ROOT
ATOM      1  C   UNL     1       3.642   7.835  17.610  0.00  0.00    +0.000 C 
ENDROOT
BRANCH   1   2
ATOM      2  C   UNL     1       4.528   6.618  17.569  0.00  0.00    +0.000 C 
ATOM      3  C   UNL     1       4.648   5.734  18.576  0.00  0.00    +0.000 C 
ATOM      4  C   UNL     1       5.594   4.587  18.454  0.00  0.00    +0.000 C 
ATOM      5  O   UNL     1       5.633   3.671  19.267  0.00  0.00    +0.000 OA
ATOM      6  C   UNL     1       6.541   4.614  17.333  0.00  0.00    +0.000 C 
ATOM      7  C   UNL     1       6.434   5.468  16.308  0.00  0.00    +0.000 C 
ATOM      8  C   UNL     1       5.287   6.433  16.294  0.00  0.00    +0.000 C 
ATOM      9  O   UNL     1       4.970   7.071  15.297  0.00  0.00    +0.000 OA
BRANCH   3  10
ATOM     10  O   UNL     1       3.932   5.816  19.759  0.00  0.00    +0.000 OA
ATOM     11  H   UNL     1       3.556   6.700  19.877  0.00  0.00    +0.000 HD
ENDBRANCH   3  10
BRANCH   7  12
ATOM     12  O   UNL     1       7.401   5.385  15.317  0.00  0.00    +0.000 OA
ATOM     13  C   UNL     1       7.066   4.725  14.103  0.00  0.00    +0.000 C 
ENDBRANCH   7  12
ENDBRANCH   1   2
BRANCH   1  14
ATOM     14  C   UNL     1       2.176   7.427  17.695  0.00  0.00    +0.000 C 
BRANCH  14  15
ATOM     15  C   UNL     1       1.297   8.616  18.054  0.00  0.00    +0.000 C 
BRANCH  15  16
ATOM     16  C   UNL     1       2.129   9.892  18.048  0.00  0.00    +0.000 C 
BRANCH  16  17
ATOM     17  C   UNL     1       1.309  11.063  18.562  0.00  0.00    +0.000 C 
BRANCH  17  18
ATOM     18  C   UNL     1       0.207  10.574  19.490  0.00  0.00    +0.000 C 
BRANCH  18  19
ATOM     19  C   UNL     1      -0.861  11.647  19.644  0.00  0.00    +0.000 C 
BRANCH  19  20
ATOM     20  C   UNL     1      -1.803  11.639  18.449  0.00  0.00    +0.000 C 
BRANCH  20  21
ATOM     21  C   UNL     1      -2.290  10.224  18.164  0.00  0.00    +0.000 C 
BRANCH  21  22
ATOM     22  C   UNL     1      -2.024   9.849  16.711  0.00  0.00    +0.000 C 
BRANCH  22  24
ATOM     23  C   UNL     1      -3.480  10.116  14.689  0.00  0.00    +0.000 C 
ATOM     24  C   UNL     1      -2.686  10.840  15.762  0.00  0.00    +0.000 C 
ENDBRANCH  22  24
ENDBRANCH  21  22
ENDBRANCH  20  21
ENDBRANCH  19  20
ENDBRANCH  18  19
ENDBRANCH  17  18
ENDBRANCH  16  17
ENDBRANCH  15  16
ENDBRANCH  14  15
ENDBRANCH   1  14
TORSDOF 13
ENDMDL
MODEL 9
REMARK VINA RESULT:      -5.5      3.381      6.943
REMARK  Name = 
REMARK  15 active torsions:
REMARK  status: ('A' for Active; 'I' for Inactive)
REMARK    1  A    between atoms: C_1  and  C_2
REMARK    2  A    between atoms: C_2  and  C_3
REMARK    3  A    between atoms: C_3  and  C_4
REMARK    4  A    between atoms: C_4  and  C_5
REMARK    5  A    between atoms: C_5  and  C_6
REMARK    6  A    between atoms: C_6  and  C_7
REMARK    7  A    between atoms: C_7  and  C_8
REMARK    8  A    between atoms: C_8  and  C_9
REMARK    9  A    between atoms: C_9  and  C_10
REMARK   10  A    between atoms: C_10  and  C_11
REMARK   11  A    between atoms: C_11  and  C_12
REMARK   12  A    between atoms: C_12  and  C_13
REMARK   13  A    between atoms: C_14  and  O_15
REMARK   14  A    between atoms: C_19  and  O_20
REMARK   15  A    between atoms: O_20  and  C_21
REMARK                            x       y       z     vdW  Elec       q    Type
REMARK                         _______ _______ _______ _____ _____    ______ ____
ROOT
ATOM      1  C   UNL     1       3.768   5.944  19.096  0.00  0.00    +0.000 C 
ENDROOT
BRANCH   1   2
ATOM      2  C   UNL     1       3.559   4.472  18.854  0.00  0.00    +0.000 C 
ATOM      3  C   UNL     1       2.469   3.950  18.264  0.00  0.00    +0.000 C 
ATOM      4  C   UNL     1       2.335   2.472  18.117  0.00  0.00    +0.000 C 
ATOM      5  O   UNL     1       1.446   1.948  17.455  0.00  0.00    +0.000 OA
ATOM      6  C   UNL     1       3.292   1.635  18.851  0.00  0.00    +0.000 C 
ATOM      7  C   UNL     1       4.395   2.124  19.429  0.00  0.00    +0.000 C 
ATOM      8  C   UNL     1       4.677   3.592  19.313  0.00  0.00    +0.000 C 
ATOM      9  O   UNL     1       5.765   4.082  19.590  0.00  0.00    +0.000 OA
BRANCH   3  10
ATOM     10  O   UNL     1       1.425   4.712  17.766  0.00  0.00    +0.000 OA
ATOM     11  H   UNL     1       1.507   4.832  16.809  0.00  0.00    +0.000 HD
ENDBRANCH   3  10
BRANCH   7  12
ATOM     12  O   UNL     1       5.210   1.220  20.094  0.00  0.00    +0.000 OA
ATOM     13  C   UNL     1       5.144   1.171  21.513  0.00  0.00    +0.000 C 
ENDBRANCH   7  12
ENDBRANCH   1   2
BRANCH   1  14
ATOM     14  C   UNL     1       3.975   6.679  17.777  0.00  0.00    +0.000 C 
BRANCH  14  15
ATOM     15  C   UNL     1       5.272   6.247  17.108  0.00  0.00    +0.000 C 
BRANCH  15  16
ATOM     16  C   UNL     1       4.960   5.437  15.856  0.00  0.00    +0.000 C 
BRANCH  16  17
ATOM     17  C   UNL     1       5.774   4.154  15.837  0.00  0.00    +0.000 C 
BRANCH  17  18
ATOM     18  C   UNL     1       6.890   4.247  14.808  0.00  0.00    +0.000 C 
BRANCH  18  19
ATOM     19  C   UNL     1       6.311   4.559  13.436  0.00  0.00    +0.000 C 
BRANCH  19  20
ATOM     20  C   UNL     1       6.669   3.463  12.443  0.00  0.00    +0.000 C 
BRANCH  20  21
ATOM     21  C   UNL     1       5.408   2.819  11.883  0.00  0.00    +0.000 C 
BRANCH  21  22
ATOM     22  C   UNL     1       4.392   3.885  11.489  0.00  0.00    +0.000 C 
BRANCH  22  24
ATOM     23  C   UNL     1       2.789   4.377   9.627  0.00  0.00    +0.000 C 
ATOM     24  C   UNL     1       3.329   3.309  10.561  0.00  0.00    +0.000 C 
ENDBRANCH  22  24
ENDBRANCH  21  22
ENDBRANCH  20  21
ENDBRANCH  19  20
ENDBRANCH  18  19
ENDBRANCH  17  18
ENDBRANCH  16  17
ENDBRANCH  15  16
ENDBRANCH  14  15
ENDBRANCH   1  14
TORSDOF 13
ENDMDL
