MODEL 1
REMARK VINA RESULT:      -8.2      0.000      0.000
REMARK  Name = 
REMARK  5 active torsions:
REMARK  status: ('A' for Active; 'I' for Inactive)
REMARK    1  A    between atoms: C_1  and  C_2
REMARK    2  A    between atoms: C_5  and  C_6
REMARK    3  A    between atoms: N_7  and  O_8
REMARK    4  A    between atoms: C_16  and  O_17
REMARK    5  A    between atoms: O_17  and  C_18
REMARK                            x       y       z     vdW  Elec       q    Type
REMARK                         _______ _______ _______ _____ _____    ______ ____
ROOT
ATOM      1  C   UNL     1       7.766   8.265  17.487  0.00  0.00    +0.000 C 
ATOM      2  C   UNL     1       6.944   7.036  17.720  0.00  0.00    +0.000 A 
ATOM      3  C   UNL     1       7.536   5.822  18.024  0.00  0.00    +0.000 A 
ATOM      4  C   UNL     1       6.723   4.698  18.139  0.00  0.00    +0.000 A 
ATOM      5  C   UNL     1       5.337   4.798  17.954  0.00  0.00    +0.000 A 
ATOM      6  C   UNL     1       4.817   6.068  17.713  0.00  0.00    +0.000 A 
ATOM      7  N   UNL     1       5.607   7.170  17.570  0.00  0.00    +0.000 NA
ENDROOT
BRANCH   5   8
ATOM      8  C   UNL     1       4.552   3.510  17.951  0.00  0.00    +0.000 C 
ATOM      9  N   UNL     1       4.901   2.671  17.011  0.00  0.00    +0.000 NA
ATOM     10  N   UNL     1       3.562   3.309  18.918  0.00  0.00    +0.000 N 
ATOM     11  C   UNL     1       2.253   2.807  18.474  0.00  0.00    +0.000 C 
ATOM     12  C   UNL     1       1.160   3.782  18.901  0.00  0.00    +0.000 C 
ATOM     13  C   UNL     1       0.775   3.709  20.375  0.00  0.00    +0.000 C 
ATOM     14  C   UNL     1       1.931   3.831  21.366  0.00  0.00    +0.000 C 
ATOM     15  C   UNL     1       2.917   2.669  21.280  0.00  0.00    +0.000 C 
ATOM     16  C   UNL     1       4.022   2.868  20.242  0.00  0.00    +0.000 C 
BRANCH   9  17
ATOM     17  O   UNL     1       4.234   1.445  17.073  0.00  0.00    +0.000 OA
ATOM     18  H   UNL     1       3.860   1.466  17.972  0.00  0.00    +0.000 HD
ENDBRANCH   9  17
ENDBRANCH   5   8
BRANCH   6  19
ATOM     19  O   UNL     1       3.458   6.247  17.522  0.00  0.00    +0.000 OA
BRANCH  19  20
ATOM     20  C   UNL     1       2.785   7.146  18.327  0.00  0.00    +0.000 A 
ATOM     21  C   UNL     1       2.476   6.896  19.674  0.00  0.00    +0.000 A 
ATOM     22  C   UNL     1       1.722   7.816  20.408  0.00  0.00    +0.000 A 
ATOM     23  C   UNL     1       1.254   8.969  19.788  0.00  0.00    +0.000 A 
ATOM     24  F   UNL     1       0.506   9.834  20.487  0.00  0.00    +0.000 F 
ATOM     25  C   UNL     1       1.548   9.216  18.452  0.00  0.00    +0.000 A 
ATOM     26  F   UNL     1       1.090  10.323  17.853  0.00  0.00    +0.000 F 
ATOM     27  C   UNL     1       2.311   8.307  17.711  0.00  0.00    +0.000 A 
ENDBRANCH  19  20
ENDBRANCH   6  19
TORSDOF 4
ENDMDL
MODEL 2
REMARK VINA RESULT:      -8.2      0.586      1.325
REMARK  Name = 
REMARK  5 active torsions:
REMARK  status: ('A' for Active; 'I' for Inactive)
REMARK    1  A    between atoms: C_1  and  C_2
REMARK    2  A    between atoms: C_5  and  C_6
REMARK    3  A    between atoms: N_7  and  O_8
REMARK    4  A    between atoms: C_16  and  O_17
REMARK    5  A    between atoms: O_17  and  C_18
REMARK                            x       y       z     vdW  Elec       q    Type
REMARK                         _______ _______ _______ _____ _____    ______ ____
ROOT
ATOM      1  C   UNL     1       7.933   8.220  17.659  0.00  0.00    +0.000 C 
ATOM      2  C   UNL     1       7.067   7.015  17.857  0.00  0.00    +0.000 A 
ATOM      3  C   UNL     1       7.598   5.812  18.292  0.00  0.00    +0.000 A 
ATOM      4  C   UNL     1       6.758   4.705  18.367  0.00  0.00    +0.000 A 
ATOM      5  C   UNL     1       5.406   4.810  18.015  0.00  0.00    +0.000 A 
ATOM      6  C   UNL     1       4.939   6.071  17.650  0.00  0.00    +0.000 A 
ATOM      7  N   UNL     1       5.760   7.156  17.544  0.00  0.00    +0.000 NA
ENDROOT
BRANCH   5   8
ATOM      8  C   UNL     1       4.604   3.534  17.987  0.00  0.00    +0.000 C 
ATOM      9  N   UNL     1       4.960   2.697  17.046  0.00  0.00    +0.000 NA
ATOM     10  N   UNL     1       3.593   3.337  18.933  0.00  0.00    +0.000 N 
ATOM     11  C   UNL     1       2.287   2.857  18.460  0.00  0.00    +0.000 C 
ATOM     12  C   UNL     1       1.198   3.842  18.874  0.00  0.00    +0.000 C 
ATOM     13  C   UNL     1       0.785   3.762  20.340  0.00  0.00    +0.000 C 
ATOM     14  C   UNL     1       1.922   3.861  21.354  0.00  0.00    +0.000 C 
ATOM     15  C   UNL     1       2.895   2.686  21.277  0.00  0.00    +0.000 C 
ATOM     16  C   UNL     1       4.022   2.879  20.262  0.00  0.00    +0.000 C 
BRANCH   9  17
ATOM     17  O   UNL     1       4.276   1.480  17.085  0.00  0.00    +0.000 OA
ATOM     18  H   UNL     1       4.236   1.242  16.141  0.00  0.00    +0.000 HD
ENDBRANCH   9  17
ENDBRANCH   5   8
BRANCH   6  19
ATOM     19  O   UNL     1       3.615   6.255  17.290  0.00  0.00    +0.000 OA
BRANCH  19  20
ATOM     20  C   UNL     1       2.851   7.158  18.004  0.00  0.00    +0.000 A 
ATOM     21  C   UNL     1       2.460   8.408  17.498  0.00  0.00    +0.000 A 
ATOM     22  C   UNL     1       1.755   9.307  18.304  0.00  0.00    +0.000 A 
ATOM     23  C   UNL     1       1.466   8.966  19.621  0.00  0.00    +0.000 A 
ATOM     24  F   UNL     1       0.816   9.842  20.399  0.00  0.00    +0.000 F 
ATOM     25  C   UNL     1       1.859   7.734  20.129  0.00  0.00    +0.000 A 
ATOM     26  F   UNL     1       1.589   7.410  21.400  0.00  0.00    +0.000 F 
ATOM     27  C   UNL     1       2.557   6.823  19.328  0.00  0.00    +0.000 A 
ENDBRANCH  19  20
ENDBRANCH   6  19
TORSDOF 4
ENDMDL
MODEL 3
REMARK VINA RESULT:      -7.0      1.911      4.599
REMARK  Name = 
REMARK  5 active torsions:
REMARK  status: ('A' for Active; 'I' for Inactive)
REMARK    1  A    between atoms: C_1  and  C_2
REMARK    2  A    between atoms: C_5  and  C_6
REMARK    3  A    between atoms: N_7  and  O_8
REMARK    4  A    between atoms: C_16  and  O_17
REMARK    5  A    between atoms: O_17  and  C_18
REMARK                            x       y       z     vdW  Elec       q    Type
REMARK                         _______ _______ _______ _____ _____    ______ ____
ROOT
ATOM      1  C   UNL     1       1.010   2.500  21.223  0.00  0.00    +0.000 C 
ATOM      2  C   UNL     1       2.218   3.026  20.511  0.00  0.00    +0.000 A 
ATOM      3  C   UNL     1       3.470   2.472  20.716  0.00  0.00    +0.000 A 
ATOM      4  C   UNL     1       4.566   3.065  20.096  0.00  0.00    +0.000 A 
ATOM      5  C   UNL     1       4.402   4.193  19.282  0.00  0.00    +0.000 A 
ATOM      6  C   UNL     1       3.100   4.648  19.078  0.00  0.00    +0.000 A 
ATOM      7  N   UNL     1       2.023   4.093  19.704  0.00  0.00    +0.000 NA
ENDROOT
BRANCH   5   8
ATOM      8  C   UNL     1       5.655   4.857  18.769  0.00  0.00    +0.000 C 
ATOM      9  N   UNL     1       6.478   5.247  19.708  0.00  0.00    +0.000 NA
ATOM     10  N   UNL     1       5.846   4.990  17.390  0.00  0.00    +0.000 N 
ATOM     11  C   UNL     1       6.279   6.296  16.873  0.00  0.00    +0.000 C 
ATOM     12  C   UNL     1       5.275   6.796  15.841  0.00  0.00    +0.000 C 
ATOM     13  C   UNL     1       5.378   6.134  14.471  0.00  0.00    +0.000 C 
ATOM     14  C   UNL     1       5.335   4.607  14.471  0.00  0.00    +0.000 C 
ATOM     15  C   UNL     1       6.533   3.976  15.175  0.00  0.00    +0.000 C 
ATOM     16  C   UNL     1       6.348   3.802  16.683  0.00  0.00    +0.000 C 
BRANCH   9  17
ATOM     17  O   UNL     1       7.677   5.776  19.223  0.00  0.00    +0.000 OA
ATOM     18  H   UNL     1       7.361   6.506  18.661  0.00  0.00    +0.000 HD
ENDBRANCH   9  17
ENDBRANCH   5   8
BRANCH   6  19
ATOM     19  O   UNL     1       2.857   5.755  18.285  0.00  0.00    +0.000 OA
BRANCH  19  20
ATOM     20  C   UNL     1       2.373   6.905  18.877  0.00  0.00    +0.000 A 
ATOM     21  C   UNL     1       2.019   6.985  20.234  0.00  0.00    +0.000 A 
ATOM     22  C   UNL     1       1.459   8.157  20.750  0.00  0.00    +0.000 A 
ATOM     23  C   UNL     1       1.229   9.237  19.904  0.00  0.00    +0.000 A 
ATOM     24  F   UNL     1       0.665  10.349  20.396  0.00  0.00    +0.000 F 
ATOM     25  C   UNL     1       1.569   9.160  18.559  0.00  0.00    +0.000 A 
ATOM     26  F   UNL     1       1.338  10.197  17.743  0.00  0.00    +0.000 F 
ATOM     27  C   UNL     1       2.139   7.995  18.034  0.00  0.00    +0.000 A 
ENDBRANCH  19  20
ENDBRANCH   6  19
TORSDOF 4
ENDMDL
MODEL 4
REMARK VINA RESULT:      -7.0      2.970      5.769
REMARK  Name = 
REMARK  5 active torsions:
REMARK  status: ('A' for Active; 'I' for Inactive)
REMARK    1  A    between atoms: C_1  and  C_2
REMARK    2  A    between atoms: C_5  and  C_6
REMARK    3  A    between atoms: N_7  and  O_8
REMARK    4  A    between atoms: C_16  and  O_17
REMARK    5  A    between atoms: O_17  and  C_18
REMARK                            x       y       z     vdW  Elec       q    Type
REMARK                         _______ _______ _______ _____ _____    ______ ____
ROOT
ATOM      1  C   UNL     1       0.202  10.073  19.697  0.00  0.00    +0.000 C 
ATOM      2  C   UNL     1       1.235   9.105  19.209  0.00  0.00    +0.000 A 
ATOM      3  C   UNL     1       1.766   9.202  17.934  0.00  0.00    +0.000 A 
ATOM      4  C   UNL     1       2.653   8.217  17.509  0.00  0.00    +0.000 A 
ATOM      5  C   UNL     1       3.002   7.157  18.356  0.00  0.00    +0.000 A 
ATOM      6  C   UNL     1       2.471   7.170  19.644  0.00  0.00    +0.000 A 
ATOM      7  N   UNL     1       1.579   8.113  20.061  0.00  0.00    +0.000 NA
ENDROOT
BRANCH   5   8
ATOM      8  C   UNL     1       3.852   6.059  17.766  0.00  0.00    +0.000 C 
ATOM      9  N   UNL     1       3.168   5.087  17.219  0.00  0.00    +0.000 NA
ATOM     10  N   UNL     1       5.245   6.161  17.830  0.00  0.00    +0.000 N 
ATOM     11  C   UNL     1       6.005   4.984  18.275  0.00  0.00    +0.000 C 
ATOM     12  C   UNL     1       6.854   5.352  19.488  0.00  0.00    +0.000 C 
ATOM     13  C   UNL     1       8.117   6.145  19.170  0.00  0.00    +0.000 C 
ATOM     14  C   UNL     1       7.913   7.407  18.335  0.00  0.00    +0.000 C 
ATOM     15  C   UNL     1       7.407   7.116  16.925  0.00  0.00    +0.000 C 
ATOM     16  C   UNL     1       5.884   7.015  16.819  0.00  0.00    +0.000 C 
BRANCH   9  17
ATOM     17  O   UNL     1       3.962   4.122  16.593  0.00  0.00    +0.000 OA
ATOM     18  H   UNL     1       4.397   4.643  15.895  0.00  0.00    +0.000 HD
ENDBRANCH   9  17
ENDBRANCH   5   8
BRANCH   6  19
ATOM     19  O   UNL     1       2.771   6.158  20.539  0.00  0.00    +0.000 OA
BRANCH  19  20
ATOM     20  C   UNL     1       2.390   4.865  20.234  0.00  0.00    +0.000 A 
ATOM     21  C   UNL     1       1.052   4.474  20.065  0.00  0.00    +0.000 A 
ATOM     22  C   UNL     1       0.732   3.132  19.837  0.00  0.00    +0.000 A 
ATOM     23  C   UNL     1       1.746   2.181  19.808  0.00  0.00    +0.000 A 
ATOM     24  F   UNL     1       1.432   0.892  19.619  0.00  0.00    +0.000 F 
ATOM     25  C   UNL     1       3.070   2.562  19.984  0.00  0.00    +0.000 A 
ATOM     26  F   UNL     1       4.046   1.644  19.964  0.00  0.00    +0.000 F 
ATOM     27  C   UNL     1       3.403   3.903  20.203  0.00  0.00    +0.000 A 
ENDBRANCH  19  20
ENDBRANCH   6  19
TORSDOF 4
ENDMDL
MODEL 5
REMARK VINA RESULT:      -6.8      1.980      4.769
REMARK  Name = 
REMARK  5 active torsions:
REMARK  status: ('A' for Active; 'I' for Inactive)
REMARK    1  A    between atoms: C_1  and  C_2
REMARK    2  A    between atoms: C_5  and  C_6
REMARK    3  A    between atoms: N_7  and  O_8
REMARK    4  A    between atoms: C_16  and  O_17
REMARK    5  A    between atoms: O_17  and  C_18
REMARK                            x       y       z     vdW  Elec       q    Type
REMARK                         _______ _______ _______ _____ _____    ______ ____
ROOT
ATOM      1  C   UNL     1       0.860   2.809  21.148  0.00  0.00    +0.000 C 
ATOM      2  C   UNL     1       2.119   3.230  20.456  0.00  0.00    +0.000 A 
ATOM      3  C   UNL     1       3.325   2.599  20.712  0.00  0.00    +0.000 A 
ATOM      4  C   UNL     1       4.475   3.097  20.107  0.00  0.00    +0.000 A 
ATOM      5  C   UNL     1       4.410   4.209  19.256  0.00  0.00    +0.000 A 
ATOM      6  C   UNL     1       3.148   4.744  19.003  0.00  0.00    +0.000 A 
ATOM      7  N   UNL     1       2.019   4.283  19.613  0.00  0.00    +0.000 NA
ENDROOT
BRANCH   5   8
ATOM      8  C   UNL     1       5.719   4.770  18.760  0.00  0.00    +0.000 C 
ATOM      9  N   UNL     1       6.586   5.024  19.706  0.00  0.00    +0.000 NA
ATOM     10  N   UNL     1       5.909   4.959  17.388  0.00  0.00    +0.000 N 
ATOM     11  C   UNL     1       6.466   6.241  16.935  0.00  0.00    +0.000 C 
ATOM     12  C   UNL     1       5.508   6.896  15.947  0.00  0.00    +0.000 C 
ATOM     13  C   UNL     1       5.530   6.303  14.542  0.00  0.00    +0.000 C 
ATOM     14  C   UNL     1       5.332   4.791  14.461  0.00  0.00    +0.000 C 
ATOM     15  C   UNL     1       6.467   4.004  15.111  0.00  0.00    +0.000 C 
ATOM     16  C   UNL     1       6.280   3.767  16.611  0.00  0.00    +0.000 C 
BRANCH   9  17
ATOM     17  O   UNL     1       7.828   5.455  19.232  0.00  0.00    +0.000 OA
ATOM     18  H   UNL     1       7.574   5.968  18.444  0.00  0.00    +0.000 HD
ENDBRANCH   9  17
ENDBRANCH   5   8
BRANCH   6  19
ATOM     19  O   UNL     1       3.003   5.841  18.172  0.00  0.00    +0.000 OA
BRANCH  19  20
ATOM     20  C   UNL     1       2.357   6.962  18.656  0.00  0.00    +0.000 A 
ATOM     21  C   UNL     1       2.012   8.061  17.853  0.00  0.00    +0.000 A 
ATOM     22  C   UNL     1       1.432   9.198  18.423  0.00  0.00    +0.000 A 
ATOM     23  C   UNL     1       1.224   9.246  19.797  0.00  0.00    +0.000 A 
ATOM     24  F   UNL     1       0.695  10.349  20.344  0.00  0.00    +0.000 F 
ATOM     25  C   UNL     1       1.572   8.164  20.597  0.00  0.00    +0.000 A 
ATOM     26  F   UNL     1       1.379   8.214  21.922  0.00  0.00    +0.000 F 
ATOM     27  C   UNL     1       2.144   7.018  20.036  0.00  0.00    +0.000 A 
ENDBRANCH  19  20
ENDBRANCH   6  19
TORSDOF 4
ENDMDL
MODEL 6
REMARK VINA RESULT:      -6.7      2.755      5.643
REMARK  Name = 
REMARK  5 active torsions:
REMARK  status: ('A' for Active; 'I' for Inactive)
REMARK    1  A    between atoms: C_1  and  C_2
REMARK    2  A    between atoms: C_5  and  C_6
REMARK    3  A    between atoms: N_7  and  O_8
REMARK    4  A    between atoms: C_16  and  O_17
REMARK    5  A    between atoms: O_17  and  C_18
REMARK                            x       y       z     vdW  Elec       q    Type
REMARK                         _______ _______ _______ _____ _____    ______ ____
ROOT
ATOM      1  C   UNL     1       0.193   9.812  19.809  0.00  0.00    +0.000 C 
ATOM      2  C   UNL     1       1.249   8.892  19.280  0.00  0.00    +0.000 A 
ATOM      3  C   UNL     1       1.700   8.991  17.974  0.00  0.00    +0.000 A 
ATOM      4  C   UNL     1       2.615   8.048  17.516  0.00  0.00    +0.000 A 
ATOM      5  C   UNL     1       3.071   7.027  18.359  0.00  0.00    +0.000 A 
ATOM      6  C   UNL     1       2.615   7.038  19.677  0.00  0.00    +0.000 A 
ATOM      7  N   UNL     1       1.697   7.939  20.128  0.00  0.00    +0.000 NA
ENDROOT
BRANCH   5   8
ATOM      8  C   UNL     1       3.946   5.966  17.741  0.00  0.00    +0.000 C 
ATOM      9  N   UNL     1       3.286   5.004  17.149  0.00  0.00    +0.000 NA
ATOM     10  N   UNL     1       5.336   6.087  17.827  0.00  0.00    +0.000 N 
ATOM     11  C   UNL     1       6.110   4.907  18.239  0.00  0.00    +0.000 C 
ATOM     12  C   UNL     1       6.937   5.242  19.475  0.00  0.00    +0.000 C 
ATOM     13  C   UNL     1       8.191   6.066  19.204  0.00  0.00    +0.000 C 
ATOM     14  C   UNL     1       7.977   7.356  18.415  0.00  0.00    +0.000 C 
ATOM     15  C   UNL     1       7.494   7.109  16.987  0.00  0.00    +0.000 C 
ATOM     16  C   UNL     1       5.975   6.988  16.858  0.00  0.00    +0.000 C 
BRANCH   9  17
ATOM     17  O   UNL     1       4.103   4.076  16.499  0.00  0.00    +0.000 OA
ATOM     18  H   UNL     1       3.596   3.252  16.609  0.00  0.00    +0.000 HD
ENDBRANCH   9  17
ENDBRANCH   5   8
BRANCH   6  19
ATOM     19  O   UNL     1       3.022   6.063  20.570  0.00  0.00    +0.000 OA
BRANCH  19  20
ATOM     20  C   UNL     1       2.697   4.746  20.313  0.00  0.00    +0.000 A 
ATOM     21  C   UNL     1       3.647   3.714  20.251  0.00  0.00    +0.000 A 
ATOM     22  C   UNL     1       3.258   2.416  19.906  0.00  0.00    +0.000 A 
ATOM     23  C   UNL     1       1.927   2.158  19.596  0.00  0.00    +0.000 A 
ATOM     24  F   UNL     1       1.564   0.920  19.237  0.00  0.00    +0.000 F 
ATOM     25  C   UNL     1       0.986   3.179  19.646  0.00  0.00    +0.000 A 
ATOM     26  F   UNL     1      -0.295   2.932  19.338  0.00  0.00    +0.000 F 
ATOM     27  C   UNL     1       1.362   4.479  20.000  0.00  0.00    +0.000 A 
ENDBRANCH  19  20
ENDBRANCH   6  19
TORSDOF 4
ENDMDL
MODEL 7
REMARK VINA RESULT:      -6.7      3.920      5.299
REMARK  Name = 
REMARK  5 active torsions:
REMARK  status: ('A' for Active; 'I' for Inactive)
REMARK    1  A    between atoms: C_1  and  C_2
REMARK    2  A    between atoms: C_5  and  C_6
REMARK    3  A    between atoms: N_7  and  O_8
REMARK    4  A    between atoms: C_16  and  O_17
REMARK    5  A    between atoms: O_17  and  C_18
REMARK                            x       y       z     vdW  Elec       q    Type
REMARK                         _______ _______ _______ _____ _____    ______ ____
ROOT
ATOM      1  C   UNL     1       8.139   8.068  17.811  0.00  0.00    +0.000 C 
ATOM      2  C   UNL     1       7.155   6.943  17.894  0.00  0.00    +0.000 A 
ATOM      3  C   UNL     1       6.995   6.211  19.059  0.00  0.00    +0.000 A 
ATOM      4  C   UNL     1       6.132   5.120  19.043  0.00  0.00    +0.000 A 
ATOM      5  C   UNL     1       5.439   4.774  17.875  0.00  0.00    +0.000 A 
ATOM      6  C   UNL     1       5.609   5.601  16.766  0.00  0.00    +0.000 A 
ATOM      7  N   UNL     1       6.475   6.655  16.762  0.00  0.00    +0.000 NA
ENDROOT
BRANCH   5   8
ATOM      8  C   UNL     1       4.640   3.496  17.905  0.00  0.00    +0.000 C 
ATOM      9  N   UNL     1       5.017   2.608  17.022  0.00  0.00    +0.000 NA
ATOM     10  N   UNL     1       3.611   3.352  18.840  0.00  0.00    +0.000 N 
ATOM     11  C   UNL     1       2.315   2.841  18.371  0.00  0.00    +0.000 C 
ATOM     12  C   UNL     1       1.217   3.845  18.705  0.00  0.00    +0.000 C 
ATOM     13  C   UNL     1       0.774   3.850  20.164  0.00  0.00    +0.000 C 
ATOM     14  C   UNL     1       1.891   4.010  21.193  0.00  0.00    +0.000 C 
ATOM     15  C   UNL     1       2.867   2.836  21.204  0.00  0.00    +0.000 C 
ATOM     16  C   UNL     1       4.015   2.972  20.202  0.00  0.00    +0.000 C 
BRANCH   9  17
ATOM     17  O   UNL     1       4.334   1.393  17.118  0.00  0.00    +0.000 OA
ATOM     18  H   UNL     1       5.048   0.749  16.957  0.00  0.00    +0.000 HD
ENDBRANCH   9  17
ENDBRANCH   5   8
BRANCH   6  19
ATOM     19  O   UNL     1       4.957   5.326  15.577  0.00  0.00    +0.000 OA
BRANCH  19  20
ATOM     20  C   UNL     1       5.683   4.798  14.526  0.00  0.00    +0.000 A 
ATOM     21  C   UNL     1       7.001   5.179  14.230  0.00  0.00    +0.000 A 
ATOM     22  C   UNL     1       7.649   4.665  13.103  0.00  0.00    +0.000 A 
ATOM     23  C   UNL     1       6.968   3.793  12.260  0.00  0.00    +0.000 A 
ATOM     24  F   UNL     1       7.582   3.325  11.164  0.00  0.00    +0.000 F 
ATOM     25  C   UNL     1       5.660   3.420  12.544  0.00  0.00    +0.000 A 
ATOM     26  F   UNL     1       5.003   2.587  11.726  0.00  0.00    +0.000 F 
ATOM     27  C   UNL     1       5.006   3.921  13.675  0.00  0.00    +0.000 A 
ENDBRANCH  19  20
ENDBRANCH   6  19
TORSDOF 4
ENDMDL
MODEL 8
REMARK VINA RESULT:      -6.6      2.910      5.735
REMARK  Name = 
REMARK  5 active torsions:
REMARK  status: ('A' for Active; 'I' for Inactive)
REMARK    1  A    between atoms: C_1  and  C_2
REMARK    2  A    between atoms: C_5  and  C_6
REMARK    3  A    between atoms: N_7  and  O_8
REMARK    4  A    between atoms: C_16  and  O_17
REMARK    5  A    between atoms: O_17  and  C_18
REMARK                            x       y       z     vdW  Elec       q    Type
REMARK                         _______ _______ _______ _____ _____    ______ ____
ROOT
ATOM      1  C   UNL     1       0.263   9.281  20.257  0.00  0.00    +0.000 C 
ATOM      2  C   UNL     1       1.424   8.833  19.424  0.00  0.00    +0.000 A 
ATOM      3  C   UNL     1       1.842   9.561  18.323  0.00  0.00    +0.000 A 
ATOM      4  C   UNL     1       2.867   9.044  17.537  0.00  0.00    +0.000 A 
ATOM      5  C   UNL     1       3.463   7.817  17.857  0.00  0.00    +0.000 A 
ATOM      6  C   UNL     1       3.027   7.181  19.018  0.00  0.00    +0.000 A 
ATOM      7  N   UNL     1       2.003   7.664  19.779  0.00  0.00    +0.000 NA
ENDROOT
BRANCH   5   8
ATOM      8  C   UNL     1       4.462   7.263  16.873  0.00  0.00    +0.000 C 
ATOM      9  N   UNL     1       4.069   7.308  15.626  0.00  0.00    +0.000 NA
ATOM     10  N   UNL     1       5.687   6.776  17.339  0.00  0.00    +0.000 N 
ATOM     11  C   UNL     1       6.149   5.472  16.841  0.00  0.00    +0.000 C 
ATOM     12  C   UNL     1       6.386   4.530  18.016  0.00  0.00    +0.000 C 
ATOM     13  C   UNL     1       7.677   4.779  18.789  0.00  0.00    +0.000 C 
ATOM     14  C   UNL     1       7.887   6.209  19.280  0.00  0.00    +0.000 C 
ATOM     15  C   UNL     1       8.047   7.215  18.142  0.00  0.00    +0.000 C 
ATOM     16  C   UNL     1       6.724   7.779  17.621  0.00  0.00    +0.000 C 
BRANCH   9  17
ATOM     17  O   UNL     1       5.036   6.879  14.714  0.00  0.00    +0.000 OA
ATOM     18  H   UNL     1       5.818   6.775  15.285  0.00  0.00    +0.000 HD
ENDBRANCH   9  17
ENDBRANCH   5   8
BRANCH   6  19
ATOM     19  O   UNL     1       3.569   5.968  19.401  0.00  0.00    +0.000 OA
BRANCH  19  20
ATOM     20  C   UNL     1       2.838   4.815  19.189  0.00  0.00    +0.000 A 
ATOM     21  C   UNL     1       2.621   4.262  17.917  0.00  0.00    +0.000 A 
ATOM     22  C   UNL     1       1.804   3.137  17.765  0.00  0.00    +0.000 A 
ATOM     23  C   UNL     1       1.183   2.586  18.881  0.00  0.00    +0.000 A 
ATOM     24  F   UNL     1       0.377   1.526  18.727  0.00  0.00    +0.000 F 
ATOM     25  C   UNL     1       1.387   3.135  20.140  0.00  0.00    +0.000 A 
ATOM     26  F   UNL     1       0.782   2.609  21.213  0.00  0.00    +0.000 F 
ATOM     27  C   UNL     1       2.211   4.254  20.305  0.00  0.00    +0.000 A 
ENDBRANCH  19  20
ENDBRANCH   6  19
TORSDOF 4
ENDMDL
MODEL 9
REMARK VINA RESULT:      -6.6      5.623      9.588
REMARK  Name = 
REMARK  5 active torsions:
REMARK  status: ('A' for Active; 'I' for Inactive)
REMARK    1  A    between atoms: C_1  and  C_2
REMARK    2  A    between atoms: C_5  and  C_6
REMARK    3  A    between atoms: N_7  and  O_8
REMARK    4  A    between atoms: C_16  and  O_17
REMARK    5  A    between atoms: O_17  and  C_18
REMARK                            x       y       z     vdW  Elec       q    Type
REMARK                         _______ _______ _______ _____ _____    ______ ____
ROOT
ATOM      1  C   UNL     1      -3.054   9.692  15.888  0.00  0.00    +0.000 C 
ATOM      2  C   UNL     1      -2.541  10.385  17.112  0.00  0.00    +0.000 A 
ATOM      3  C   UNL     1      -3.373  11.163  17.900  0.00  0.00    +0.000 A 
ATOM      4  C   UNL     1      -2.815  11.854  18.971  0.00  0.00    +0.000 A 
ATOM      5  C   UNL     1      -1.444  11.760  19.246  0.00  0.00    +0.000 A 
ATOM      6  C   UNL     1      -0.691  10.904  18.443  0.00  0.00    +0.000 A 
ATOM      7  N   UNL     1      -1.222  10.245  17.373  0.00  0.00    +0.000 NA
ENDROOT
BRANCH   5   8
ATOM      8  C   UNL     1      -0.899  12.653  20.331  0.00  0.00    +0.000 C 
ATOM      9  N   UNL     1      -0.690  12.045  21.471  0.00  0.00    +0.000 NA
ATOM     10  N   UNL     1      -0.654  14.001  20.053  0.00  0.00    +0.000 N 
ATOM     11  C   UNL     1      -1.137  15.005  21.011  0.00  0.00    +0.000 C 
ATOM     12  C   UNL     1      -2.060  15.989  20.300  0.00  0.00    +0.000 C 
ATOM     13  C   UNL     1      -1.350  17.033  19.446  0.00  0.00    +0.000 C 
ATOM     14  C   UNL     1      -0.362  16.485  18.418  0.00  0.00    +0.000 C 
ATOM     15  C   UNL     1       0.837  15.786  19.055  0.00  0.00    +0.000 C 
ATOM     16  C   UNL     1       0.605  14.305  19.357  0.00  0.00    +0.000 C 
BRANCH   9  17
ATOM     17  O   UNL     1      -0.098  12.856  22.442  0.00  0.00    +0.000 OA
ATOM     18  H   UNL     1       0.752  12.404  22.589  0.00  0.00    +0.000 HD
ENDBRANCH   9  17
ENDBRANCH   5   8
BRANCH   6  19
ATOM     19  O   UNL     1       0.668  10.756  18.654  0.00  0.00    +0.000 OA
BRANCH  19  20
ATOM     20  C   UNL     1       1.154   9.516  19.022  0.00  0.00    +0.000 A 
ATOM     21  C   UNL     1       1.008   8.982  20.312  0.00  0.00    +0.000 A 
ATOM     22  C   UNL     1       1.594   7.755  20.639  0.00  0.00    +0.000 A 
ATOM     23  C   UNL     1       2.348   7.080  19.685  0.00  0.00    +0.000 A 
ATOM     24  F   UNL     1       2.933   5.920  20.012  0.00  0.00    +0.000 F 
ATOM     25  C   UNL     1       2.504   7.610  18.410  0.00  0.00    +0.000 A 
ATOM     26  F   UNL     1       3.237   6.963  17.495  0.00  0.00    +0.000 F 
ATOM     27  C   UNL     1       1.913   8.831  18.069  0.00  0.00    +0.000 A 
ENDBRANCH  19  20
ENDBRANCH   6  19
TORSDOF 4
ENDMDL
