MODEL 1
REMARK VINA RESULT:      -7.2      0.000      0.000
REMARK  Name = 
REMARK  9 active torsions:
REMARK  status: ('A' for Active; 'I' for Inactive)
REMARK    1  A    between atoms: C_1  and  C_2
REMARK    2  A    between atoms: C_2  and  N_3
REMARK    3  A    between atoms: N_3  and  C_4
REMARK    4  A    between atoms: C_4  and  C_5
REMARK    5  A    between atoms: C_6  and  C_8
REMARK    6  A    between atoms: N_10  and  C_11
REMARK    7  A    between atoms: C_14  and  O_15
REMARK    8  A    between atoms: O_15  and  C_16
REMARK    9  A    between atoms: C_16  and  C_17
REMARK                            x       y       z     vdW  Elec       q    Type
REMARK                         _______ _______ _______ _____ _____    ______ ____
ROOT
ATOM      1  C   UNL     1       1.815   7.269  20.315  0.00  0.00    +0.000 A 
ATOM      2  C   UNL     1       1.729   5.928  20.691  0.00  0.00    +0.000 A 
ATOM      3  C   UNL     1       2.059   4.910  19.798  0.00  0.00    +0.000 A 
ATOM      4  C   UNL     1       2.443   5.214  18.494  0.00  0.00    +0.000 A 
ATOM      5  C   UNL     1       2.577   6.552  18.121  0.00  0.00    +0.000 A 
ATOM      6  C   UNL     1       2.251   7.579  19.023  0.00  0.00    +0.000 A 
ENDROOT
BRANCH   1   9
ATOM      7  C   UNL     1       0.154   8.570  21.631  0.00  0.00    +0.000 C 
ATOM      8  O   UNL     1      -0.839   7.871  21.496  0.00  0.00    +0.000 OA
ATOM      9  N   UNL     1       1.442   8.314  21.184  0.00  0.00    +0.000 N 
ATOM     10  H   UNL     1       2.171   8.905  21.571  0.00  0.00    +0.000 HD
BRANCH   7  12
ATOM     11  N   UNL     1      -0.397  11.032  21.656  0.00  0.00    +0.000 N 
ATOM     12  C   UNL     1       0.036   9.907  22.385  0.00  0.00    +0.000 C 
ATOM     13  O   UNL     1       0.375   9.921  23.565  0.00  0.00    +0.000 OA
BRANCH  11  15
ATOM     14  C   UNL     1      -1.952  12.319  23.115  0.00  0.00    +0.000 C 
ATOM     15  C   UNL     1      -0.611  12.273  22.399  0.00  0.00    +0.000 C 
ENDBRANCH  11  15
BRANCH  11  16
ATOM     16  C   UNL     1      -0.646  10.945  20.210  0.00  0.00    +0.000 C 
ATOM     17  C   UNL     1      -1.753  11.801  19.616  0.00  0.00    +0.000 C 
ENDBRANCH  11  16
ENDBRANCH   7  12
ENDBRANCH   1   9
BRANCH   4  18
ATOM     18  O   UNL     1       2.686   4.275  17.527  0.00  0.00    +0.000 OA
BRANCH  18  19
ATOM     19  C   UNL     1       3.849   3.476  17.770  0.00  0.00    +0.000 C 
BRANCH  19  20
ATOM     20  C   UNL     1       5.046   4.059  17.067  0.00  0.00    +0.000 A 
ATOM     21  C   UNL     1       6.160   4.496  17.798  0.00  0.00    +0.000 A 
ATOM     22  C   UNL     1       7.279   4.998  17.136  0.00  0.00    +0.000 A 
ATOM     23  C   UNL     1       7.296   5.071  15.742  0.00  0.00    +0.000 A 
ATOM     24  C   UNL     1       6.192   4.643  15.008  0.00  0.00    +0.000 A 
ATOM     25  C   UNL     1       5.073   4.140  15.667  0.00  0.00    +0.000 A 
ENDBRANCH  19  20
ENDBRANCH  18  19
ENDBRANCH   4  18
TORSDOF 7
ENDMDL
MODEL 2
REMARK VINA RESULT:      -7.2      0.750      1.346
REMARK  Name = 
REMARK  9 active torsions:
REMARK  status: ('A' for Active; 'I' for Inactive)
REMARK    1  A    between atoms: C_1  and  C_2
REMARK    2  A    between atoms: C_2  and  N_3
REMARK    3  A    between atoms: N_3  and  C_4
REMARK    4  A    between atoms: C_4  and  C_5
REMARK    5  A    between atoms: C_6  and  C_8
REMARK    6  A    between atoms: N_10  and  C_11
REMARK    7  A    between atoms: C_14  and  O_15
REMARK    8  A    between atoms: O_15  and  C_16
REMARK    9  A    between atoms: C_16  and  C_17
REMARK                            x       y       z     vdW  Elec       q    Type
REMARK                         _______ _______ _______ _____ _____    ______ ____
ROOT
ATOM      1  C   UNL     1       1.838   7.441  20.358  0.00  0.00    +0.000 A 
ATOM      2  C   UNL     1       1.836   6.084  20.686  0.00  0.00    +0.000 A 
ATOM      3  C   UNL     1       2.230   5.121  19.758  0.00  0.00    +0.000 A 
ATOM      4  C   UNL     1       2.596   5.496  18.468  0.00  0.00    +0.000 A 
ATOM      5  C   UNL     1       2.646   6.852  18.144  0.00  0.00    +0.000 A 
ATOM      6  C   UNL     1       2.255   7.823  19.080  0.00  0.00    +0.000 A 
ENDROOT
BRANCH   1   9
ATOM      7  C   UNL     1       0.089   8.619  21.676  0.00  0.00    +0.000 C 
ATOM      8  O   UNL     1      -0.875   7.895  21.472  0.00  0.00    +0.000 OA
ATOM      9  N   UNL     1       1.399   8.428  21.264  0.00  0.00    +0.000 N 
ATOM     10  H   UNL     1       2.094   9.023  21.705  0.00  0.00    +0.000 HD
BRANCH   7  12
ATOM     11  N   UNL     1      -0.559  11.054  21.802  0.00  0.00    +0.000 N 
ATOM     12  C   UNL     1      -0.102   9.912  22.489  0.00  0.00    +0.000 C 
ATOM     13  O   UNL     1       0.205   9.882  23.677  0.00  0.00    +0.000 OA
BRANCH  11  15
ATOM     14  C   UNL     1      -2.224  12.234  23.231  0.00  0.00    +0.000 C 
ATOM     15  C   UNL     1      -0.841  12.248  22.597  0.00  0.00    +0.000 C 
ENDBRANCH  11  15
BRANCH  11  16
ATOM     16  C   UNL     1      -0.766  11.028  20.348  0.00  0.00    +0.000 C 
ATOM     17  C   UNL     1      -1.775  11.991  19.746  0.00  0.00    +0.000 C 
ENDBRANCH  11  16
ENDBRANCH   7  12
ENDBRANCH   1   9
BRANCH   4  18
ATOM     18  O   UNL     1       2.898   4.610  17.468  0.00  0.00    +0.000 OA
BRANCH  18  19
ATOM     19  C   UNL     1       4.046   3.797  17.738  0.00  0.00    +0.000 C 
BRANCH  19  20
ATOM     20  C   UNL     1       5.287   4.645  17.813  0.00  0.00    +0.000 A 
ATOM     21  C   UNL     1       5.790   5.275  16.667  0.00  0.00    +0.000 A 
ATOM     22  C   UNL     1       6.918   6.091  16.753  0.00  0.00    +0.000 A 
ATOM     23  C   UNL     1       7.553   6.282  17.981  0.00  0.00    +0.000 A 
ATOM     24  C   UNL     1       7.063   5.656  19.125  0.00  0.00    +0.000 A 
ATOM     25  C   UNL     1       5.936   4.841  19.042  0.00  0.00    +0.000 A 
ENDBRANCH  19  20
ENDBRANCH  18  19
ENDBRANCH   4  18
TORSDOF 7
ENDMDL
MODEL 3
REMARK VINA RESULT:      -7.1      5.044      8.066
REMARK  Name = 
REMARK  9 active torsions:
REMARK  status: ('A' for Active; 'I' for Inactive)
REMARK    1  A    between atoms: C_1  and  C_2
REMARK    2  A    between atoms: C_2  and  N_3
REMARK    3  A    between atoms: N_3  and  C_4
REMARK    4  A    between atoms: C_4  and  C_5
REMARK    5  A    between atoms: C_6  and  C_8
REMARK    6  A    between atoms: N_10  and  C_11
REMARK    7  A    between atoms: C_14  and  O_15
REMARK    8  A    between atoms: O_15  and  C_16
REMARK    9  A    between atoms: C_16  and  C_17
REMARK                            x       y       z     vdW  Elec       q    Type
REMARK                         _______ _______ _______ _____ _____    ______ ____
ROOT
ATOM      1  C   UNL     1       6.142   5.783  18.158  0.00  0.00    +0.000 A 
ATOM      2  C   UNL     1       5.838   6.815  17.269  0.00  0.00    +0.000 A 
ATOM      3  C   UNL     1       6.698   7.901  17.110  0.00  0.00    +0.000 A 
ATOM      4  C   UNL     1       7.862   7.995  17.869  0.00  0.00    +0.000 A 
ATOM      5  C   UNL     1       8.198   6.946  18.726  0.00  0.00    +0.000 A 
ATOM      6  C   UNL     1       7.336   5.849  18.883  0.00  0.00    +0.000 A 
ENDROOT
BRANCH   1   9
ATOM      7  C   UNL     1       4.641   3.960  17.379  0.00  0.00    +0.000 C 
ATOM      8  O   UNL     1       4.848   3.996  16.175  0.00  0.00    +0.000 OA
ATOM      9  N   UNL     1       5.266   4.700  18.371  0.00  0.00    +0.000 N 
ATOM     10  H   UNL     1       5.111   4.383  19.324  0.00  0.00    +0.000 HD
BRANCH   7  12
ATOM     11  N   UNL     1       2.295   3.517  18.194  0.00  0.00    +0.000 N 
ATOM     12  C   UNL     1       3.577   2.995  17.930  0.00  0.00    +0.000 C 
ATOM     13  O   UNL     1       3.925   1.839  18.153  0.00  0.00    +0.000 OA
BRANCH  11  15
ATOM     14  C   UNL     1       0.999   2.598  20.113  0.00  0.00    +0.000 C 
ATOM     15  C   UNL     1       1.259   2.575  18.614  0.00  0.00    +0.000 C 
ENDBRANCH  11  15
BRANCH  11  16
ATOM     16  C   UNL     1       2.014   4.949  18.025  0.00  0.00    +0.000 C 
ATOM     17  C   UNL     1       2.209   5.868  19.219  0.00  0.00    +0.000 C 
ENDBRANCH  11  16
ENDBRANCH   7  12
ENDBRANCH   1   9
BRANCH   4  18
ATOM     18  O   UNL     1       8.707   9.072  17.847  0.00  0.00    +0.000 OA
BRANCH  18  19
ATOM     19  C   UNL     1       8.850   9.726  19.113  0.00  0.00    +0.000 C 
BRANCH  19  20
ATOM     20  C   UNL     1       9.894  10.808  19.034  0.00  0.00    +0.000 A 
ATOM     21  C   UNL     1      10.477  11.323  20.200  0.00  0.00    +0.000 A 
ATOM     22  C   UNL     1      11.470  12.298  20.114  0.00  0.00    +0.000 A 
ATOM     23  C   UNL     1      11.888  12.767  18.868  0.00  0.00    +0.000 A 
ATOM     24  C   UNL     1      11.311  12.263  17.704  0.00  0.00    +0.000 A 
ATOM     25  C   UNL     1      10.318  11.289  17.786  0.00  0.00    +0.000 A 
ENDBRANCH  19  20
ENDBRANCH  18  19
ENDBRANCH   4  18
TORSDOF 7
ENDMDL
MODEL 4
REMARK VINA RESULT:      -7.1      0.482      1.119
REMARK  Name = 
REMARK  9 active torsions:
REMARK  status: ('A' for Active; 'I' for Inactive)
REMARK    1  A    between atoms: C_1  and  C_2
REMARK    2  A    between atoms: C_2  and  N_3
REMARK    3  A    between atoms: N_3  and  C_4
REMARK    4  A    between atoms: C_4  and  C_5
REMARK    5  A    between atoms: C_6  and  C_8
REMARK    6  A    between atoms: N_10  and  C_11
REMARK    7  A    between atoms: C_14  and  O_15
REMARK    8  A    between atoms: O_15  and  C_16
REMARK    9  A    between atoms: C_16  and  C_17
REMARK                            x       y       z     vdW  Elec       q    Type
REMARK                         _______ _______ _______ _____ _____    ______ ____
ROOT
ATOM      1  C   UNL     1       1.773   7.325  20.344  0.00  0.00    +0.000 A 
ATOM      2  C   UNL     1       2.281   7.594  19.073  0.00  0.00    +0.000 A 
ATOM      3  C   UNL     1       2.693   6.562  18.231  0.00  0.00    +0.000 A 
ATOM      4  C   UNL     1       2.642   5.239  18.663  0.00  0.00    +0.000 A 
ATOM      5  C   UNL     1       2.093   4.955  19.914  0.00  0.00    +0.000 A 
ATOM      6  C   UNL     1       1.672   5.994  20.760  0.00  0.00    +0.000 A 
ENDROOT
BRANCH   1   9
ATOM      7  C   UNL     1       0.106   8.597  21.681  0.00  0.00    +0.000 C 
ATOM      8  O   UNL     1      -0.884   7.895  21.533  0.00  0.00    +0.000 OA
ATOM      9  N   UNL     1       1.395   8.354  21.230  0.00  0.00    +0.000 N 
ATOM     10  H   UNL     1       2.122   8.942  21.628  0.00  0.00    +0.000 HD
BRANCH   7  12
ATOM     11  N   UNL     1      -0.476  11.051  21.749  0.00  0.00    +0.000 N 
ATOM     12  C   UNL     1      -0.019   9.920  22.456  0.00  0.00    +0.000 C 
ATOM     13  O   UNL     1       0.336   9.922  23.631  0.00  0.00    +0.000 OA
BRANCH  11  15
ATOM     14  C   UNL     1      -2.108  12.396  23.065  0.00  0.00    +0.000 C 
ATOM     15  C   UNL     1      -0.695  12.278  22.514  0.00  0.00    +0.000 C 
ENDBRANCH  11  15
BRANCH  11  16
ATOM     16  C   UNL     1      -0.743  10.982  20.306  0.00  0.00    +0.000 C 
ATOM     17  C   UNL     1      -0.349  12.168  19.442  0.00  0.00    +0.000 C 
ENDBRANCH  11  16
ENDBRANCH   7  12
ENDBRANCH   1   9
BRANCH   4  18
ATOM     18  O   UNL     1       3.119   4.177  17.941  0.00  0.00    +0.000 OA
BRANCH  18  19
ATOM     19  C   UNL     1       4.491   3.861  18.207  0.00  0.00    +0.000 C 
BRANCH  19  20
ATOM     20  C   UNL     1       5.353   4.224  17.027  0.00  0.00    +0.000 A 
ATOM     21  C   UNL     1       6.697   4.580  17.209  0.00  0.00    +0.000 A 
ATOM     22  C   UNL     1       7.499   4.876  16.107  0.00  0.00    +0.000 A 
ATOM     23  C   UNL     1       6.968   4.821  14.818  0.00  0.00    +0.000 A 
ATOM     24  C   UNL     1       5.632   4.472  14.628  0.00  0.00    +0.000 A 
ATOM     25  C   UNL     1       4.829   4.175  15.727  0.00  0.00    +0.000 A 
ENDBRANCH  19  20
ENDBRANCH  18  19
ENDBRANCH   4  18
TORSDOF 7
ENDMDL
MODEL 5
REMARK VINA RESULT:      -6.9      0.383      1.430
REMARK  Name = 
REMARK  9 active torsions:
REMARK  status: ('A' for Active; 'I' for Inactive)
REMARK    1  A    between atoms: C_1  and  C_2
REMARK    2  A    between atoms: C_2  and  N_3
REMARK    3  A    between atoms: N_3  and  C_4
REMARK    4  A    between atoms: C_4  and  C_5
REMARK    5  A    between atoms: C_6  and  C_8
REMARK    6  A    between atoms: N_10  and  C_11
REMARK    7  A    between atoms: C_14  and  O_15
REMARK    8  A    between atoms: O_15  and  C_16
REMARK    9  A    between atoms: C_16  and  C_17
REMARK                            x       y       z     vdW  Elec       q    Type
REMARK                         _______ _______ _______ _____ _____    ______ ____
ROOT
ATOM      1  C   UNL     1       1.770   7.246  20.311  0.00  0.00    +0.000 A 
ATOM      2  C   UNL     1       2.264   7.426  19.019  0.00  0.00    +0.000 A 
ATOM      3  C   UNL     1       2.624   6.335  18.230  0.00  0.00    +0.000 A 
ATOM      4  C   UNL     1       2.533   5.040  18.735  0.00  0.00    +0.000 A 
ATOM      5  C   UNL     1       1.997   4.846  20.009  0.00  0.00    +0.000 A 
ATOM      6  C   UNL     1       1.628   5.945  20.802  0.00  0.00    +0.000 A 
ENDROOT
BRANCH   1   9
ATOM      7  C   UNL     1       0.173   8.654  21.596  0.00  0.00    +0.000 C 
ATOM      8  O   UNL     1      -0.846   7.985  21.499  0.00  0.00    +0.000 OA
ATOM      9  N   UNL     1       1.445   8.336  21.144  0.00  0.00    +0.000 N 
ATOM     10  H   UNL     1       2.199   8.915  21.500  0.00  0.00    +0.000 HD
BRANCH   7  12
ATOM     11  N   UNL     1      -0.113  11.159  21.498  0.00  0.00    +0.000 N 
ATOM     12  C   UNL     1       0.111  10.021  22.299  0.00  0.00    +0.000 C 
ATOM     13  O   UNL     1       0.311  10.043  23.510  0.00  0.00    +0.000 OA
BRANCH  11  15
ATOM     14  C   UNL     1      -1.665  12.626  22.781  0.00  0.00    +0.000 C 
ATOM     15  C   UNL     1      -0.279  12.440  22.182  0.00  0.00    +0.000 C 
ENDBRANCH  11  15
BRANCH  11  16
ATOM     16  C   UNL     1      -0.202  11.046  20.036  0.00  0.00    +0.000 C 
ATOM     17  C   UNL     1      -1.568  11.186  19.383  0.00  0.00    +0.000 C 
ENDBRANCH  11  16
ENDBRANCH   7  12
ENDBRANCH   1   9
BRANCH   4  18
ATOM     18  O   UNL     1       2.959   3.923  18.066  0.00  0.00    +0.000 OA
BRANCH  18  19
ATOM     19  C   UNL     1       4.296   3.524  18.390  0.00  0.00    +0.000 C 
BRANCH  19  20
ATOM     20  C   UNL     1       5.265   4.045  17.364  0.00  0.00    +0.000 A 
ATOM     21  C   UNL     1       4.965   3.969  15.996  0.00  0.00    +0.000 A 
ATOM     22  C   UNL     1       5.852   4.489  15.054  0.00  0.00    +0.000 A 
ATOM     23  C   UNL     1       7.044   5.086  15.467  0.00  0.00    +0.000 A 
ATOM     24  C   UNL     1       7.352   5.162  16.824  0.00  0.00    +0.000 A 
ATOM     25  C   UNL     1       6.468   4.644  17.767  0.00  0.00    +0.000 A 
ENDBRANCH  19  20
ENDBRANCH  18  19
ENDBRANCH   4  18
TORSDOF 7
ENDMDL
MODEL 6
REMARK VINA RESULT:      -6.8      3.123      8.522
REMARK  Name = 
REMARK  9 active torsions:
REMARK  status: ('A' for Active; 'I' for Inactive)
REMARK    1  A    between atoms: C_1  and  C_2
REMARK    2  A    between atoms: C_2  and  N_3
REMARK    3  A    between atoms: N_3  and  C_4
REMARK    4  A    between atoms: C_4  and  C_5
REMARK    5  A    between atoms: C_6  and  C_8
REMARK    6  A    between atoms: N_10  and  C_11
REMARK    7  A    between atoms: C_14  and  O_15
REMARK    8  A    between atoms: O_15  and  C_16
REMARK    9  A    between atoms: C_16  and  C_17
REMARK                            x       y       z     vdW  Elec       q    Type
REMARK                         _______ _______ _______ _____ _____    ______ ____
ROOT
ATOM      1  C   UNL     1       2.478   7.419  18.775  0.00  0.00    +0.000 A 
ATOM      2  C   UNL     1       2.493   8.337  17.725  0.00  0.00    +0.000 A 
ATOM      3  C   UNL     1       1.843   9.565  17.835  0.00  0.00    +0.000 A 
ATOM      4  C   UNL     1       1.130   9.882  18.989  0.00  0.00    +0.000 A 
ATOM      5  C   UNL     1       1.147   8.992  20.063  0.00  0.00    +0.000 A 
ATOM      6  C   UNL     1       1.807   7.757  19.954  0.00  0.00    +0.000 A 
ENDROOT
BRANCH   1   9
ATOM      7  C   UNL     1       2.495   5.014  18.144  0.00  0.00    +0.000 C 
ATOM      8  O   UNL     1       1.433   4.930  17.544  0.00  0.00    +0.000 OA
ATOM      9  N   UNL     1       3.087   6.152  18.669  0.00  0.00    +0.000 N 
ATOM     10  H   UNL     1       4.061   6.059  18.943  0.00  0.00    +0.000 HD
BRANCH   7  12
ATOM     11  N   UNL     1       3.119   3.026  19.566  0.00  0.00    +0.000 N 
ATOM     12  C   UNL     1       3.332   3.743  18.372  0.00  0.00    +0.000 C 
ATOM     13  O   UNL     1       4.170   3.458  17.521  0.00  0.00    +0.000 OA
BRANCH  11  15
ATOM     14  C   UNL     1       5.030   1.867  20.667  0.00  0.00    +0.000 C 
ATOM     15  C   UNL     1       3.837   1.763  19.729  0.00  0.00    +0.000 C 
ENDBRANCH  11  15
BRANCH  11  16
ATOM     16  C   UNL     1       2.190   3.524  20.590  0.00  0.00    +0.000 C 
ATOM     17  C   UNL     1       1.592   2.525  21.567  0.00  0.00    +0.000 C 
ENDBRANCH  11  16
ENDBRANCH   7  12
ENDBRANCH   1   9
BRANCH   4  18
ATOM     18  O   UNL     1       0.382  11.020  19.140  0.00  0.00    +0.000 OA
BRANCH  18  19
ATOM     19  C   UNL     1      -0.954  10.783  19.597  0.00  0.00    +0.000 C 
BRANCH  19  20
ATOM     20  C   UNL     1      -1.916  10.788  18.438  0.00  0.00    +0.000 A 
ATOM     21  C   UNL     1      -1.702   9.956  17.331  0.00  0.00    +0.000 A 
ATOM     22  C   UNL     1      -2.619   9.938  16.280  0.00  0.00    +0.000 A 
ATOM     23  C   UNL     1      -3.753  10.750  16.325  0.00  0.00    +0.000 A 
ATOM     24  C   UNL     1      -3.972  11.583  17.420  0.00  0.00    +0.000 A 
ATOM     25  C   UNL     1      -3.057  11.602  18.471  0.00  0.00    +0.000 A 
ENDBRANCH  19  20
ENDBRANCH  18  19
ENDBRANCH   4  18
TORSDOF 7
ENDMDL
MODEL 7
REMARK VINA RESULT:      -6.8      4.855      7.832
REMARK  Name = 
REMARK  9 active torsions:
REMARK  status: ('A' for Active; 'I' for Inactive)
REMARK    1  A    between atoms: C_1  and  C_2
REMARK    2  A    between atoms: C_2  and  N_3
REMARK    3  A    between atoms: N_3  and  C_4
REMARK    4  A    between atoms: C_4  and  C_5
REMARK    5  A    between atoms: C_6  and  C_8
REMARK    6  A    between atoms: N_10  and  C_11
REMARK    7  A    between atoms: C_14  and  O_15
REMARK    8  A    between atoms: O_15  and  C_16
REMARK    9  A    between atoms: C_16  and  C_17
REMARK                            x       y       z     vdW  Elec       q    Type
REMARK                         _______ _______ _______ _____ _____    ______ ____
ROOT
ATOM      1  C   UNL     1       5.686   5.715  17.759  0.00  0.00    +0.000 A 
ATOM      2  C   UNL     1       5.845   6.841  16.950  0.00  0.00    +0.000 A 
ATOM      3  C   UNL     1       6.914   7.716  17.140  0.00  0.00    +0.000 A 
ATOM      4  C   UNL     1       7.824   7.502  18.172  0.00  0.00    +0.000 A 
ATOM      5  C   UNL     1       7.701   6.354  18.957  0.00  0.00    +0.000 A 
ATOM      6  C   UNL     1       6.629   5.469  18.762  0.00  0.00    +0.000 A 
ENDROOT
BRANCH   1   9
ATOM      7  C   UNL     1       3.255   5.192  17.767  0.00  0.00    +0.000 C 
ATOM      8  O   UNL     1       2.783   6.314  17.885  0.00  0.00    +0.000 OA
ATOM      9  N   UNL     1       4.589   4.843  17.616  0.00  0.00    +0.000 N 
ATOM     10  H   UNL     1       4.765   3.886  17.324  0.00  0.00    +0.000 HD
BRANCH   7  12
ATOM     11  N   UNL     1       1.520   3.767  18.916  0.00  0.00    +0.000 N 
ATOM     12  C   UNL     1       2.313   3.976  17.771  0.00  0.00    +0.000 C 
ATOM     13  O   UNL     1       2.347   3.233  16.794  0.00  0.00    +0.000 OA
BRANCH  11  15
ATOM     14  C   UNL     1       1.165   1.313  19.155  0.00  0.00    +0.000 C 
ATOM     15  C   UNL     1       0.549   2.675  18.872  0.00  0.00    +0.000 C 
ENDBRANCH  11  15
BRANCH  11  16
ATOM     16  C   UNL     1       1.652   4.635  20.094  0.00  0.00    +0.000 C 
ATOM     17  C   UNL     1       2.216   4.036  21.372  0.00  0.00    +0.000 C 
ENDBRANCH  11  16
ENDBRANCH   7  12
ENDBRANCH   1   9
BRANCH   4  18
ATOM     18  O   UNL     1       8.840   8.363  18.490  0.00  0.00    +0.000 OA
BRANCH  18  19
ATOM     19  C   UNL     1       8.532   9.741  18.249  0.00  0.00    +0.000 C 
BRANCH  19  20
ATOM     20  C   UNL     1       9.589  10.630  18.849  0.00  0.00    +0.000 A 
ATOM     21  C   UNL     1      10.590  11.191  18.043  0.00  0.00    +0.000 A 
ATOM     22  C   UNL     1      11.541  12.045  18.601  0.00  0.00    +0.000 A 
ATOM     23  C   UNL     1      11.502  12.344  19.964  0.00  0.00    +0.000 A 
ATOM     24  C   UNL     1      10.513  11.788  20.772  0.00  0.00    +0.000 A 
ATOM     25  C   UNL     1       9.561  10.936  20.217  0.00  0.00    +0.000 A 
ENDBRANCH  19  20
ENDBRANCH  18  19
ENDBRANCH   4  18
TORSDOF 7
ENDMDL
MODEL 8
REMARK VINA RESULT:      -6.8      5.792      8.269
REMARK  Name = 
REMARK  9 active torsions:
REMARK  status: ('A' for Active; 'I' for Inactive)
REMARK    1  A    between atoms: C_1  and  C_2
REMARK    2  A    between atoms: C_2  and  N_3
REMARK    3  A    between atoms: N_3  and  C_4
REMARK    4  A    between atoms: C_4  and  C_5
REMARK    5  A    between atoms: C_6  and  C_8
REMARK    6  A    between atoms: N_10  and  C_11
REMARK    7  A    between atoms: C_14  and  O_15
REMARK    8  A    between atoms: O_15  and  C_16
REMARK    9  A    between atoms: C_16  and  C_17
REMARK                            x       y       z     vdW  Elec       q    Type
REMARK                         _______ _______ _______ _____ _____    ______ ____
ROOT
ATOM      1  C   UNL     1       5.637   5.822  18.148  0.00  0.00    +0.000 A 
ATOM      2  C   UNL     1       6.836   5.619  18.832  0.00  0.00    +0.000 A 
ATOM      3  C   UNL     1       7.874   6.548  18.754  0.00  0.00    +0.000 A 
ATOM      4  C   UNL     1       7.744   7.681  17.955  0.00  0.00    +0.000 A 
ATOM      5  C   UNL     1       6.533   7.918  17.304  0.00  0.00    +0.000 A 
ATOM      6  C   UNL     1       5.486   6.986  17.387  0.00  0.00    +0.000 A 
ENDROOT
BRANCH   1   9
ATOM      7  C   UNL     1       4.363   3.903  17.212  0.00  0.00    +0.000 C 
ATOM      8  O   UNL     1       5.088   3.584  16.280  0.00  0.00    +0.000 OA
ATOM      9  N   UNL     1       4.594   4.876  18.173  0.00  0.00    +0.000 N 
ATOM     10  H   UNL     1       3.981   4.852  18.983  0.00  0.00    +0.000 HD
BRANCH   7  12
ATOM     11  N   UNL     1       2.925   2.260  18.476  0.00  0.00    +0.000 N 
ATOM     12  C   UNL     1       3.023   3.172  17.407  0.00  0.00    +0.000 C 
ATOM     13  O   UNL     1       2.136   3.392  16.586  0.00  0.00    +0.000 OA
BRANCH  11  15
ATOM     14  C   UNL     1       0.650   2.579  19.440  0.00  0.00    +0.000 C 
ATOM     15  C   UNL     1       1.619   1.651  18.722  0.00  0.00    +0.000 C 
ENDBRANCH  11  15
BRANCH  11  16
ATOM     16  C   UNL     1       4.089   1.961  19.322  0.00  0.00    +0.000 C 
ATOM     17  C   UNL     1       4.058   2.406  20.775  0.00  0.00    +0.000 C 
ENDBRANCH  11  16
ENDBRANCH   7  12
ENDBRANCH   1   9
BRANCH   4  18
ATOM     18  O   UNL     1       8.748   8.589  17.744  0.00  0.00    +0.000 OA
BRANCH  18  19
ATOM     19  C   UNL     1       8.363   9.948  17.980  0.00  0.00    +0.000 C 
BRANCH  19  20
ATOM     20  C   UNL     1       9.493  10.715  18.614  0.00  0.00    +0.000 A 
ATOM     21  C   UNL     1       9.504  10.956  19.995  0.00  0.00    +0.000 A 
ATOM     22  C   UNL     1      10.575  11.633  20.579  0.00  0.00    +0.000 A 
ATOM     23  C   UNL     1      11.639  12.075  19.792  0.00  0.00    +0.000 A 
ATOM     24  C   UNL     1      11.635  11.842  18.418  0.00  0.00    +0.000 A 
ATOM     25  C   UNL     1      10.567  11.166  17.832  0.00  0.00    +0.000 A 
ENDBRANCH  19  20
ENDBRANCH  18  19
ENDBRANCH   4  18
TORSDOF 7
ENDMDL
MODEL 9
REMARK VINA RESULT:      -6.8      4.889      7.894
REMARK  Name = 
REMARK  9 active torsions:
REMARK  status: ('A' for Active; 'I' for Inactive)
REMARK    1  A    between atoms: C_1  and  C_2
REMARK    2  A    between atoms: C_2  and  N_3
REMARK    3  A    between atoms: N_3  and  C_4
REMARK    4  A    between atoms: C_4  and  C_5
REMARK    5  A    between atoms: C_6  and  C_8
REMARK    6  A    between atoms: N_10  and  C_11
REMARK    7  A    between atoms: C_14  and  O_15
REMARK    8  A    between atoms: O_15  and  C_16
REMARK    9  A    between atoms: C_16  and  C_17
REMARK                            x       y       z     vdW  Elec       q    Type
REMARK                         _______ _______ _______ _____ _____    ______ ____
ROOT
ATOM      1  C   UNL     1       6.073   5.386  18.401  0.00  0.00    +0.000 A 
ATOM      2  C   UNL     1       5.723   6.374  17.480  0.00  0.00    +0.000 A 
ATOM      3  C   UNL     1       6.584   7.436  17.205  0.00  0.00    +0.000 A 
ATOM      4  C   UNL     1       7.797   7.551  17.878  0.00  0.00    +0.000 A 
ATOM      5  C   UNL     1       8.178   6.544  18.766  0.00  0.00    +0.000 A 
ATOM      6  C   UNL     1       7.314   5.471  19.039  0.00  0.00    +0.000 A 
ENDROOT
BRANCH   1   9
ATOM      7  C   UNL     1       4.339   3.691  17.851  0.00  0.00    +0.000 C 
ATOM      8  O   UNL     1       4.290   3.804  16.635  0.00  0.00    +0.000 OA
ATOM      9  N   UNL     1       5.201   4.329  18.730  0.00  0.00    +0.000 N 
ATOM     10  H   UNL     1       5.231   3.952  19.673  0.00  0.00    +0.000 HD
BRANCH   7  12
ATOM     11  N   UNL     1       2.634   3.239  19.655  0.00  0.00    +0.000 N 
ATOM     12  C   UNL     1       3.361   2.736  18.557  0.00  0.00    +0.000 C 
ATOM     13  O   UNL     1       3.310   1.578  18.152  0.00  0.00    +0.000 OA
BRANCH  11  15
ATOM     14  C   UNL     1       1.444   2.593  21.746  0.00  0.00    +0.000 C 
ATOM     15  C   UNL     1       1.628   2.363  20.254  0.00  0.00    +0.000 C 
ENDBRANCH  11  15
BRANCH  11  16
ATOM     16  C   UNL     1       2.866   4.602  20.153  0.00  0.00    +0.000 C 
ATOM     17  C   UNL     1       1.963   5.716  19.652  0.00  0.00    +0.000 C 
ENDBRANCH  11  16
ENDBRANCH   7  12
ENDBRANCH   1   9
BRANCH   4  18
ATOM     18  O   UNL     1       8.652   8.612  17.742  0.00  0.00    +0.000 OA
BRANCH  18  19
ATOM     19  C   UNL     1       8.036   9.888  17.952  0.00  0.00    +0.000 C 
BRANCH  19  20
ATOM     20  C   UNL     1       9.014  10.851  18.569  0.00  0.00    +0.000 A 
ATOM     21  C   UNL     1       9.423  11.997  17.872  0.00  0.00    +0.000 A 
ATOM     22  C   UNL     1      10.299  12.904  18.467  0.00  0.00    +0.000 A 
ATOM     23  C   UNL     1      10.776  12.675  19.759  0.00  0.00    +0.000 A 
ATOM     24  C   UNL     1      10.378  11.537  20.458  0.00  0.00    +0.000 A 
ATOM     25  C   UNL     1       9.502  10.629  19.866  0.00  0.00    +0.000 A 
ENDBRANCH  19  20
ENDBRANCH  18  19
ENDBRANCH   4  18
TORSDOF 7
ENDMDL
