MODEL 1
REMARK VINA RESULT:      -5.4      0.000      0.000
REMARK  Name = 
REMARK  6 active torsions:
REMARK  status: ('A' for Active; 'I' for Inactive)
REMARK    1  A    between atoms: C_1  and  C_2
REMARK    2  A    between atoms: C_2  and  C_3
REMARK    3  A    between atoms: C_3  and  N_4
REMARK    4  A    between atoms: N_4  and  C_5
REMARK    5  A    between atoms: N_4  and  C_6
REMARK    6  A    between atoms: N_4  and  C_7
REMARK                            x       y       z     vdW  Elec       q    Type
REMARK                         _______ _______ _______ _____ _____    ______ ____
ROOT
ATOM      1  C   UNL     1       4.062   6.251  18.104  0.00  0.00    +0.000 C 
ATOM      2  C   UNL     1       4.892   4.967  17.899  0.00  0.00    +0.000 C 
ATOM      3  C   UNL     1       4.729   4.480  16.466  0.00  0.00    +0.000 C 
ATOM      4  O   UNL     1       6.001   3.910  16.127  0.00  0.00    +0.000 OA
ATOM      5  C   UNL     1       6.942   4.481  16.949  0.00  0.00    +0.000 C 
ATOM      6  O   UNL     1       8.127   4.169  16.908  0.00  0.00    +0.000 OA
ATOM      7  N   UNL     1       6.301   5.197  17.940  0.00  0.00    +0.000 N 
ATOM      8 CL   UNL     1       7.115   5.866  19.253  0.00  0.00    +0.000 Cl
ENDROOT
BRANCH   2   9
ATOM      9  C   UNL     1       4.380   3.954  18.984  0.00  0.00    +0.000 C 
BRANCH   9  10
ATOM     10  N   UNL     1       3.131   3.039  18.801  0.00  0.00    +0.000 N 
ATOM     11  C   UNL     1       1.953   3.726  18.126  0.00  0.00    +0.000 C 
ATOM     12  C   UNL     1       3.444   1.730  18.071  0.00  0.00    +0.000 C 
ATOM     13  C   UNL     1       2.669   2.643  20.218  0.00  0.00    +0.000 C 
ENDBRANCH   9  10
ENDBRANCH   2   9
TORSDOF 2
ENDMDL
MODEL 2
REMARK VINA RESULT:      -5.3      0.216      1.136
REMARK  Name = 
REMARK  6 active torsions:
REMARK  status: ('A' for Active; 'I' for Inactive)
REMARK    1  A    between atoms: C_1  and  C_2
REMARK    2  A    between atoms: C_2  and  C_3
REMARK    3  A    between atoms: C_3  and  N_4
REMARK    4  A    between atoms: N_4  and  C_5
REMARK    5  A    between atoms: N_4  and  C_6
REMARK    6  A    between atoms: N_4  and  C_7
REMARK                            x       y       z     vdW  Elec       q    Type
REMARK                         _______ _______ _______ _____ _____    ______ ____
ROOT
ATOM      1  C   UNL     1       4.023   6.089  18.350  0.00  0.00    +0.000 C 
ATOM      2  C   UNL     1       4.883   4.847  18.043  0.00  0.00    +0.000 C 
ATOM      3  C   UNL     1       4.732   4.474  16.574  0.00  0.00    +0.000 C 
ATOM      4  O   UNL     1       6.017   3.964  16.192  0.00  0.00    +0.000 OA
ATOM      5  C   UNL     1       6.944   4.489  17.059  0.00  0.00    +0.000 C 
ATOM      6  O   UNL     1       8.136   4.210  16.994  0.00  0.00    +0.000 OA
ATOM      7  N   UNL     1       6.287   5.107  18.104  0.00  0.00    +0.000 N 
ATOM      8 CL   UNL     1       7.085   5.686  19.468  0.00  0.00    +0.000 Cl
ENDROOT
BRANCH   2   9
ATOM      9  C   UNL     1       4.397   3.737  19.041  0.00  0.00    +0.000 C 
BRANCH   9  10
ATOM     10  N   UNL     1       3.065   2.943  18.879  0.00  0.00    +0.000 N 
ATOM     11  C   UNL     1       2.348   2.660  20.190  0.00  0.00    +0.000 C 
ATOM     12  C   UNL     1       2.090   3.594  17.895  0.00  0.00    +0.000 C 
ATOM     13  C   UNL     1       3.444   1.578  18.270  0.00  0.00    +0.000 C 
ENDBRANCH   9  10
ENDBRANCH   2   9
TORSDOF 2
ENDMDL
MODEL 3
REMARK VINA RESULT:      -5.3      3.480      4.947
REMARK  Name = 
REMARK  6 active torsions:
REMARK  status: ('A' for Active; 'I' for Inactive)
REMARK    1  A    between atoms: C_1  and  C_2
REMARK    2  A    between atoms: C_2  and  C_3
REMARK    3  A    between atoms: C_3  and  N_4
REMARK    4  A    between atoms: N_4  and  C_5
REMARK    5  A    between atoms: N_4  and  C_6
REMARK    6  A    between atoms: N_4  and  C_7
REMARK                            x       y       z     vdW  Elec       q    Type
REMARK                         _______ _______ _______ _____ _____    ______ ____
ROOT
ATOM      1  C   UNL     1       1.487   4.492  17.643  0.00  0.00    +0.000 C 
ATOM      2  C   UNL     1       2.407   4.303  18.865  0.00  0.00    +0.000 C 
ATOM      3  C   UNL     1       2.374   5.559  19.726  0.00  0.00    +0.000 C 
ATOM      4  O   UNL     1       2.504   5.082  21.073  0.00  0.00    +0.000 OA
ATOM      5  C   UNL     1       2.080   3.775  21.091  0.00  0.00    +0.000 C 
ATOM      6  O   UNL     1       2.101   3.093  22.109  0.00  0.00    +0.000 OA
ATOM      7  N   UNL     1       1.917   3.335  19.793  0.00  0.00    +0.000 N 
ATOM      8 CL   UNL     1       1.605   1.726  19.409  0.00  0.00    +0.000 Cl
ENDROOT
BRANCH   2   9
ATOM      9  C   UNL     1       3.825   3.964  18.279  0.00  0.00    +0.000 C 
BRANCH   9  10
ATOM     10  N   UNL     1       4.937   5.025  18.021  0.00  0.00    +0.000 N 
ATOM     11  C   UNL     1       4.420   6.339  17.455  0.00  0.00    +0.000 C 
ATOM     12  C   UNL     1       5.800   5.306  19.254  0.00  0.00    +0.000 C 
ATOM     13  C   UNL     1       5.880   4.419  16.963  0.00  0.00    +0.000 C 
ENDBRANCH   9  10
ENDBRANCH   2   9
TORSDOF 2
ENDMDL
MODEL 4
REMARK VINA RESULT:      -5.2      2.708      4.213
REMARK  Name = 
REMARK  6 active torsions:
REMARK  status: ('A' for Active; 'I' for Inactive)
REMARK    1  A    between atoms: C_1  and  C_2
REMARK    2  A    between atoms: C_2  and  C_3
REMARK    3  A    between atoms: C_3  and  N_4
REMARK    4  A    between atoms: N_4  and  C_5
REMARK    5  A    between atoms: N_4  and  C_6
REMARK    6  A    between atoms: N_4  and  C_7
REMARK                            x       y       z     vdW  Elec       q    Type
REMARK                         _______ _______ _______ _____ _____    ______ ____
ROOT
ATOM      1  C   UNL     1       2.625   5.135  17.824  0.00  0.00    +0.000 C 
ATOM      2  C   UNL     1       3.870   4.251  18.033  0.00  0.00    +0.000 C 
ATOM      3  C   UNL     1       4.874   4.985  18.912  0.00  0.00    +0.000 C 
ATOM      4  O   UNL     1       5.502   3.955  19.688  0.00  0.00    +0.000 OA
ATOM      5  C   UNL     1       4.639   2.887  19.734  0.00  0.00    +0.000 C 
ATOM      6  O   UNL     1       4.917   1.842  20.310  0.00  0.00    +0.000 OA
ATOM      7  N   UNL     1       3.611   3.098  18.836  0.00  0.00    +0.000 N 
ATOM      8 CL   UNL     1       2.472   1.917  18.461  0.00  0.00    +0.000 Cl
ENDROOT
BRANCH   2   9
ATOM      9  C   UNL     1       4.400   3.918  16.593  0.00  0.00    +0.000 C 
BRANCH   9  10
ATOM     10  N   UNL     1       5.468   4.769  15.840  0.00  0.00    +0.000 N 
ATOM     11  C   UNL     1       5.637   4.395  14.375  0.00  0.00    +0.000 C 
ATOM     12  C   UNL     1       5.230   6.277  15.957  0.00  0.00    +0.000 C 
ATOM     13  C   UNL     1       6.816   4.489  16.534  0.00  0.00    +0.000 C 
ENDBRANCH   9  10
ENDBRANCH   2   9
TORSDOF 2
ENDMDL
MODEL 5
REMARK VINA RESULT:      -5.2      1.412      1.801
REMARK  Name = 
REMARK  6 active torsions:
REMARK  status: ('A' for Active; 'I' for Inactive)
REMARK    1  A    between atoms: C_1  and  C_2
REMARK    2  A    between atoms: C_2  and  C_3
REMARK    3  A    between atoms: C_3  and  N_4
REMARK    4  A    between atoms: N_4  and  C_5
REMARK    5  A    between atoms: N_4  and  C_6
REMARK    6  A    between atoms: N_4  and  C_7
REMARK                            x       y       z     vdW  Elec       q    Type
REMARK                         _______ _______ _______ _____ _____    ______ ____
ROOT
ATOM      1  C   UNL     1       4.948   6.985  15.561  0.00  0.00    +0.000 C 
ATOM      2  C   UNL     1       5.342   5.818  16.488  0.00  0.00    +0.000 C 
ATOM      3  C   UNL     1       5.288   4.510  15.710  0.00  0.00    +0.000 C 
ATOM      4  O   UNL     1       6.348   3.713  16.259  0.00  0.00    +0.000 OA
ATOM      5  C   UNL     1       7.260   4.572  16.822  0.00  0.00    +0.000 C 
ATOM      6  O   UNL     1       8.269   4.176  17.395  0.00  0.00    +0.000 OA
ATOM      7  N   UNL     1       6.719   5.842  16.866  0.00  0.00    +0.000 N 
ATOM      8 CL   UNL     1       7.459   7.120  17.673  0.00  0.00    +0.000 Cl
ENDROOT
BRANCH   2   9
ATOM      9  C   UNL     1       4.347   5.885  17.701  0.00  0.00    +0.000 C 
BRANCH   9  10
ATOM     10  N   UNL     1       3.697   4.632  18.364  0.00  0.00    +0.000 N 
ATOM     11  C   UNL     1       2.952   3.732  17.391  0.00  0.00    +0.000 C 
ATOM     12  C   UNL     1       4.690   3.796  19.175  0.00  0.00    +0.000 C 
ATOM     13  C   UNL     1       2.657   5.164  19.371  0.00  0.00    +0.000 C 
ENDBRANCH   9  10
ENDBRANCH   2   9
TORSDOF 2
ENDMDL
MODEL 6
REMARK VINA RESULT:      -5.2      3.124      4.768
REMARK  Name = 
REMARK  6 active torsions:
REMARK  status: ('A' for Active; 'I' for Inactive)
REMARK    1  A    between atoms: C_1  and  C_2
REMARK    2  A    between atoms: C_2  and  C_3
REMARK    3  A    between atoms: C_3  and  N_4
REMARK    4  A    between atoms: N_4  and  C_5
REMARK    5  A    between atoms: N_4  and  C_6
REMARK    6  A    between atoms: N_4  and  C_7
REMARK                            x       y       z     vdW  Elec       q    Type
REMARK                         _______ _______ _______ _____ _____    ______ ____
ROOT
ATOM      1  C   UNL     1       4.600   1.861  20.519  0.00  0.00    +0.000 C 
ATOM      2  C   UNL     1       3.614   2.531  19.541  0.00  0.00    +0.000 C 
ATOM      3  C   UNL     1       3.540   1.717  18.256  0.00  0.00    +0.000 C 
ATOM      4  O   UNL     1       2.180   1.847  17.818  0.00  0.00    +0.000 OA
ATOM      5  C   UNL     1       1.420   2.156  18.920  0.00  0.00    +0.000 C 
ATOM      6  O   UNL     1       0.212   2.353  18.849  0.00  0.00    +0.000 OA
ATOM      7  N   UNL     1       2.255   2.459  19.976  0.00  0.00    +0.000 N 
ATOM      8 CL   UNL     1       1.692   3.083  21.434  0.00  0.00    +0.000 Cl
ENDROOT
BRANCH   2   9
ATOM      9  C   UNL     1       4.143   3.996  19.343  0.00  0.00    +0.000 C 
BRANCH   9  10
ATOM     10  N   UNL     1       3.898   4.845  18.058  0.00  0.00    +0.000 N 
ATOM     11  C   UNL     1       4.381   4.181  16.777  0.00  0.00    +0.000 C 
ATOM     12  C   UNL     1       2.440   5.278  17.890  0.00  0.00    +0.000 C 
ATOM     13  C   UNL     1       4.717   6.140  18.229  0.00  0.00    +0.000 C 
ENDBRANCH   9  10
ENDBRANCH   2   9
TORSDOF 2
ENDMDL
MODEL 7
REMARK VINA RESULT:      -5.2      3.012      4.758
REMARK  Name = 
REMARK  6 active torsions:
REMARK  status: ('A' for Active; 'I' for Inactive)
REMARK    1  A    between atoms: C_1  and  C_2
REMARK    2  A    between atoms: C_2  and  C_3
REMARK    3  A    between atoms: C_3  and  N_4
REMARK    4  A    between atoms: N_4  and  C_5
REMARK    5  A    between atoms: N_4  and  C_6
REMARK    6  A    between atoms: N_4  and  C_7
REMARK                            x       y       z     vdW  Elec       q    Type
REMARK                         _______ _______ _______ _____ _____    ______ ____
ROOT
ATOM      1  C   UNL     1       3.628   1.417  18.464  0.00  0.00    +0.000 C 
ATOM      2  C   UNL     1       3.255   2.886  18.743  0.00  0.00    +0.000 C 
ATOM      3  C   UNL     1       2.339   3.397  17.639  0.00  0.00    +0.000 C 
ATOM      4  O   UNL     1       1.448   4.310  18.296  0.00  0.00    +0.000 OA
ATOM      5  C   UNL     1       1.412   3.966  19.626  0.00  0.00    +0.000 C 
ATOM      6  O   UNL     1       0.749   4.589  20.447  0.00  0.00    +0.000 OA
ATOM      7  N   UNL     1       2.408   3.045  19.882  0.00  0.00    +0.000 N 
ATOM      8 CL   UNL     1       2.807   2.543  21.438  0.00  0.00    +0.000 Cl
ENDROOT
BRANCH   2   9
ATOM      9  C   UNL     1       4.620   3.656  18.852  0.00  0.00    +0.000 C 
BRANCH   9  10
ATOM     10  N   UNL     1       5.192   4.577  17.732  0.00  0.00    +0.000 N 
ATOM     11  C   UNL     1       5.191   3.943  16.349  0.00  0.00    +0.000 C 
ATOM     12  C   UNL     1       4.508   5.945  17.667  0.00  0.00    +0.000 C 
ATOM     13  C   UNL     1       6.664   4.847  18.101  0.00  0.00    +0.000 C 
ENDBRANCH   9  10
ENDBRANCH   2   9
TORSDOF 2
ENDMDL
MODEL 8
REMARK VINA RESULT:      -5.1      1.106      1.458
REMARK  Name = 
REMARK  6 active torsions:
REMARK  status: ('A' for Active; 'I' for Inactive)
REMARK    1  A    between atoms: C_1  and  C_2
REMARK    2  A    between atoms: C_2  and  C_3
REMARK    3  A    between atoms: C_3  and  N_4
REMARK    4  A    between atoms: N_4  and  C_5
REMARK    5  A    between atoms: N_4  and  C_6
REMARK    6  A    between atoms: N_4  and  C_7
REMARK                            x       y       z     vdW  Elec       q    Type
REMARK                         _______ _______ _______ _____ _____    ______ ____
ROOT
ATOM      1  C   UNL     1       4.372   7.018  17.196  0.00  0.00    +0.000 C 
ATOM      2  C   UNL     1       5.068   5.687  17.546  0.00  0.00    +0.000 C 
ATOM      3  C   UNL     1       4.743   4.648  16.481  0.00  0.00    +0.000 C 
ATOM      4  O   UNL     1       5.929   3.846  16.380  0.00  0.00    +0.000 OA
ATOM      5  C   UNL     1       6.981   4.606  16.830  0.00  0.00    +0.000 C 
ATOM      6  O   UNL     1       8.126   4.174  16.885  0.00  0.00    +0.000 OA
ATOM      7  N   UNL     1       6.490   5.750  17.428  0.00  0.00    +0.000 N 
ATOM      8 CL   UNL     1       7.466   6.824  18.279  0.00  0.00    +0.000 Cl
ENDROOT
BRANCH   2   9
ATOM      9  C   UNL     1       4.564   5.311  18.985  0.00  0.00    +0.000 C 
BRANCH   9  10
ATOM     10  N   UNL     1       3.274   4.482  19.267  0.00  0.00    +0.000 N 
ATOM     11  C   UNL     1       2.561   4.864  20.556  0.00  0.00    +0.000 C 
ATOM     12  C   UNL     1       2.276   4.505  18.107  0.00  0.00    +0.000 C 
ATOM     13  C   UNL     1       3.725   3.015  19.421  0.00  0.00    +0.000 C 
ENDBRANCH   9  10
ENDBRANCH   2   9
TORSDOF 2
ENDMDL
MODEL 9
REMARK VINA RESULT:      -5.1      3.562      5.038
REMARK  Name = 
REMARK  6 active torsions:
REMARK  status: ('A' for Active; 'I' for Inactive)
REMARK    1  A    between atoms: C_1  and  C_2
REMARK    2  A    between atoms: C_2  and  C_3
REMARK    3  A    between atoms: C_3  and  N_4
REMARK    4  A    between atoms: N_4  and  C_5
REMARK    5  A    between atoms: N_4  and  C_6
REMARK    6  A    between atoms: N_4  and  C_7
REMARK                            x       y       z     vdW  Elec       q    Type
REMARK                         _______ _______ _______ _____ _____    ______ ____
ROOT
ATOM      1  C   UNL     1       1.798   4.631  17.772  0.00  0.00    +0.000 C 
ATOM      2  C   UNL     1       2.520   4.281  19.089  0.00  0.00    +0.000 C 
ATOM      3  C   UNL     1       2.387   5.443  20.065  0.00  0.00    +0.000 C 
ATOM      4  O   UNL     1       2.302   4.826  21.358  0.00  0.00    +0.000 OA
ATOM      5  C   UNL     1       1.850   3.542  21.173  0.00  0.00    +0.000 C 
ATOM      6  O   UNL     1       1.700   2.758  22.104  0.00  0.00    +0.000 OA
ATOM      7  N   UNL     1       1.872   3.243  19.826  0.00  0.00    +0.000 N 
ATOM      8 CL   UNL     1       1.584   1.696  19.230  0.00  0.00    +0.000 Cl
ENDROOT
BRANCH   2   9
ATOM      9  C   UNL     1       4.001   3.948  18.685  0.00  0.00    +0.000 C 
BRANCH   9  10
ATOM     10  N   UNL     1       4.852   4.813  17.707  0.00  0.00    +0.000 N 
ATOM     11  C   UNL     1       4.876   4.291  16.278  0.00  0.00    +0.000 C 
ATOM     12  C   UNL     1       4.452   6.291  17.704  0.00  0.00    +0.000 C 
ATOM     13  C   UNL     1       6.302   4.760  18.229  0.00  0.00    +0.000 C 
ENDBRANCH   9  10
ENDBRANCH   2   9
TORSDOF 2
ENDMDL
