MODEL 1
REMARK VINA RESULT:     -10.3      0.000      0.000
REMARK  Name = 
REMARK  7 active torsions:
REMARK  status: ('A' for Active; 'I' for Inactive)
REMARK    1  A    between atoms: C_1  and  C_2
REMARK    2  A    between atoms: C_8  and  S_9
REMARK    3  A    between atoms: S_9  and  N_12
REMARK    4  A    between atoms: C_15  and  C_16
REMARK    5  A    between atoms: N_18  and  C_19
REMARK    6  A    between atoms: C_19  and  C_20
REMARK    7  A    between atoms: C_32  and  C_33
REMARK                            x       y       z     vdW  Elec       q    Type
REMARK                         _______ _______ _______ _____ _____    ______ ____
ROOT
ATOM      1  N   UNL     1       5.351   4.339  18.380  0.00  0.00    +0.000 NA
ATOM      2  C   UNL     1       5.979   4.489  17.041  0.00  0.00    +0.000 C 
ATOM      3  C   UNL     1       7.490   4.675  17.147  0.00  0.00    +0.000 C 
ATOM      4  C   UNL     1       7.871   5.809  18.106  0.00  0.00    +0.000 C 
ATOM      5  C   UNL     1       7.259   5.501  19.473  0.00  0.00    +0.000 C 
ATOM      6  C   UNL     1       5.743   5.355  19.387  0.00  0.00    +0.000 C 
ENDROOT
BRANCH   4   7
ATOM      7  C   UNL     1       7.445   7.178  17.567  0.00  0.00    +0.000 C 
ATOM      8  O   UNL     1       6.624   7.310  16.666  0.00  0.00    +0.000 OA
ATOM      9  N   UNL     1       8.075   8.248  18.160  0.00  0.00    +0.000 N 
ATOM     10  H   UNL     1       8.868   8.088  18.767  0.00  0.00    +0.000 HD
BRANCH   9  11
ATOM     11  C   UNL     1       7.852   9.610  17.721  0.00  0.00    +0.000 C 
BRANCH  11  12
ATOM     12  C   UNL     1       8.759  10.606  18.402  0.00  0.00    +0.000 A 
ATOM     13  C   UNL     1       9.595  10.155  19.436  0.00  0.00    +0.000 A 
ATOM     14  C   UNL     1      10.363  11.055  20.176  0.00  0.00    +0.000 A 
ATOM     15  C   UNL     1      10.378  12.406  19.856  0.00  0.00    +0.000 A 
ATOM     16  C   UNL     1       9.578  12.867  18.828  0.00  0.00    +0.000 A 
ATOM     17  C   UNL     1       8.754  11.982  18.113  0.00  0.00    +0.000 A 
ATOM     18 CL   UNL     1       7.716  12.651  16.904  0.00  0.00    +0.000 Cl
ENDBRANCH  11  12
ENDBRANCH   9  11
ENDBRANCH   4   7
BRANCH   1  19
ATOM     19  S   UNL     1       3.673   3.955  18.347  0.00  0.00    +0.000 S 
ATOM     20  O   UNL     1       3.434   2.932  19.345  0.00  0.00    +0.000 OA
ATOM     21  O   UNL     1       3.282   3.753  16.969  0.00  0.00    +0.000 OA
BRANCH  19  29
ATOM     22  C   UNL     1      -0.077  10.841  21.308  0.00  0.00    +0.000 C 
ATOM     23  C   UNL     1       0.632   9.508  21.293  0.00  0.00    +0.000 C 
ATOM     24  O   UNL     1       0.674   8.858  22.338  0.00  0.00    +0.000 OA
ATOM     25  N   UNL     1       1.153   9.088  20.078  0.00  0.00    +0.000 N 
ATOM     26  C   UNL     1       1.719   7.810  19.850  0.00  0.00    +0.000 A 
ATOM     27  C   UNL     1       1.817   6.724  20.709  0.00  0.00    +0.000 A 
ATOM     28  C   UNL     1       2.405   5.538  20.244  0.00  0.00    +0.000 A 
ATOM     29  C   UNL     1       2.868   5.446  18.919  0.00  0.00    +0.000 A 
ATOM     30  C   UNL     1       2.796   6.552  18.067  0.00  0.00    +0.000 A 
ATOM     31  C   UNL     1       2.215   7.718  18.550  0.00  0.00    +0.000 A 
ATOM     32  C   UNL     1       2.054   9.002  17.809  0.00  0.00    +0.000 C 
ATOM     33  C   UNL     1       1.296   9.887  18.828  0.00  0.00    +0.000 C 
ATOM     34  C   UNL     1      -0.038  10.318  18.234  0.00  0.00    +0.000 C 
ENDBRANCH  19  29
ENDBRANCH   1  19
TORSDOF 5
ENDMDL
MODEL 2
REMARK VINA RESULT:      -9.6      1.103      1.251
REMARK  Name = 
REMARK  7 active torsions:
REMARK  status: ('A' for Active; 'I' for Inactive)
REMARK    1  A    between atoms: C_1  and  C_2
REMARK    2  A    between atoms: C_8  and  S_9
REMARK    3  A    between atoms: S_9  and  N_12
REMARK    4  A    between atoms: C_15  and  C_16
REMARK    5  A    between atoms: N_18  and  C_19
REMARK    6  A    between atoms: C_19  and  C_20
REMARK    7  A    between atoms: C_32  and  C_33
REMARK                            x       y       z     vdW  Elec       q    Type
REMARK                         _______ _______ _______ _____ _____    ______ ____
ROOT
ATOM      1  N   UNL     1       5.468   4.569  18.246  0.00  0.00    +0.000 NA
ATOM      2  C   UNL     1       6.158   4.892  16.970  0.00  0.00    +0.000 C 
ATOM      3  C   UNL     1       7.664   5.037  17.169  0.00  0.00    +0.000 C 
ATOM      4  C   UNL     1       8.012   6.021  18.292  0.00  0.00    +0.000 C 
ATOM      5  C   UNL     1       7.334   5.538  19.575  0.00  0.00    +0.000 C 
ATOM      6  C   UNL     1       5.822   5.430  19.401  0.00  0.00    +0.000 C 
ENDROOT
BRANCH   4   7
ATOM      7  C   UNL     1       7.625   7.458  17.931  0.00  0.00    +0.000 C 
ATOM      8  O   UNL     1       6.700   7.725  17.172  0.00  0.00    +0.000 OA
ATOM      9  N   UNL     1       8.415   8.426  18.507  0.00  0.00    +0.000 N 
ATOM     10  H   UNL     1       9.270   8.160  18.977  0.00  0.00    +0.000 HD
BRANCH   9  11
ATOM     11  C   UNL     1       8.242   9.834  18.213  0.00  0.00    +0.000 C 
BRANCH  11  12
ATOM     12  C   UNL     1       9.430  10.672  18.619  0.00  0.00    +0.000 A 
ATOM     13  C   UNL     1      10.354  11.050  17.632  0.00  0.00    +0.000 A 
ATOM     14  C   UNL     1      11.529  11.722  17.974  0.00  0.00    +0.000 A 
ATOM     15  C   UNL     1      11.772  12.103  19.287  0.00  0.00    +0.000 A 
ATOM     16  C   UNL     1      10.864  11.760  20.271  0.00  0.00    +0.000 A 
ATOM     17  C   UNL     1       9.706  11.031  19.950  0.00  0.00    +0.000 A 
ATOM     18 CL   UNL     1       8.668  10.562  21.249  0.00  0.00    +0.000 Cl
ENDBRANCH  11  12
ENDBRANCH   9  11
ENDBRANCH   4   7
BRANCH   1  19
ATOM     19  S   UNL     1       3.789   4.221  18.086  0.00  0.00    +0.000 S 
ATOM     20  O   UNL     1       3.480   3.117  18.972  0.00  0.00    +0.000 OA
ATOM     21  O   UNL     1       3.474   4.151  16.675  0.00  0.00    +0.000 OA
BRANCH  19  29
ATOM     22  C   UNL     1       0.003  10.898  21.452  0.00  0.00    +0.000 C 
ATOM     23  C   UNL     1       0.747   9.587  21.359  0.00  0.00    +0.000 C 
ATOM     24  O   UNL     1       0.857   8.906  22.378  0.00  0.00    +0.000 OA
ATOM     25  N   UNL     1       1.218   9.222  20.107  0.00  0.00    +0.000 N 
ATOM     26  C   UNL     1       1.807   7.968  19.809  0.00  0.00    +0.000 A 
ATOM     27  C   UNL     1       1.976   6.858  20.626  0.00  0.00    +0.000 A 
ATOM     28  C   UNL     1       2.573   5.705  20.093  0.00  0.00    +0.000 A 
ATOM     29  C   UNL     1       2.973   5.669  18.746  0.00  0.00    +0.000 A 
ATOM     30  C   UNL     1       2.830   6.799  17.936  0.00  0.00    +0.000 A 
ATOM     31  C   UNL     1       2.241   7.932  18.485  0.00  0.00    +0.000 A 
ATOM     32  C   UNL     1       2.010   9.235  17.796  0.00  0.00    +0.000 C 
ATOM     33  C   UNL     1       1.279  10.064  18.878  0.00  0.00    +0.000 C 
ATOM     34  C   UNL     1      -0.093  10.475  18.364  0.00  0.00    +0.000 C 
ENDBRANCH  19  29
ENDBRANCH   1  19
TORSDOF 5
ENDMDL
MODEL 3
REMARK VINA RESULT:      -9.5      0.954      1.722
REMARK  Name = 
REMARK  7 active torsions:
REMARK  status: ('A' for Active; 'I' for Inactive)
REMARK    1  A    between atoms: C_1  and  C_2
REMARK    2  A    between atoms: C_8  and  S_9
REMARK    3  A    between atoms: S_9  and  N_12
REMARK    4  A    between atoms: C_15  and  C_16
REMARK    5  A    between atoms: N_18  and  C_19
REMARK    6  A    between atoms: C_19  and  C_20
REMARK    7  A    between atoms: C_32  and  C_33
REMARK                            x       y       z     vdW  Elec       q    Type
REMARK                         _______ _______ _______ _____ _____    ______ ____
ROOT
ATOM      1  N   UNL     1       5.364   4.440  18.485  0.00  0.00    +0.000 NA
ATOM      2  C   UNL     1       5.912   4.559  17.108  0.00  0.00    +0.000 C 
ATOM      3  C   UNL     1       7.432   4.691  17.120  0.00  0.00    +0.000 C 
ATOM      4  C   UNL     1       7.912   5.816  18.044  0.00  0.00    +0.000 C 
ATOM      5  C   UNL     1       7.375   5.539  19.449  0.00  0.00    +0.000 C 
ATOM      6  C   UNL     1       5.853   5.448  19.457  0.00  0.00    +0.000 C 
ENDROOT
BRANCH   4   7
ATOM      7  C   UNL     1       7.503   7.197  17.522  0.00  0.00    +0.000 C 
ATOM      8  O   UNL     1       6.675   7.350  16.630  0.00  0.00    +0.000 OA
ATOM      9  N   UNL     1       8.156   8.251  18.116  0.00  0.00    +0.000 N 
ATOM     10  H   UNL     1       8.952   8.073  18.714  0.00  0.00    +0.000 HD
BRANCH   9  11
ATOM     11  C   UNL     1       7.950   9.620  17.691  0.00  0.00    +0.000 C 
BRANCH  11  12
ATOM     12  C   UNL     1       8.780  10.612  18.470  0.00  0.00    +0.000 A 
ATOM     13  C   UNL     1       9.531  10.148  19.562  0.00  0.00    +0.000 A 
ATOM     14  C   UNL     1      10.219  11.040  20.386  0.00  0.00    +0.000 A 
ATOM     15  C   UNL     1      10.242  12.398  20.097  0.00  0.00    +0.000 A 
ATOM     16  C   UNL     1       9.528  12.873  19.014  0.00  0.00    +0.000 A 
ATOM     17  C   UNL     1       8.781  11.993  18.211  0.00  0.00    +0.000 A 
ATOM     18 CL   UNL     1       7.842  12.677  16.932  0.00  0.00    +0.000 Cl
ENDBRANCH  11  12
ENDBRANCH   9  11
ENDBRANCH   4   7
BRANCH   1  19
ATOM     19  S   UNL     1       3.674   4.117  18.559  0.00  0.00    +0.000 S 
ATOM     20  O   UNL     1       3.439   3.247  19.694  0.00  0.00    +0.000 OA
ATOM     21  O   UNL     1       3.226   3.745  17.235  0.00  0.00    +0.000 OA
BRANCH  19  29
ATOM     22  C   UNL     1       0.277  11.620  20.108  0.00  0.00    +0.000 C 
ATOM     23  C   UNL     1       0.918  10.484  19.347  0.00  0.00    +0.000 C 
ATOM     24  O   UNL     1       1.363  10.713  18.223  0.00  0.00    +0.000 OA
ATOM     25  N   UNL     1       1.000   9.262  19.998  0.00  0.00    +0.000 N 
ATOM     26  C   UNL     1       1.693   8.134  19.496  0.00  0.00    +0.000 A 
ATOM     27  C   UNL     1       2.462   8.012  18.346  0.00  0.00    +0.000 A 
ATOM     28  C   UNL     1       3.079   6.784  18.065  0.00  0.00    +0.000 A 
ATOM     29  C   UNL     1       2.938   5.700  18.949  0.00  0.00    +0.000 A 
ATOM     30  C   UNL     1       2.138   5.816  20.089  0.00  0.00    +0.000 A 
ATOM     31  C   UNL     1       1.531   7.040  20.345  0.00  0.00    +0.000 A 
ATOM     32  C   UNL     1       0.636   7.365  21.493  0.00  0.00    +0.000 C 
ATOM     33  C   UNL     1       0.335   8.866  21.273  0.00  0.00    +0.000 C 
ATOM     34  C   UNL     1       0.818   9.664  22.475  0.00  0.00    +0.000 C 
ENDBRANCH  19  29
ENDBRANCH   1  19
TORSDOF 5
ENDMDL
MODEL 4
REMARK VINA RESULT:      -9.1      5.043     10.183
REMARK  Name = 
REMARK  7 active torsions:
REMARK  status: ('A' for Active; 'I' for Inactive)
REMARK    1  A    between atoms: C_1  and  C_2
REMARK    2  A    between atoms: C_8  and  S_9
REMARK    3  A    between atoms: S_9  and  N_12
REMARK    4  A    between atoms: C_15  and  C_16
REMARK    5  A    between atoms: N_18  and  C_19
REMARK    6  A    between atoms: C_19  and  C_20
REMARK    7  A    between atoms: C_32  and  C_33
REMARK                            x       y       z     vdW  Elec       q    Type
REMARK                         _______ _______ _______ _____ _____    ______ ____
ROOT
ATOM      1  N   UNL     1      -0.354  10.536  19.363  0.00  0.00    +0.000 NA
ATOM      2  C   UNL     1      -1.294   9.758  18.514  0.00  0.00    +0.000 C 
ATOM      3  C   UNL     1      -1.812  10.589  17.344  0.00  0.00    +0.000 C 
ATOM      4  C   UNL     1      -2.400  11.930  17.797  0.00  0.00    +0.000 C 
ATOM      5  C   UNL     1      -1.320  12.687  18.570  0.00  0.00    +0.000 C 
ATOM      6  C   UNL     1      -0.824  11.883  19.769  0.00  0.00    +0.000 C 
ENDROOT
BRANCH   4   7
ATOM      7  C   UNL     1      -3.683  11.744  18.612  0.00  0.00    +0.000 C 
ATOM      8  O   UNL     1      -4.441  10.793  18.449  0.00  0.00    +0.000 OA
ATOM      9  N   UNL     1      -3.930  12.740  19.528  0.00  0.00    +0.000 N 
ATOM     10  H   UNL     1      -3.379  13.589  19.505  0.00  0.00    +0.000 HD
BRANCH   9  11
ATOM     11  C   UNL     1      -5.137  12.766  20.329  0.00  0.00    +0.000 C 
BRANCH  11  12
ATOM     12  C   UNL     1      -4.861  12.763  21.813  0.00  0.00    +0.000 A 
ATOM     13  C   UNL     1      -3.540  12.573  22.250  0.00  0.00    +0.000 A 
ATOM     14  C   UNL     1      -3.250  12.444  23.609  0.00  0.00    +0.000 A 
ATOM     15  C   UNL     1      -4.248  12.580  24.564  0.00  0.00    +0.000 A 
ATOM     16  C   UNL     1      -5.552  12.789  24.156  0.00  0.00    +0.000 A 
ATOM     17  C   UNL     1      -5.868  12.861  22.788  0.00  0.00    +0.000 A 
ATOM     18 CL   UNL     1      -7.533  13.032  22.358  0.00  0.00    +0.000 Cl
ENDBRANCH  11  12
ENDBRANCH   9  11
ENDBRANCH   4   7
BRANCH   1  19
ATOM     19  S   UNL     1       0.409   9.626  20.609  0.00  0.00    +0.000 S 
ATOM     20  O   UNL     1      -0.616   8.858  21.287  0.00  0.00    +0.000 OA
ATOM     21  O   UNL     1       1.282  10.513  21.348  0.00  0.00    +0.000 OA
BRANCH  19  29
ATOM     22  C   UNL     1       5.363   4.386  16.338  0.00  0.00    +0.000 C 
ATOM     23  C   UNL     1       4.713   5.673  16.786  0.00  0.00    +0.000 C 
ATOM     24  O   UNL     1       4.860   6.675  16.087  0.00  0.00    +0.000 OA
ATOM     25  N   UNL     1       3.951   5.619  17.944  0.00  0.00    +0.000 N 
ATOM     26  C   UNL     1       3.157   6.688  18.428  0.00  0.00    +0.000 A 
ATOM     27  C   UNL     1       2.914   7.932  17.862  0.00  0.00    +0.000 A 
ATOM     28  C   UNL     1       2.062   8.829  18.525  0.00  0.00    +0.000 A 
ATOM     29  C   UNL     1       1.446   8.461  19.734  0.00  0.00    +0.000 A 
ATOM     30  C   UNL     1       1.718   7.220  20.317  0.00  0.00    +0.000 A 
ATOM     31  C   UNL     1       2.569   6.350  19.646  0.00  0.00    +0.000 A 
ATOM     32  C   UNL     1       2.993   4.994  20.102  0.00  0.00    +0.000 C 
ATOM     33  C   UNL     1       3.872   4.502  18.927  0.00  0.00    +0.000 C 
ATOM     34  C   UNL     1       3.275   3.229  18.344  0.00  0.00    +0.000 C 
ENDBRANCH  19  29
ENDBRANCH   1  19
TORSDOF 5
ENDMDL
MODEL 5
REMARK VINA RESULT:      -8.9      5.001     10.289
REMARK  Name = 
REMARK  7 active torsions:
REMARK  status: ('A' for Active; 'I' for Inactive)
REMARK    1  A    between atoms: C_1  and  C_2
REMARK    2  A    between atoms: C_8  and  S_9
REMARK    3  A    between atoms: S_9  and  N_12
REMARK    4  A    between atoms: C_15  and  C_16
REMARK    5  A    between atoms: N_18  and  C_19
REMARK    6  A    between atoms: C_19  and  C_20
REMARK    7  A    between atoms: C_32  and  C_33
REMARK                            x       y       z     vdW  Elec       q    Type
REMARK                         _______ _______ _______ _____ _____    ______ ____
ROOT
ATOM      1  N   UNL     1       0.469  10.362  20.165  0.00  0.00    +0.000 NA
ATOM      2  C   UNL     1      -0.862  10.406  19.505  0.00  0.00    +0.000 C 
ATOM      3  C   UNL     1      -0.951  11.547  18.496  0.00  0.00    +0.000 C 
ATOM      4  C   UNL     1      -0.550  12.896  19.104  0.00  0.00    +0.000 C 
ATOM      5  C   UNL     1       0.868  12.765  19.660  0.00  0.00    +0.000 C 
ATOM      6  C   UNL     1       0.959  11.655  20.703  0.00  0.00    +0.000 C 
ENDROOT
BRANCH   4   7
ATOM      7  C   UNL     1      -1.554  13.364  20.162  0.00  0.00    +0.000 C 
ATOM      8  O   UNL     1      -1.210  13.859  21.230  0.00  0.00    +0.000 OA
ATOM      9  N   UNL     1      -2.874  13.162  19.829  0.00  0.00    +0.000 N 
ATOM     10  H   UNL     1      -3.105  12.592  19.025  0.00  0.00    +0.000 HD
BRANCH   9  11
ATOM     11  C   UNL     1      -3.953  13.473  20.743  0.00  0.00    +0.000 C 
BRANCH  11  12
ATOM     12  C   UNL     1      -5.171  12.606  20.535  0.00  0.00    +0.000 A 
ATOM     13  C   UNL     1      -5.325  11.947  19.305  0.00  0.00    +0.000 A 
ATOM     14  C   UNL     1      -6.488  11.232  19.019  0.00  0.00    +0.000 A 
ATOM     15  C   UNL     1      -7.485  11.087  19.974  0.00  0.00    +0.000 A 
ATOM     16  C   UNL     1      -7.344  11.709  21.200  0.00  0.00    +0.000 A 
ATOM     17  C   UNL     1      -6.205  12.483  21.480  0.00  0.00    +0.000 A 
ATOM     18 CL   UNL     1      -6.146  13.303  23.000  0.00  0.00    +0.000 Cl
ENDBRANCH  11  12
ENDBRANCH   9  11
ENDBRANCH   4   7
BRANCH   1  19
ATOM     19  S   UNL     1       0.716   9.005  21.195  0.00  0.00    +0.000 S 
ATOM     20  O   UNL     1      -0.580   8.414  21.465  0.00  0.00    +0.000 OA
ATOM     21  O   UNL     1       1.586   9.410  22.278  0.00  0.00    +0.000 OA
BRANCH  19  29
ATOM     22  C   UNL     1       5.078   3.782  16.304  0.00  0.00    +0.000 C 
ATOM     23  C   UNL     1       4.549   5.072  16.883  0.00  0.00    +0.000 C 
ATOM     24  O   UNL     1       4.751   6.115  16.262  0.00  0.00    +0.000 OA
ATOM     25  N   UNL     1       3.827   4.979  18.064  0.00  0.00    +0.000 N 
ATOM     26  C   UNL     1       3.140   6.060  18.667  0.00  0.00    +0.000 A 
ATOM     27  C   UNL     1       2.977   7.363  18.215  0.00  0.00    +0.000 A 
ATOM     28  C   UNL     1       2.223   8.263  18.985  0.00  0.00    +0.000 A 
ATOM     29  C   UNL     1       1.624   7.842  20.184  0.00  0.00    +0.000 A 
ATOM     30  C   UNL     1       1.816   6.539  20.652  0.00  0.00    +0.000 A 
ATOM     31  C   UNL     1       2.571   5.666  19.877  0.00  0.00    +0.000 A 
ATOM     32  C   UNL     1       2.900   4.248  20.202  0.00  0.00    +0.000 C 
ATOM     33  C   UNL     1       3.694   3.791  18.955  0.00  0.00    +0.000 C 
ATOM     34  C   UNL     1       2.977   2.622  18.295  0.00  0.00    +0.000 C 
ENDBRANCH  19  29
ENDBRANCH   1  19
TORSDOF 5
ENDMDL
MODEL 6
REMARK VINA RESULT:      -8.9      1.558      2.186
REMARK  Name = 
REMARK  7 active torsions:
REMARK  status: ('A' for Active; 'I' for Inactive)
REMARK    1  A    between atoms: C_1  and  C_2
REMARK    2  A    between atoms: C_8  and  S_9
REMARK    3  A    between atoms: S_9  and  N_12
REMARK    4  A    between atoms: C_15  and  C_16
REMARK    5  A    between atoms: N_18  and  C_19
REMARK    6  A    between atoms: C_19  and  C_20
REMARK    7  A    between atoms: C_32  and  C_33
REMARK                            x       y       z     vdW  Elec       q    Type
REMARK                         _______ _______ _______ _____ _____    ______ ____
ROOT
ATOM      1  N   UNL     1       5.475   4.832  18.014  0.00  0.00    +0.000 NA
ATOM      2  C   UNL     1       5.745   5.446  16.687  0.00  0.00    +0.000 C 
ATOM      3  C   UNL     1       7.242   5.608  16.438  0.00  0.00    +0.000 C 
ATOM      4  C   UNL     1       7.947   6.344  17.583  0.00  0.00    +0.000 C 
ATOM      5  C   UNL     1       7.686   5.573  18.877  0.00  0.00    +0.000 C 
ATOM      6  C   UNL     1       6.193   5.442  19.159  0.00  0.00    +0.000 C 
ENDROOT
BRANCH   4   7
ATOM      7  C   UNL     1       7.507   7.809  17.675  0.00  0.00    +0.000 C 
ATOM      8  O   UNL     1       6.440   8.210  17.222  0.00  0.00    +0.000 OA
ATOM      9  N   UNL     1       8.415   8.643  18.286  0.00  0.00    +0.000 N 
ATOM     10  H   UNL     1       9.349   8.307  18.482  0.00  0.00    +0.000 HD
BRANCH   9  11
ATOM     11  C   UNL     1       8.198  10.071  18.389  0.00  0.00    +0.000 C 
BRANCH  11  12
ATOM     12  C   UNL     1       9.455  10.837  18.721  0.00  0.00    +0.000 A 
ATOM     13  C   UNL     1      10.354  11.134  17.685  0.00  0.00    +0.000 A 
ATOM     14  C   UNL     1      11.585  11.733  17.958  0.00  0.00    +0.000 A 
ATOM     15  C   UNL     1      11.913  12.123  19.250  0.00  0.00    +0.000 A 
ATOM     16  C   UNL     1      11.032  11.859  20.281  0.00  0.00    +0.000 A 
ATOM     17  C   UNL     1       9.816  11.202  20.030  0.00  0.00    +0.000 A 
ATOM     18 CL   UNL     1       8.812  10.827  21.385  0.00  0.00    +0.000 Cl
ENDBRANCH  11  12
ENDBRANCH   9  11
ENDBRANCH   4   7
BRANCH   1  19
ATOM     19  S   UNL     1       3.820   4.458  18.307  0.00  0.00    +0.000 S 
ATOM     20  O   UNL     1       3.760   3.618  19.487  0.00  0.00    +0.000 OA
ATOM     21  O   UNL     1       3.224   4.029  17.061  0.00  0.00    +0.000 OA
BRANCH  19  29
ATOM     22  C   UNL     1       0.407  11.907  20.065  0.00  0.00    +0.000 C 
ATOM     23  C   UNL     1       1.039  10.790  19.270  0.00  0.00    +0.000 C 
ATOM     24  O   UNL     1       1.458  11.042  18.141  0.00  0.00    +0.000 OA
ATOM     25  N   UNL     1       1.143   9.557  19.897  0.00  0.00    +0.000 N 
ATOM     26  C   UNL     1       1.832   8.443  19.359  0.00  0.00    +0.000 A 
ATOM     27  C   UNL     1       2.577   8.348  18.191  0.00  0.00    +0.000 A 
ATOM     28  C   UNL     1       3.197   7.128  17.875  0.00  0.00    +0.000 A 
ATOM     29  C   UNL     1       3.082   6.028  18.742  0.00  0.00    +0.000 A 
ATOM     30  C   UNL     1       2.305   6.118  19.901  0.00  0.00    +0.000 A 
ATOM     31  C   UNL     1       1.696   7.333  20.191  0.00  0.00    +0.000 A 
ATOM     32  C   UNL     1       0.824   7.630  21.364  0.00  0.00    +0.000 C 
ATOM     33  C   UNL     1       0.508   9.133  21.178  0.00  0.00    +0.000 C 
ATOM     34  C   UNL     1       1.011   9.912  22.384  0.00  0.00    +0.000 C 
ENDBRANCH  19  29
ENDBRANCH   1  19
TORSDOF 5
ENDMDL
MODEL 7
REMARK VINA RESULT:      -8.7      4.954      9.980
REMARK  Name = 
REMARK  7 active torsions:
REMARK  status: ('A' for Active; 'I' for Inactive)
REMARK    1  A    between atoms: C_1  and  C_2
REMARK    2  A    between atoms: C_8  and  S_9
REMARK    3  A    between atoms: S_9  and  N_12
REMARK    4  A    between atoms: C_15  and  C_16
REMARK    5  A    between atoms: N_18  and  C_19
REMARK    6  A    between atoms: C_19  and  C_20
REMARK    7  A    between atoms: C_32  and  C_33
REMARK                            x       y       z     vdW  Elec       q    Type
REMARK                         _______ _______ _______ _____ _____    ______ ____
ROOT
ATOM      1  N   UNL     1      -0.376  10.708  19.484  0.00  0.00    +0.000 NA
ATOM      2  C   UNL     1      -1.325   9.751  18.855  0.00  0.00    +0.000 C 
ATOM      3  C   UNL     1      -1.835  10.268  17.513  0.00  0.00    +0.000 C 
ATOM      4  C   UNL     1      -2.410  11.686  17.615  0.00  0.00    +0.000 C 
ATOM      5  C   UNL     1      -1.322  12.601  18.177  0.00  0.00    +0.000 C 
ATOM      6  C   UNL     1      -0.834  12.118  19.539  0.00  0.00    +0.000 C 
ENDROOT
BRANCH   4   7
ATOM      7  C   UNL     1      -3.694  11.721  18.449  0.00  0.00    +0.000 C 
ATOM      8  O   UNL     1      -4.601  10.908  18.305  0.00  0.00    +0.000 OA
ATOM      9  N   UNL     1      -3.760  12.752  19.357  0.00  0.00    +0.000 N 
ATOM     10  H   UNL     1      -3.076  13.497  19.318  0.00  0.00    +0.000 HD
BRANCH   9  11
ATOM     11  C   UNL     1      -4.934  12.984  20.173  0.00  0.00    +0.000 C 
BRANCH  11  12
ATOM     12  C   UNL     1      -4.654  12.883  21.653  0.00  0.00    +0.000 A 
ATOM     13  C   UNL     1      -3.354  12.555  22.069  0.00  0.00    +0.000 A 
ATOM     14  C   UNL     1      -3.071  12.333  23.418  0.00  0.00    +0.000 A 
ATOM     15  C   UNL     1      -4.050  12.510  24.386  0.00  0.00    +0.000 A 
ATOM     16  C   UNL     1      -5.331  12.854  23.999  0.00  0.00    +0.000 A 
ATOM     17  C   UNL     1      -5.645  13.022  22.640  0.00  0.00    +0.000 A 
ATOM     18 CL   UNL     1      -7.289  13.362  22.232  0.00  0.00    +0.000 Cl
ENDBRANCH  11  12
ENDBRANCH   9  11
ENDBRANCH   4   7
BRANCH   1  19
ATOM     19  S   UNL     1       0.379  10.131  20.919  0.00  0.00    +0.000 S 
ATOM     20  O   UNL     1      -0.667   9.709  21.830  0.00  0.00    +0.000 OA
ATOM     21  O   UNL     1       1.373  11.099  21.329  0.00  0.00    +0.000 OA
BRANCH  19  29
ATOM     22  C   UNL     1       4.294   3.068  18.678  0.00  0.00    +0.000 C 
ATOM     23  C   UNL     1       3.324   3.990  19.376  0.00  0.00    +0.000 C 
ATOM     24  O   UNL     1       2.690   3.552  20.335  0.00  0.00    +0.000 OA
ATOM     25  N   UNL     1       3.251   5.293  18.906  0.00  0.00    +0.000 N 
ATOM     26  C   UNL     1       2.507   6.326  19.528  0.00  0.00    +0.000 A 
ATOM     27  C   UNL     1       1.782   6.299  20.712  0.00  0.00    +0.000 A 
ATOM     28  C   UNL     1       1.140   7.470  21.145  0.00  0.00    +0.000 A 
ATOM     29  C   UNL     1       1.248   8.657  20.400  0.00  0.00    +0.000 A 
ATOM     30  C   UNL     1       1.952   8.672  19.192  0.00  0.00    +0.000 A 
ATOM     31  C   UNL     1       2.576   7.500  18.780  0.00  0.00    +0.000 A 
ATOM     32  C   UNL     1       3.361   7.306  17.526  0.00  0.00    +0.000 C 
ATOM     33  C   UNL     1       3.847   5.842  17.655  0.00  0.00    +0.000 C 
ATOM     34  C   UNL     1       5.368   5.809  17.649  0.00  0.00    +0.000 C 
ENDBRANCH  19  29
ENDBRANCH   1  19
TORSDOF 5
ENDMDL
MODEL 8
REMARK VINA RESULT:      -8.5      5.154     10.481
REMARK  Name = 
REMARK  7 active torsions:
REMARK  status: ('A' for Active; 'I' for Inactive)
REMARK    1  A    between atoms: C_1  and  C_2
REMARK    2  A    between atoms: C_8  and  S_9
REMARK    3  A    between atoms: S_9  and  N_12
REMARK    4  A    between atoms: C_15  and  C_16
REMARK    5  A    between atoms: N_18  and  C_19
REMARK    6  A    between atoms: C_19  and  C_20
REMARK    7  A    between atoms: C_32  and  C_33
REMARK                            x       y       z     vdW  Elec       q    Type
REMARK                         _______ _______ _______ _____ _____    ______ ____
ROOT
ATOM      1  N   UNL     1       0.357  10.386  20.401  0.00  0.00    +0.000 NA
ATOM      2  C   UNL     1      -0.867  10.201  19.577  0.00  0.00    +0.000 C 
ATOM      3  C   UNL     1      -0.994  11.285  18.511  0.00  0.00    +0.000 C 
ATOM      4  C   UNL     1      -0.888  12.697  19.099  0.00  0.00    +0.000 C 
ATOM      5  C   UNL     1       0.447  12.807  19.835  0.00  0.00    +0.000 C 
ATOM      6  C   UNL     1       0.568  11.755  20.934  0.00  0.00    +0.000 C 
ENDROOT
BRANCH   4   7
ATOM      7  C   UNL     1      -2.083  13.031  19.998  0.00  0.00    +0.000 C 
ATOM      8  O   UNL     1      -1.970  13.655  21.047  0.00  0.00    +0.000 OA
ATOM      9  N   UNL     1      -3.291  12.553  19.545  0.00  0.00    +0.000 N 
ATOM     10  H   UNL     1      -3.313  11.896  18.776  0.00  0.00    +0.000 HD
BRANCH   9  11
ATOM     11  C   UNL     1      -4.513  12.708  20.307  0.00  0.00    +0.000 C 
BRANCH  11  12
ATOM     12  C   UNL     1      -5.717  12.991  19.442  0.00  0.00    +0.000 A 
ATOM     13  C   UNL     1      -5.726  12.507  18.125  0.00  0.00    +0.000 A 
ATOM     14  C   UNL     1      -6.759  12.842  17.249  0.00  0.00    +0.000 A 
ATOM     15  C   UNL     1      -7.842  13.594  17.683  0.00  0.00    +0.000 A 
ATOM     16  C   UNL     1      -7.864  14.062  18.983  0.00  0.00    +0.000 A 
ATOM     17  C   UNL     1      -6.801  13.783  19.859  0.00  0.00    +0.000 A 
ATOM     18 CL   UNL     1      -6.859  14.482  21.438  0.00  0.00    +0.000 Cl
ENDBRANCH  11  12
ENDBRANCH   9  11
ENDBRANCH   4   7
BRANCH   1  19
ATOM     19  S   UNL     1       0.668   9.115  21.519  0.00  0.00    +0.000 S 
ATOM     20  O   UNL     1      -0.609   8.599  21.970  0.00  0.00    +0.000 OA
ATOM     21  O   UNL     1       1.658   9.578  22.468  0.00  0.00    +0.000 OA
BRANCH  19  29
ATOM     22  C   UNL     1       4.399   3.326  16.742  0.00  0.00    +0.000 C 
ATOM     23  C   UNL     1       4.053   4.677  17.322  0.00  0.00    +0.000 C 
ATOM     24  O   UNL     1       4.453   5.683  16.737  0.00  0.00    +0.000 OA
ATOM     25  N   UNL     1       3.261   4.684  18.461  0.00  0.00    +0.000 N 
ATOM     26  C   UNL     1       2.724   5.854  19.053  0.00  0.00    +0.000 A 
ATOM     27  C   UNL     1       2.797   7.172  18.623  0.00  0.00    +0.000 A 
ATOM     28  C   UNL     1       2.156   8.170  19.373  0.00  0.00    +0.000 A 
ATOM     29  C   UNL     1       1.432   7.835  20.530  0.00  0.00    +0.000 A 
ATOM     30  C   UNL     1       1.387   6.511  20.977  0.00  0.00    +0.000 A 
ATOM     31  C   UNL     1       2.034   5.539  20.222  0.00  0.00    +0.000 A 
ATOM     32  C   UNL     1       2.113   4.083  20.531  0.00  0.00    +0.000 C 
ATOM     33  C   UNL     1       2.891   3.521  19.317  0.00  0.00    +0.000 C 
ATOM     34  C   UNL     1       2.033   2.493  18.594  0.00  0.00    +0.000 C 
ENDBRANCH  19  29
ENDBRANCH   1  19
TORSDOF 5
ENDMDL
MODEL 9
REMARK VINA RESULT:      -8.4      4.721     10.365
REMARK  Name = 
REMARK  7 active torsions:
REMARK  status: ('A' for Active; 'I' for Inactive)
REMARK    1  A    between atoms: C_1  and  C_2
REMARK    2  A    between atoms: C_8  and  S_9
REMARK    3  A    between atoms: S_9  and  N_12
REMARK    4  A    between atoms: C_15  and  C_16
REMARK    5  A    between atoms: N_18  and  C_19
REMARK    6  A    between atoms: C_19  and  C_20
REMARK    7  A    between atoms: C_32  and  C_33
REMARK                            x       y       z     vdW  Elec       q    Type
REMARK                         _______ _______ _______ _____ _____    ______ ____
ROOT
ATOM      1  N   UNL     1       0.193  10.381  20.322  0.00  0.00    +0.000 NA
ATOM      2  C   UNL     1      -1.029  10.197  19.496  0.00  0.00    +0.000 C 
ATOM      3  C   UNL     1      -1.262  11.385  18.567  0.00  0.00    +0.000 C 
ATOM      4  C   UNL     1      -1.254  12.722  19.318  0.00  0.00    +0.000 C 
ATOM      5  C   UNL     1       0.084  12.850  20.046  0.00  0.00    +0.000 C 
ATOM      6  C   UNL     1       0.308  11.689  21.010  0.00  0.00    +0.000 C 
ENDROOT
BRANCH   4   7
ATOM      7  C   UNL     1      -2.452  12.851  20.263  0.00  0.00    +0.000 C 
ATOM      8  O   UNL     1      -2.378  12.614  21.464  0.00  0.00    +0.000 OA
ATOM      9  N   UNL     1      -3.625  13.233  19.653  0.00  0.00    +0.000 N 
ATOM     10  H   UNL     1      -3.683  13.244  18.643  0.00  0.00    +0.000 HD
BRANCH   9  11
ATOM     11  C   UNL     1      -4.873  13.329  20.381  0.00  0.00    +0.000 C 
BRANCH  11  12
ATOM     12  C   UNL     1      -5.806  12.174  20.108  0.00  0.00    +0.000 A 
ATOM     13  C   UNL     1      -6.669  11.753  21.132  0.00  0.00    +0.000 A 
ATOM     14  C   UNL     1      -7.464  10.617  20.972  0.00  0.00    +0.000 A 
ATOM     15  C   UNL     1      -7.479   9.925  19.768  0.00  0.00    +0.000 A 
ATOM     16  C   UNL     1      -6.654  10.337  18.740  0.00  0.00    +0.000 A 
ATOM     17  C   UNL     1      -5.803  11.443  18.908  0.00  0.00    +0.000 A 
ATOM     18 CL   UNL     1      -4.735  11.838  17.608  0.00  0.00    +0.000 Cl
ENDBRANCH  11  12
ENDBRANCH   9  11
ENDBRANCH   4   7
BRANCH   1  19
ATOM     19  S   UNL     1       0.626   9.015  21.277  0.00  0.00    +0.000 S 
ATOM     20  O   UNL     1      -0.589   8.286  21.582  0.00  0.00    +0.000 OA
ATOM     21  O   UNL     1       1.508   9.462  22.333  0.00  0.00    +0.000 OA
BRANCH  19  29
ATOM     22  C   UNL     1       5.231   4.459  15.959  0.00  0.00    +0.000 C 
ATOM     23  C   UNL     1       4.627   5.666  16.636  0.00  0.00    +0.000 C 
ATOM     24  O   UNL     1       4.743   6.761  16.087  0.00  0.00    +0.000 OA
ATOM     25  N   UNL     1       3.939   5.442  17.819  0.00  0.00    +0.000 N 
ATOM     26  C   UNL     1       3.192   6.428  18.508  0.00  0.00    +0.000 A 
ATOM     27  C   UNL     1       2.930   7.744  18.151  0.00  0.00    +0.000 A 
ATOM     28  C   UNL     1       2.133   8.534  18.995  0.00  0.00    +0.000 A 
ATOM     29  C   UNL     1       1.590   7.991  20.172  0.00  0.00    +0.000 A 
ATOM     30  C   UNL     1       1.881   6.675  20.544  0.00  0.00    +0.000 A 
ATOM     31  C   UNL     1       2.677   5.913  19.697  0.00  0.00    +0.000 A 
ATOM     32  C   UNL     1       3.110   4.503  19.916  0.00  0.00    +0.000 C 
ATOM     33  C   UNL     1       3.907   4.189  18.627  0.00  0.00    +0.000 C 
ATOM     34  C   UNL     1       3.258   3.021  17.899  0.00  0.00    +0.000 C 
ENDBRANCH  19  29
ENDBRANCH   1  19
TORSDOF 5
ENDMDL
