MODEL 1
REMARK VINA RESULT:      -6.6      0.000      0.000
REMARK  Name = 
REMARK  7 active torsions:
REMARK  status: ('A' for Active; 'I' for Inactive)
REMARK    1  A    between atoms: C_1  and  C_2
REMARK    2  A    between atoms: C_2  and  C_3
REMARK    3  A    between atoms: C_2  and  C_4
REMARK    4  A    between atoms: C_2  and  N_6
REMARK    5  A    between atoms: C_4  and  N_5
REMARK    6  A    between atoms: N_6  and  S_7
REMARK    7  A    between atoms: S_7  and  C_10
REMARK                            x       y       z     vdW  Elec       q    Type
REMARK                         _______ _______ _______ _____ _____    ______ ____
ROOT
ATOM      1  S   UNL     1       4.272   3.234  19.132  0.00  0.00    +0.000 S 
ATOM      2  O   UNL     1       5.163   2.398  20.062  0.00  0.00    +0.000 OA
ATOM      3  O   UNL     1       3.367   2.146  18.534  0.00  0.00    +0.000 OA
ENDROOT
BRANCH   1   4
ATOM      4  C   UNL     1       5.298   4.107  17.949  0.00  0.00    +0.000 A 
ATOM      5  C   UNL     1       5.150   3.863  16.579  0.00  0.00    +0.000 A 
ATOM      6  C   UNL     1       5.925   4.565  15.654  0.00  0.00    +0.000 A 
ATOM      7  C   UNL     1       6.850   5.517  16.098  0.00  0.00    +0.000 A 
ATOM      8  C   UNL     1       7.002   5.763  17.465  0.00  0.00    +0.000 A 
ATOM      9  F   UNL     1       7.898   6.686  17.892  0.00  0.00    +0.000 F 
ATOM     10  C   UNL     1       6.228   5.060  18.392  0.00  0.00    +0.000 A 
ATOM     11  F   UNL     1       6.369   5.312  19.719  0.00  0.00    +0.000 F 
ENDBRANCH   1   4
BRANCH   1  12
ATOM     12  N   UNL     1       3.282   4.199  20.259  0.00  0.00    +0.000 NA
ATOM     13  H   UNL     1       3.159   3.649  21.141  0.00  0.00    +0.000 HD
BRANCH  12  15
ATOM     14  C   UNL     1       1.688   6.009  20.532  0.00  0.00    +0.000 C 
ATOM     15  C   UNL     1       1.974   4.702  19.767  0.00  0.00    +0.000 C 
ATOM     16  C   UNL     1       0.842   3.698  20.081  0.00  0.00    +0.000 C 
BRANCH  15  17
ATOM     17  C   UNL     1       2.038   5.013  18.242  0.00  0.00    +0.000 C 
BRANCH  17  18
ATOM     18  N   UNL     1       1.225   4.095  17.442  0.00  0.00    +0.000 NA
ATOM     19  H   UNL     1       1.417   3.112  17.739  0.00  0.00    +0.000 HD
ATOM     20  H   UNL     1       1.532   4.170  16.446  0.00  0.00    +0.000 HD
ENDBRANCH  17  18
ENDBRANCH  15  17
ENDBRANCH  12  15
ENDBRANCH   1  12
TORSDOF 5
ENDMDL
MODEL 2
REMARK VINA RESULT:      -6.4      3.125      5.669
REMARK  Name = 
REMARK  7 active torsions:
REMARK  status: ('A' for Active; 'I' for Inactive)
REMARK    1  A    between atoms: C_1  and  C_2
REMARK    2  A    between atoms: C_2  and  C_3
REMARK    3  A    between atoms: C_2  and  C_4
REMARK    4  A    between atoms: C_2  and  N_6
REMARK    5  A    between atoms: C_4  and  N_5
REMARK    6  A    between atoms: N_6  and  S_7
REMARK    7  A    between atoms: S_7  and  C_10
REMARK                            x       y       z     vdW  Elec       q    Type
REMARK                         _______ _______ _______ _____ _____    ______ ____
ROOT
ATOM      1  S   UNL     1       4.814   4.459  18.343  0.00  0.00    +0.000 S 
ATOM      2  O   UNL     1       5.940   3.931  19.243  0.00  0.00    +0.000 OA
ATOM      3  O   UNL     1       5.162   5.955  18.284  0.00  0.00    +0.000 OA
ENDROOT
BRANCH   1   4
ATOM      4  C   UNL     1       3.227   4.075  19.083  0.00  0.00    +0.000 A 
ATOM      5  C   UNL     1       2.800   4.766  20.222  0.00  0.00    +0.000 A 
ATOM      6  C   UNL     1       1.551   4.491  20.783  0.00  0.00    +0.000 A 
ATOM      7  C   UNL     1       0.723   3.524  20.200  0.00  0.00    +0.000 A 
ATOM      8  C   UNL     1       1.146   2.830  19.065  0.00  0.00    +0.000 A 
ATOM      9  F   UNL     1       0.343   1.894  18.503  0.00  0.00    +0.000 F 
ATOM     10  C   UNL     1       2.397   3.103  18.504  0.00  0.00    +0.000 A 
ATOM     11  F   UNL     1       2.799   2.436  17.391  0.00  0.00    +0.000 F 
ENDBRANCH   1   4
BRANCH   1  12
ATOM     12  N   UNL     1       5.190   3.756  16.748  0.00  0.00    +0.000 NA
ATOM     13  H   UNL     1       5.642   2.823  16.899  0.00  0.00    +0.000 HD
BRANCH  12  15
ATOM     14  C   UNL     1       5.180   5.866  15.550  0.00  0.00    +0.000 C 
ATOM     15  C   UNL     1       5.987   4.578  15.804  0.00  0.00    +0.000 C 
ATOM     16  C   UNL     1       6.173   3.848  14.455  0.00  0.00    +0.000 C 
BRANCH  15  17
ATOM     17  C   UNL     1       7.363   4.960  16.428  0.00  0.00    +0.000 C 
BRANCH  17  18
ATOM     18  N   UNL     1       7.544   6.406  16.559  0.00  0.00    +0.000 NA
ATOM     19  H   UNL     1       8.476   6.676  16.171  0.00  0.00    +0.000 HD
ATOM     20  H   UNL     1       7.567   6.642  17.577  0.00  0.00    +0.000 HD
ENDBRANCH  17  18
ENDBRANCH  15  17
ENDBRANCH  12  15
ENDBRANCH   1  12
TORSDOF 5
ENDMDL
MODEL 3
REMARK VINA RESULT:      -6.3      2.124      2.437
REMARK  Name = 
REMARK  7 active torsions:
REMARK  status: ('A' for Active; 'I' for Inactive)
REMARK    1  A    between atoms: C_1  and  C_2
REMARK    2  A    between atoms: C_2  and  C_3
REMARK    3  A    between atoms: C_2  and  C_4
REMARK    4  A    between atoms: C_2  and  N_6
REMARK    5  A    between atoms: C_4  and  N_5
REMARK    6  A    between atoms: N_6  and  S_7
REMARK    7  A    between atoms: S_7  and  C_10
REMARK                            x       y       z     vdW  Elec       q    Type
REMARK                         _______ _______ _______ _____ _____    ______ ____
ROOT
ATOM      1  S   UNL     1       2.997   5.168  18.445  0.00  0.00    +0.000 S 
ATOM      2  O   UNL     1       1.901   4.573  17.550  0.00  0.00    +0.000 OA
ATOM      3  O   UNL     1       2.582   6.647  18.476  0.00  0.00    +0.000 OA
ENDROOT
BRANCH   1   4
ATOM      4  C   UNL     1       4.603   4.842  17.717  0.00  0.00    +0.000 A 
ATOM      5  C   UNL     1       4.692   4.331  16.418  0.00  0.00    +0.000 A 
ATOM      6  C   UNL     1       5.942   4.106  15.837  0.00  0.00    +0.000 A 
ATOM      7  C   UNL     1       7.107   4.398  16.554  0.00  0.00    +0.000 A 
ATOM      8  C   UNL     1       7.024   4.908  17.852  0.00  0.00    +0.000 A 
ATOM      9  F   UNL     1       8.154   5.191  18.544  0.00  0.00    +0.000 F 
ATOM     10  C   UNL     1       5.773   5.132  18.436  0.00  0.00    +0.000 A 
ATOM     11  F   UNL     1       5.695   5.640  19.692  0.00  0.00    +0.000 F 
ENDBRANCH   1   4
BRANCH   1  12
ATOM     12  N   UNL     1       2.647   4.476  20.051  0.00  0.00    +0.000 NA
ATOM     13  H   UNL     1       3.293   4.917  20.747  0.00  0.00    +0.000 HD
BRANCH  12  15
ATOM     14  C   UNL     1       2.189   2.673  21.610  0.00  0.00    +0.000 C 
ATOM     15  C   UNL     1       2.666   2.997  20.181  0.00  0.00    +0.000 C 
ATOM     16  C   UNL     1       4.100   2.446  20.011  0.00  0.00    +0.000 C 
BRANCH  15  17
ATOM     17  C   UNL     1       1.690   2.338  19.161  0.00  0.00    +0.000 C 
BRANCH  17  18
ATOM     18  N   UNL     1       2.387   1.606  18.102  0.00  0.00    +0.000 NA
ATOM     19  H   UNL     1       2.450   0.595  18.362  0.00  0.00    +0.000 HD
ATOM     20  H   UNL     1       3.368   1.961  18.049  0.00  0.00    +0.000 HD
ENDBRANCH  17  18
ENDBRANCH  15  17
ENDBRANCH  12  15
ENDBRANCH   1  12
TORSDOF 5
ENDMDL
MODEL 4
REMARK VINA RESULT:      -6.3      2.058      2.568
REMARK  Name = 
REMARK  7 active torsions:
REMARK  status: ('A' for Active; 'I' for Inactive)
REMARK    1  A    between atoms: C_1  and  C_2
REMARK    2  A    between atoms: C_2  and  C_3
REMARK    3  A    between atoms: C_2  and  C_4
REMARK    4  A    between atoms: C_2  and  N_6
REMARK    5  A    between atoms: C_4  and  N_5
REMARK    6  A    between atoms: N_6  and  S_7
REMARK    7  A    between atoms: S_7  and  C_10
REMARK                            x       y       z     vdW  Elec       q    Type
REMARK                         _______ _______ _______ _____ _____    ______ ____
ROOT
ATOM      1  S   UNL     1       2.934   4.902  18.118  0.00  0.00    +0.000 S 
ATOM      2  O   UNL     1       1.982   4.053  17.264  0.00  0.00    +0.000 OA
ATOM      3  O   UNL     1       2.328   6.302  17.931  0.00  0.00    +0.000 OA
ENDROOT
BRANCH   1   4
ATOM      4  C   UNL     1       4.610   4.711  17.512  0.00  0.00    +0.000 A 
ATOM      5  C   UNL     1       4.837   4.225  16.219  0.00  0.00    +0.000 A 
ATOM      6  C   UNL     1       6.140   4.105  15.734  0.00  0.00    +0.000 A 
ATOM      7  C   UNL     1       7.223   4.476  16.540  0.00  0.00    +0.000 A 
ATOM      8  C   UNL     1       7.002   4.960  17.832  0.00  0.00    +0.000 A 
ATOM      9  F   UNL     1       8.051   5.319  18.610  0.00  0.00    +0.000 F 
ATOM     10  C   UNL     1       5.697   5.079  18.320  0.00  0.00    +0.000 A 
ATOM     11  F   UNL     1       5.486   5.563  19.571  0.00  0.00    +0.000 F 
ENDBRANCH   1   4
BRANCH   1  12
ATOM     12  N   UNL     1       2.578   4.379  19.785  0.00  0.00    +0.000 NA
ATOM     13  H   UNL     1       3.288   4.811  20.423  0.00  0.00    +0.000 HD
BRANCH  12  15
ATOM     14  C   UNL     1       1.088   2.485  19.499  0.00  0.00    +0.000 C 
ATOM     15  C   UNL     1       2.464   2.920  20.038  0.00  0.00    +0.000 C 
ATOM     16  C   UNL     1       2.511   2.617  21.553  0.00  0.00    +0.000 C 
BRANCH  15  17
ATOM     17  C   UNL     1       3.576   2.138  19.277  0.00  0.00    +0.000 C 
BRANCH  17  18
ATOM     18  N   UNL     1       4.830   2.062  20.027  0.00  0.00    +0.000 NA
ATOM     19  H   UNL     1       4.700   2.500  20.968  0.00  0.00    +0.000 HD
ATOM     20  H   UNL     1       5.546   2.639  19.528  0.00  0.00    +0.000 HD
ENDBRANCH  17  18
ENDBRANCH  15  17
ENDBRANCH  12  15
ENDBRANCH   1  12
TORSDOF 5
ENDMDL
MODEL 5
REMARK VINA RESULT:      -6.3      1.425      1.863
REMARK  Name = 
REMARK  7 active torsions:
REMARK  status: ('A' for Active; 'I' for Inactive)
REMARK    1  A    between atoms: C_1  and  C_2
REMARK    2  A    between atoms: C_2  and  C_3
REMARK    3  A    between atoms: C_2  and  C_4
REMARK    4  A    between atoms: C_2  and  N_6
REMARK    5  A    between atoms: C_4  and  N_5
REMARK    6  A    between atoms: N_6  and  S_7
REMARK    7  A    between atoms: S_7  and  C_10
REMARK                            x       y       z     vdW  Elec       q    Type
REMARK                         _______ _______ _______ _____ _____    ______ ____
ROOT
ATOM      1  S   UNL     1       4.361   3.271  19.232  0.00  0.00    +0.000 S 
ATOM      2  O   UNL     1       5.191   2.314  20.099  0.00  0.00    +0.000 OA
ATOM      3  O   UNL     1       3.619   2.278  18.326  0.00  0.00    +0.000 OA
ENDROOT
BRANCH   1   4
ATOM      4  C   UNL     1       5.456   4.407  18.382  0.00  0.00    +0.000 A 
ATOM      5  C   UNL     1       6.383   5.163  19.108  0.00  0.00    +0.000 A 
ATOM      6  C   UNL     1       7.259   6.025  18.445  0.00  0.00    +0.000 A 
ATOM      7  C   UNL     1       7.213   6.129  17.050  0.00  0.00    +0.000 A 
ATOM      8  C   UNL     1       6.288   5.377  16.320  0.00  0.00    +0.000 A 
ATOM      9  F   UNL     1       6.245   5.480  14.970  0.00  0.00    +0.000 F 
ATOM     10  C   UNL     1       5.409   4.516  16.983  0.00  0.00    +0.000 A 
ATOM     11  F   UNL     1       4.521   3.777  16.270  0.00  0.00    +0.000 F 
ENDBRANCH   1   4
BRANCH   1  12
ATOM     12  N   UNL     1       3.173   3.948  20.377  0.00  0.00    +0.000 NA
ATOM     13  H   UNL     1       3.004   3.240  21.131  0.00  0.00    +0.000 HD
BRANCH  12  15
ATOM     14  C   UNL     1       1.489   5.672  20.659  0.00  0.00    +0.000 C 
ATOM     15  C   UNL     1       1.887   4.441  19.823  0.00  0.00    +0.000 C 
ATOM     16  C   UNL     1       0.778   3.375  19.968  0.00  0.00    +0.000 C 
BRANCH  15  17
ATOM     17  C   UNL     1       2.056   4.873  18.336  0.00  0.00    +0.000 C 
BRANCH  17  18
ATOM     18  N   UNL     1       1.270   4.051  17.414  0.00  0.00    +0.000 NA
ATOM     19  H   UNL     1       1.338   3.048  17.699  0.00  0.00    +0.000 HD
ATOM     20  H   UNL     1       1.702   4.120  16.465  0.00  0.00    +0.000 HD
ENDBRANCH  17  18
ENDBRANCH  15  17
ENDBRANCH  12  15
ENDBRANCH   1  12
TORSDOF 5
ENDMDL
MODEL 6
REMARK VINA RESULT:      -6.3      0.849      1.495
REMARK  Name = 
REMARK  7 active torsions:
REMARK  status: ('A' for Active; 'I' for Inactive)
REMARK    1  A    between atoms: C_1  and  C_2
REMARK    2  A    between atoms: C_2  and  C_3
REMARK    3  A    between atoms: C_2  and  C_4
REMARK    4  A    between atoms: C_2  and  N_6
REMARK    5  A    between atoms: C_4  and  N_5
REMARK    6  A    between atoms: N_6  and  S_7
REMARK    7  A    between atoms: S_7  and  C_10
REMARK                            x       y       z     vdW  Elec       q    Type
REMARK                         _______ _______ _______ _____ _____    ______ ____
ROOT
ATOM      1  S   UNL     1       4.204   3.201  19.127  0.00  0.00    +0.000 S 
ATOM      2  O   UNL     1       5.092   2.333  20.030  0.00  0.00    +0.000 OA
ATOM      3  O   UNL     1       3.277   2.138  18.518  0.00  0.00    +0.000 OA
ENDROOT
BRANCH   1   4
ATOM      4  C   UNL     1       5.231   4.081  17.950  0.00  0.00    +0.000 A 
ATOM      5  C   UNL     1       5.068   3.863  16.578  0.00  0.00    +0.000 A 
ATOM      6  C   UNL     1       5.844   4.570  15.658  0.00  0.00    +0.000 A 
ATOM      7  C   UNL     1       6.784   5.504  16.110  0.00  0.00    +0.000 A 
ATOM      8  C   UNL     1       6.951   5.724  17.479  0.00  0.00    +0.000 A 
ATOM      9  F   UNL     1       7.862   6.629  17.914  0.00  0.00    +0.000 F 
ATOM     10  C   UNL     1       6.176   5.015  18.401  0.00  0.00    +0.000 A 
ATOM     11  F   UNL     1       6.332   5.242  19.731  0.00  0.00    +0.000 F 
ENDBRANCH   1   4
BRANCH   1  12
ATOM     12  N   UNL     1       3.242   4.158  20.284  0.00  0.00    +0.000 NA
ATOM     13  H   UNL     1       3.087   3.577  21.142  0.00  0.00    +0.000 HD
BRANCH  12  15
ATOM     14  C   UNL     1       0.879   3.661  20.037  0.00  0.00    +0.000 C 
ATOM     15  C   UNL     1       1.961   4.733  19.802  0.00  0.00    +0.000 C 
ATOM     16  C   UNL     1       2.025   5.033  18.287  0.00  0.00    +0.000 C 
BRANCH  15  17
ATOM     17  C   UNL     1       1.589   6.012  20.610  0.00  0.00    +0.000 C 
BRANCH  17  18
ATOM     18  N   UNL     1       2.333   7.194  20.173  0.00  0.00    +0.000 NA
ATOM     19  H   UNL     1       3.354   7.046  20.345  0.00  0.00    +0.000 HD
ATOM     20  H   UNL     1       2.046   8.002  20.771  0.00  0.00    +0.000 HD
ENDBRANCH  17  18
ENDBRANCH  15  17
ENDBRANCH  12  15
ENDBRANCH   1  12
TORSDOF 5
ENDMDL
MODEL 7
REMARK VINA RESULT:      -6.2      2.179      2.593
REMARK  Name = 
REMARK  7 active torsions:
REMARK  status: ('A' for Active; 'I' for Inactive)
REMARK    1  A    between atoms: C_1  and  C_2
REMARK    2  A    between atoms: C_2  and  C_3
REMARK    3  A    between atoms: C_2  and  C_4
REMARK    4  A    between atoms: C_2  and  N_6
REMARK    5  A    between atoms: C_4  and  N_5
REMARK    6  A    between atoms: N_6  and  S_7
REMARK    7  A    between atoms: S_7  and  C_10
REMARK                            x       y       z     vdW  Elec       q    Type
REMARK                         _______ _______ _______ _____ _____    ______ ____
ROOT
ATOM      1  S   UNL     1       3.387   5.553  18.362  0.00  0.00    +0.000 S 
ATOM      2  O   UNL     1       2.782   6.892  17.916  0.00  0.00    +0.000 OA
ATOM      3  O   UNL     1       3.630   5.822  19.854  0.00  0.00    +0.000 OA
ENDROOT
BRANCH   1   4
ATOM      4  C   UNL     1       4.860   5.214  17.398  0.00  0.00    +0.000 A 
ATOM      5  C   UNL     1       4.842   5.379  16.009  0.00  0.00    +0.000 A 
ATOM      6  C   UNL     1       5.997   5.147  15.260  0.00  0.00    +0.000 A 
ATOM      7  C   UNL     1       7.177   4.751  15.901  0.00  0.00    +0.000 A 
ATOM      8  C   UNL     1       7.199   4.583  17.287  0.00  0.00    +0.000 A 
ATOM      9  F   UNL     1       8.343   4.200  17.906  0.00  0.00    +0.000 F 
ATOM     10  C   UNL     1       6.043   4.813  18.039  0.00  0.00    +0.000 A 
ATOM     11  F   UNL     1       6.072   4.662  19.388  0.00  0.00    +0.000 F 
ENDBRANCH   1   4
BRANCH   1  12
ATOM     12  N   UNL     1       2.019   4.415  18.235  0.00  0.00    +0.000 NA
ATOM     13  H   UNL     1       1.132   4.970  18.206  0.00  0.00    +0.000 HD
BRANCH  12  15
ATOM     14  C   UNL     1       0.995   2.257  18.663  0.00  0.00    +0.000 C 
ATOM     15  C   UNL     1       1.929   3.333  19.249  0.00  0.00    +0.000 C 
ATOM     16  C   UNL     1       1.304   3.857  20.561  0.00  0.00    +0.000 C 
BRANCH  15  17
ATOM     17  C   UNL     1       3.328   2.701  19.509  0.00  0.00    +0.000 C 
BRANCH  17  18
ATOM     18  N   UNL     1       3.791   1.871  18.396  0.00  0.00    +0.000 NA
ATOM     19  H   UNL     1       3.207   1.006  18.340  0.00  0.00    +0.000 HD
ATOM     20  H   UNL     1       4.767   1.558  18.604  0.00  0.00    +0.000 HD
ENDBRANCH  17  18
ENDBRANCH  15  17
ENDBRANCH  12  15
ENDBRANCH   1  12
TORSDOF 5
ENDMDL
MODEL 8
REMARK VINA RESULT:      -6.2      3.293      5.418
REMARK  Name = 
REMARK  7 active torsions:
REMARK  status: ('A' for Active; 'I' for Inactive)
REMARK    1  A    between atoms: C_1  and  C_2
REMARK    2  A    between atoms: C_2  and  C_3
REMARK    3  A    between atoms: C_2  and  C_4
REMARK    4  A    between atoms: C_2  and  N_6
REMARK    5  A    between atoms: C_4  and  N_5
REMARK    6  A    between atoms: N_6  and  S_7
REMARK    7  A    between atoms: S_7  and  C_10
REMARK                            x       y       z     vdW  Elec       q    Type
REMARK                         _______ _______ _______ _____ _____    ______ ____
ROOT
ATOM      1  S   UNL     1       4.323   5.757  17.743  0.00  0.00    +0.000 S 
ATOM      2  O   UNL     1       3.619   7.120  17.805  0.00  0.00    +0.000 OA
ATOM      3  O   UNL     1       4.836   5.757  16.295  0.00  0.00    +0.000 OA
ENDROOT
BRANCH   1   4
ATOM      4  C   UNL     1       3.150   4.460  18.136  0.00  0.00    +0.000 A 
ATOM      5  C   UNL     1       3.123   3.286  17.375  0.00  0.00    +0.000 A 
ATOM      6  C   UNL     1       2.231   2.261  17.698  0.00  0.00    +0.000 A 
ATOM      7  C   UNL     1       1.366   2.407  18.789  0.00  0.00    +0.000 A 
ATOM      8  C   UNL     1       1.388   3.578  19.550  0.00  0.00    +0.000 A 
ATOM      9  F   UNL     1       0.550   3.717  20.606  0.00  0.00    +0.000 F 
ATOM     10  C   UNL     1       2.279   4.606  19.226  0.00  0.00    +0.000 A 
ATOM     11  F   UNL     1       2.307   5.737  19.977  0.00  0.00    +0.000 F 
ENDBRANCH   1   4
BRANCH   1  12
ATOM     12  N   UNL     1       5.733   5.967  18.814  0.00  0.00    +0.000 NA
ATOM     13  H   UNL     1       5.625   6.875  19.325  0.00  0.00    +0.000 HD
BRANCH  12  15
ATOM     14  C   UNL     1       8.090   5.783  19.366  0.00  0.00    +0.000 C 
ATOM     15  C   UNL     1       7.083   5.867  18.203  0.00  0.00    +0.000 C 
ATOM     16  C   UNL     1       7.407   7.127  17.370  0.00  0.00    +0.000 C 
BRANCH  15  17
ATOM     17  C   UNL     1       7.203   4.578  17.336  0.00  0.00    +0.000 C 
BRANCH  17  18
ATOM     18  N   UNL     1       7.595   4.859  15.954  0.00  0.00    +0.000 NA
ATOM     19  H   UNL     1       8.447   4.304  15.714  0.00  0.00    +0.000 HD
ATOM     20  H   UNL     1       7.868   5.866  15.889  0.00  0.00    +0.000 HD
ENDBRANCH  17  18
ENDBRANCH  15  17
ENDBRANCH  12  15
ENDBRANCH   1  12
TORSDOF 5
ENDMDL
MODEL 9
REMARK VINA RESULT:      -6.2      1.835      2.190
REMARK  Name = 
REMARK  7 active torsions:
REMARK  status: ('A' for Active; 'I' for Inactive)
REMARK    1  A    between atoms: C_1  and  C_2
REMARK    2  A    between atoms: C_2  and  C_3
REMARK    3  A    between atoms: C_2  and  C_4
REMARK    4  A    between atoms: C_2  and  N_6
REMARK    5  A    between atoms: C_4  and  N_5
REMARK    6  A    between atoms: N_6  and  S_7
REMARK    7  A    between atoms: S_7  and  C_10
REMARK                            x       y       z     vdW  Elec       q    Type
REMARK                         _______ _______ _______ _____ _____    ______ ____
ROOT
ATOM      1  S   UNL     1       3.122   3.919  17.825  0.00  0.00    +0.000 S 
ATOM      2  O   UNL     1       2.319   3.116  16.792  0.00  0.00    +0.000 OA
ATOM      3  O   UNL     1       2.260   5.185  17.948  0.00  0.00    +0.000 OA
ENDROOT
BRANCH   1   4
ATOM      4  C   UNL     1       4.785   4.185  17.213  0.00  0.00    +0.000 A 
ATOM      5  C   UNL     1       5.042   4.133  15.838  0.00  0.00    +0.000 A 
ATOM      6  C   UNL     1       6.331   4.371  15.356  0.00  0.00    +0.000 A 
ATOM      7  C   UNL     1       7.366   4.668  16.250  0.00  0.00    +0.000 A 
ATOM      8  C   UNL     1       7.115   4.720  17.623  0.00  0.00    +0.000 A 
ATOM      9  F   UNL     1       8.120   5.007  18.486  0.00  0.00    +0.000 F 
ATOM     10  C   UNL     1       5.826   4.479  18.107  0.00  0.00    +0.000 A 
ATOM     11  F   UNL     1       5.582   4.544  19.441  0.00  0.00    +0.000 F 
ENDBRANCH   1   4
BRANCH   1  12
ATOM     12  N   UNL     1       2.920   2.982  19.329  0.00  0.00    +0.000 NA
ATOM     13  H   UNL     1       2.498   2.055  19.085  0.00  0.00    +0.000 HD
BRANCH  12  15
ATOM     14  C   UNL     1       2.353   2.713  21.674  0.00  0.00    +0.000 C 
ATOM     15  C   UNL     1       2.173   3.621  20.442  0.00  0.00    +0.000 C 
ATOM     16  C   UNL     1       0.665   3.706  20.118  0.00  0.00    +0.000 C 
BRANCH  15  17
ATOM     17  C   UNL     1       2.756   5.029  20.763  0.00  0.00    +0.000 C 
BRANCH  17  18
ATOM     18  N   UNL     1       1.733   6.076  20.777  0.00  0.00    +0.000 NA
ATOM     19  H   UNL     1       1.133   5.965  21.626  0.00  0.00    +0.000 HD
ATOM     20  H   UNL     1       1.108   5.935  19.951  0.00  0.00    +0.000 HD
ENDBRANCH  17  18
ENDBRANCH  15  17
ENDBRANCH  12  15
ENDBRANCH   1  12
TORSDOF 5
ENDMDL
