MODEL 1
REMARK VINA RESULT:      -8.4      0.000      0.000
REMARK  Name = 
REMARK  3 active torsions:
REMARK  status: ('A' for Active; 'I' for Inactive)
REMARK    1  A    between atoms: C_1  and  C_2
REMARK    2  A    between atoms: C_6  and  N_7
REMARK    3  A    between atoms: N_16  and  C_17
REMARK                            x       y       z     vdW  Elec       q    Type
REMARK                         _______ _______ _______ _____ _____    ______ ____
ROOT
ATOM      1  C   UNL     1      -0.334   9.517  23.174  0.00  0.00    +0.000 C 
ATOM      2  C   UNL     1      -0.360  10.380  21.940  0.00  0.00    +0.000 A 
ATOM      3  C   UNL     1       0.295  10.025  20.740  0.00  0.00    +0.000 A 
ATOM      4  C   UNL     1       1.038   8.934  20.261  0.00  0.00    +0.000 A 
ATOM      5  C   UNL     1       1.436   7.691  20.797  0.00  0.00    +0.000 A 
ATOM      6  C   UNL     1       2.185   6.768  20.010  0.00  0.00    +0.000 A 
ATOM      7  C   UNL     1       2.516   7.155  18.681  0.00  0.00    +0.000 A 
ATOM      8  C   UNL     1       2.119   8.391  18.163  0.00  0.00    +0.000 A 
ATOM      9  C   UNL     1       1.387   9.254  18.960  0.00  0.00    +0.000 A 
ATOM     10  N   UNL     1       0.931  10.457  18.564  0.00  0.00    +0.000 NA
ATOM     11  C   UNL     1       0.253  10.942  19.620  0.00  0.00    +0.000 A 
ATOM     12  N   UNL     1      -0.414  12.128  19.651  0.00  0.00    +0.000 N 
ATOM     13  C   UNL     1      -0.403  13.000  18.459  0.00  0.00    +0.000 C 
ATOM     14  C   UNL     1      -1.100  12.475  20.797  0.00  0.00    +0.000 A 
ATOM     15  C   UNL     1      -1.844  13.679  20.858  0.00  0.00    +0.000 A 
ATOM     16  C   UNL     1      -2.560  14.031  22.000  0.00  0.00    +0.000 A 
ATOM     17  C   UNL     1      -2.546  13.204  23.114  0.00  0.00    +0.000 A 
ATOM     18  C   UNL     1      -1.815  12.018  23.098  0.00  0.00    +0.000 A 
ATOM     19  C   UNL     1      -1.083  11.616  21.954  0.00  0.00    +0.000 A 
ENDROOT
BRANCH   6  20
ATOM     20  N   UNL     1       2.533   5.509  20.638  0.00  0.00    +0.000 N 
ATOM     21  C   UNL     1       1.851   4.243  20.813  0.00  0.00    +0.000 C 
ATOM     22  N   UNL     1       0.667   3.969  20.389  0.00  0.00    +0.000 NA
ATOM     23  N   UNL     1       2.532   3.211  21.512  0.00  0.00    +0.000 N 
ATOM     24  H   UNL     1       3.471   5.501  21.065  0.00  0.00    +0.000 HD
ATOM     25  H   UNL     1       0.027   4.561  19.876  0.00  0.00    +0.000 HD
ATOM     26  H   UNL     1       3.481   3.356  21.884  0.00  0.00    +0.000 HD
ATOM     27  H   UNL     1       2.082   2.295  21.659  0.00  0.00    +0.000 HD
ENDBRANCH   6  20
TORSDOF 1
ENDMDL
MODEL 2
REMARK VINA RESULT:      -7.7      5.345      8.738
REMARK  Name = 
REMARK  3 active torsions:
REMARK  status: ('A' for Active; 'I' for Inactive)
REMARK    1  A    between atoms: C_1  and  C_2
REMARK    2  A    between atoms: C_6  and  N_7
REMARK    3  A    between atoms: N_16  and  C_17
REMARK                            x       y       z     vdW  Elec       q    Type
REMARK                         _______ _______ _______ _____ _____    ______ ____
ROOT
ATOM      1  C   UNL     1       3.962   1.516  17.790  0.00  0.00    +0.000 C 
ATOM      2  C   UNL     1       3.655   2.930  18.208  0.00  0.00    +0.000 A 
ATOM      3  C   UNL     1       4.109   4.059  17.492  0.00  0.00    +0.000 A 
ATOM      4  C   UNL     1       4.831   4.303  16.312  0.00  0.00    +0.000 A 
ATOM      5  C   UNL     1       5.406   3.489  15.313  0.00  0.00    +0.000 A 
ATOM      6  C   UNL     1       6.067   4.074  14.193  0.00  0.00    +0.000 A 
ATOM      7  C   UNL     1       6.127   5.494  14.134  0.00  0.00    +0.000 A 
ATOM      8  C   UNL     1       5.557   6.289  15.132  0.00  0.00    +0.000 A 
ATOM      9  C   UNL     1       4.918   5.680  16.198  0.00  0.00    +0.000 A 
ATOM     10  N   UNL     1       4.315   6.340  17.204  0.00  0.00    +0.000 NA
ATOM     11  C   UNL     1       3.803   5.381  17.997  0.00  0.00    +0.000 A 
ATOM     12  N   UNL     1       3.069   5.598  19.122  0.00  0.00    +0.000 N 
ATOM     13  C   UNL     1       2.805   6.983  19.563  0.00  0.00    +0.000 C 
ATOM     14  C   UNL     1       2.575   4.510  19.814  0.00  0.00    +0.000 A 
ATOM     15  C   UNL     1       1.769   4.690  20.965  0.00  0.00    +0.000 A 
ATOM     16  C   UNL     1       1.245   3.603  21.659  0.00  0.00    +0.000 A 
ATOM     17  C   UNL     1       1.516   2.310  21.237  0.00  0.00    +0.000 A 
ATOM     18  C   UNL     1       2.315   2.090  20.117  0.00  0.00    +0.000 A 
ATOM     19  C   UNL     1       2.859   3.168  19.375  0.00  0.00    +0.000 A 
ENDROOT
BRANCH   6  20
ATOM     20  N   UNL     1       6.610   3.160  13.208  0.00  0.00    +0.000 N 
ATOM     21  C   UNL     1       6.098   2.561  11.992  0.00  0.00    +0.000 C 
ATOM     22  N   UNL     1       4.925   2.756  11.502  0.00  0.00    +0.000 NA
ATOM     23  N   UNL     1       6.951   1.680  11.274  0.00  0.00    +0.000 N 
ATOM     24  H   UNL     1       7.574   2.855  13.408  0.00  0.00    +0.000 HD
ATOM     25  H   UNL     1       4.180   3.339  11.859  0.00  0.00    +0.000 HD
ATOM     26  H   UNL     1       7.903   1.472  11.606  0.00  0.00    +0.000 HD
ATOM     27  H   UNL     1       6.625   1.233  10.404  0.00  0.00    +0.000 HD
ENDBRANCH   6  20
TORSDOF 1
ENDMDL
MODEL 3
REMARK VINA RESULT:      -7.5      2.416      3.739
REMARK  Name = 
REMARK  3 active torsions:
REMARK  status: ('A' for Active; 'I' for Inactive)
REMARK    1  A    between atoms: C_1  and  C_2
REMARK    2  A    between atoms: C_6  and  N_7
REMARK    3  A    between atoms: N_16  and  C_17
REMARK                            x       y       z     vdW  Elec       q    Type
REMARK                         _______ _______ _______ _____ _____    ______ ____
ROOT
ATOM      1  C   UNL     1       1.382   6.285  21.217  0.00  0.00    +0.000 C 
ATOM      2  C   UNL     1       1.558   7.474  20.311  0.00  0.00    +0.000 A 
ATOM      3  C   UNL     1       2.368   7.445  19.154  0.00  0.00    +0.000 A 
ATOM      4  C   UNL     1       3.140   6.495  18.466  0.00  0.00    +0.000 A 
ATOM      5  C   UNL     1       3.421   5.124  18.646  0.00  0.00    +0.000 A 
ATOM      6  C   UNL     1       4.248   4.425  17.719  0.00  0.00    +0.000 A 
ATOM      7  C   UNL     1       4.777   5.165  16.624  0.00  0.00    +0.000 A 
ATOM      8  C   UNL     1       4.494   6.523  16.459  0.00  0.00    +0.000 A 
ATOM      9  C   UNL     1       3.681   7.161  17.379  0.00  0.00    +0.000 A 
ATOM     10  N   UNL     1       3.322   8.456  17.311  0.00  0.00    +0.000 NA
ATOM     11  C   UNL     1       2.514   8.654  18.369  0.00  0.00    +0.000 A 
ATOM     12  N   UNL     1       1.884   9.821  18.672  0.00  0.00    +0.000 N 
ATOM     13  C   UNL     1       2.092  11.004  17.813  0.00  0.00    +0.000 C 
ATOM     14  C   UNL     1       1.051   9.860  19.772  0.00  0.00    +0.000 A 
ATOM     15  C   UNL     1       0.341  11.042  20.100  0.00  0.00    +0.000 A 
ATOM     16  C   UNL     1      -0.520  11.090  21.192  0.00  0.00    +0.000 A 
ATOM     17  C   UNL     1      -0.691   9.971  21.995  0.00  0.00    +0.000 A 
ATOM     18  C   UNL     1      -0.000   8.794  21.715  0.00  0.00    +0.000 A 
ATOM     19  C   UNL     1       0.877   8.699  20.606  0.00  0.00    +0.000 A 
ENDROOT
BRANCH   6  20
ATOM     20  N   UNL     1       4.465   3.015  17.974  0.00  0.00    +0.000 N 
ATOM     21  C   UNL     1       3.598   1.858  18.064  0.00  0.00    +0.000 C 
ATOM     22  N   UNL     1       2.321   1.870  17.913  0.00  0.00    +0.000 NA
ATOM     23  N   UNL     1       4.196   0.600  18.347  0.00  0.00    +0.000 N 
ATOM     24  H   UNL     1       5.453   2.768  18.136  0.00  0.00    +0.000 HD
ATOM     25  H   UNL     1       1.716   2.654  17.709  0.00  0.00    +0.000 HD
ATOM     26  H   UNL     1       5.212   0.512  18.484  0.00  0.00    +0.000 HD
ATOM     27  H   UNL     1       3.615  -0.248  18.419  0.00  0.00    +0.000 HD
ENDBRANCH   6  20
TORSDOF 1
ENDMDL
MODEL 4
REMARK VINA RESULT:      -7.5      1.907      7.988
REMARK  Name = 
REMARK  3 active torsions:
REMARK  status: ('A' for Active; 'I' for Inactive)
REMARK    1  A    between atoms: C_1  and  C_2
REMARK    2  A    between atoms: C_6  and  N_7
REMARK    3  A    between atoms: N_16  and  C_17
REMARK                            x       y       z     vdW  Elec       q    Type
REMARK                         _______ _______ _______ _____ _____    ______ ____
ROOT
ATOM      1  C   UNL     1       3.317   8.173  17.253  0.00  0.00    +0.000 C 
ATOM      2  C   UNL     1       2.959   7.144  18.293  0.00  0.00    +0.000 A 
ATOM      3  C   UNL     1       2.153   7.434  19.416  0.00  0.00    +0.000 A 
ATOM      4  C   UNL     1       1.445   8.542  19.912  0.00  0.00    +0.000 A 
ATOM      5  C   UNL     1       1.228   9.863  19.466  0.00  0.00    +0.000 A 
ATOM      6  C   UNL     1       0.407  10.755  20.217  0.00  0.00    +0.000 A 
ATOM      7  C   UNL     1      -0.167  10.263  21.422  0.00  0.00    +0.000 A 
ATOM      8  C   UNL     1       0.059   8.954  21.854  0.00  0.00    +0.000 A 
ATOM      9  C   UNL     1       0.857   8.118  21.092  0.00  0.00    +0.000 A 
ATOM     10  N   UNL     1       1.127   6.836  21.395  0.00  0.00    +0.000 NA
ATOM     11  C   UNL     1       1.901   6.391  20.388  0.00  0.00    +0.000 A 
ATOM     12  N   UNL     1       2.380   5.123  20.263  0.00  0.00    +0.000 N 
ATOM     13  C   UNL     1       2.070   4.123  21.305  0.00  0.00    +0.000 C 
ATOM     14  C   UNL     1       3.131   4.804  19.150  0.00  0.00    +0.000 A 
ATOM     15  C   UNL     1       3.612   3.484  18.957  0.00  0.00    +0.000 A 
ATOM     16  C   UNL     1       4.351   3.142  17.828  0.00  0.00    +0.000 A 
ATOM     17  C   UNL     1       4.643   4.100  16.868  0.00  0.00    +0.000 A 
ATOM     18  C   UNL     1       4.199   5.411  17.028  0.00  0.00    +0.000 A 
ATOM     19  C   UNL     1       3.434   5.800  18.155  0.00  0.00    +0.000 A 
ENDROOT
BRANCH   6  20
ATOM     20  N   UNL     1       0.225  12.086  19.671  0.00  0.00    +0.000 N 
ATOM     21  C   UNL     1      -0.526  12.629  18.558  0.00  0.00    +0.000 C 
ATOM     22  N   UNL     1      -1.261  11.948  17.751  0.00  0.00    +0.000 NA
ATOM     23  N   UNL     1      -0.450  14.029  18.323  0.00  0.00    +0.000 N 
ATOM     24  H   UNL     1       0.746  12.818  20.176  0.00  0.00    +0.000 HD
ATOM     25  H   UNL     1      -1.443  10.953  17.750  0.00  0.00    +0.000 HD
ATOM     26  H   UNL     1       0.121  14.639  18.925  0.00  0.00    +0.000 HD
ATOM     27  H   UNL     1      -0.969  14.455  17.542  0.00  0.00    +0.000 HD
ENDBRANCH   6  20
TORSDOF 1
ENDMDL
MODEL 5
REMARK VINA RESULT:      -7.4      2.565      7.459
REMARK  Name = 
REMARK  3 active torsions:
REMARK  status: ('A' for Active; 'I' for Inactive)
REMARK    1  A    between atoms: C_1  and  C_2
REMARK    2  A    between atoms: C_6  and  N_7
REMARK    3  A    between atoms: N_16  and  C_17
REMARK                            x       y       z     vdW  Elec       q    Type
REMARK                         _______ _______ _______ _____ _____    ______ ____
ROOT
ATOM      1  C   UNL     1       1.386   5.543  20.810  0.00  0.00    +0.000 C 
ATOM      2  C   UNL     1       2.281   5.856  19.640  0.00  0.00    +0.000 A 
ATOM      3  C   UNL     1       2.327   7.127  19.026  0.00  0.00    +0.000 A 
ATOM      4  C   UNL     1       1.737   8.386  19.228  0.00  0.00    +0.000 A 
ATOM      5  C   UNL     1       0.835   8.920  20.172  0.00  0.00    +0.000 A 
ATOM      6  C   UNL     1       0.448  10.291  20.110  0.00  0.00    +0.000 A 
ATOM      7  C   UNL     1       0.997  11.082  19.062  0.00  0.00    +0.000 A 
ATOM      8  C   UNL     1       1.885  10.539  18.130  0.00  0.00    +0.000 A 
ATOM      9  C   UNL     1       2.241   9.206  18.232  0.00  0.00    +0.000 A 
ATOM     10  N   UNL     1       3.102   8.580  17.409  0.00  0.00    +0.000 NA
ATOM     11  C   UNL     1       3.184   7.320  17.875  0.00  0.00    +0.000 A 
ATOM     12  N   UNL     1       3.979   6.342  17.364  0.00  0.00    +0.000 N 
ATOM     13  C   UNL     1       4.823   6.630  16.186  0.00  0.00    +0.000 C 
ATOM     14  C   UNL     1       3.986   5.104  17.976  0.00  0.00    +0.000 A 
ATOM     15  C   UNL     1       4.832   4.069  17.505  0.00  0.00    +0.000 A 
ATOM     16  C   UNL     1       4.866   2.824  18.126  0.00  0.00    +0.000 A 
ATOM     17  C   UNL     1       4.055   2.569  19.223  0.00  0.00    +0.000 A 
ATOM     18  C   UNL     1       3.200   3.556  19.708  0.00  0.00    +0.000 A 
ATOM     19  C   UNL     1       3.142   4.840  19.113  0.00  0.00    +0.000 A 
ENDROOT
BRANCH   6  20
ATOM     20  N   UNL     1      -0.467  10.756  21.134  0.00  0.00    +0.000 N 
ATOM     21  C   UNL     1      -0.543  10.596  22.571  0.00  0.00    +0.000 C 
ATOM     22  N   UNL     1       0.291   9.933  23.293  0.00  0.00    +0.000 NA
ATOM     23  N   UNL     1      -1.625  11.215  23.254  0.00  0.00    +0.000 N 
ATOM     24  H   UNL     1      -1.246  11.325  20.770  0.00  0.00    +0.000 HD
ATOM     25  H   UNL     1       1.116   9.427  23.000  0.00  0.00    +0.000 HD
ATOM     26  H   UNL     1      -2.334  11.760  22.744  0.00  0.00    +0.000 HD
ATOM     27  H   UNL     1      -1.716  11.125  24.276  0.00  0.00    +0.000 HD
ENDBRANCH   6  20
TORSDOF 1
ENDMDL
MODEL 6
REMARK VINA RESULT:      -7.4      2.305      3.960
REMARK  Name = 
REMARK  3 active torsions:
REMARK  status: ('A' for Active; 'I' for Inactive)
REMARK    1  A    between atoms: C_1  and  C_2
REMARK    2  A    between atoms: C_6  and  N_7
REMARK    3  A    between atoms: N_16  and  C_17
REMARK                            x       y       z     vdW  Elec       q    Type
REMARK                         _______ _______ _______ _____ _____    ______ ____
ROOT
ATOM      1  C   UNL     1       2.147   9.940  17.633  0.00  0.00    +0.000 C 
ATOM      2  C   UNL     1       1.540   9.779  19.002  0.00  0.00    +0.000 A 
ATOM      3  C   UNL     1       1.555   8.558  19.710  0.00  0.00    +0.000 A 
ATOM      4  C   UNL     1       2.074   7.267  19.518  0.00  0.00    +0.000 A 
ATOM      5  C   UNL     1       2.837   6.643  18.508  0.00  0.00    +0.000 A 
ATOM      6  C   UNL     1       3.236   5.280  18.639  0.00  0.00    +0.000 A 
ATOM      7  C   UNL     1       2.830   4.586  19.813  0.00  0.00    +0.000 A 
ATOM      8  C   UNL     1       2.072   5.214  20.804  0.00  0.00    +0.000 A 
ATOM      9  C   UNL     1       1.711   6.540  20.640  0.00  0.00    +0.000 A 
ATOM     10  N   UNL     1       1.003   7.255  21.534  0.00  0.00    +0.000 NA
ATOM     11  C   UNL     1       0.905   8.487  21.002  0.00  0.00    +0.000 A 
ATOM     12  N   UNL     1       0.298   9.553  21.591  0.00  0.00    +0.000 N 
ATOM     13  C   UNL     1      -0.339   9.389  22.914  0.00  0.00    +0.000 C 
ATOM     14  C   UNL     1       0.312  10.769  20.939  0.00  0.00    +0.000 A 
ATOM     15  C   UNL     1      -0.269  11.917  21.535  0.00  0.00    +0.000 A 
ATOM     16  C   UNL     1      -0.243  13.155  20.899  0.00  0.00    +0.000 A 
ATOM     17  C   UNL     1       0.349  13.285  19.651  0.00  0.00    +0.000 A 
ATOM     18  C   UNL     1       0.919  12.179  19.025  0.00  0.00    +0.000 A 
ATOM     19  C   UNL     1       0.925  10.903  19.642  0.00  0.00    +0.000 A 
ENDROOT
BRANCH   6  20
ATOM     20  N   UNL     1       4.034   4.730  17.561  0.00  0.00    +0.000 N 
ATOM     21  C   UNL     1       5.362   4.157  17.475  0.00  0.00    +0.000 C 
ATOM     22  N   UNL     1       6.176   4.012  18.460  0.00  0.00    +0.000 NA
ATOM     23  N   UNL     1       5.816   3.720  16.201  0.00  0.00    +0.000 N 
ATOM     24  H   UNL     1       3.565   4.750  16.643  0.00  0.00    +0.000 HD
ATOM     25  H   UNL     1       6.042   4.257  19.432  0.00  0.00    +0.000 HD
ATOM     26  H   UNL     1       5.222   3.807  15.365  0.00  0.00    +0.000 HD
ATOM     27  H   UNL     1       6.755   3.307  16.097  0.00  0.00    +0.000 HD
ENDBRANCH   6  20
TORSDOF 1
ENDMDL
MODEL 7
REMARK VINA RESULT:      -7.2      1.411      1.702
REMARK  Name = 
REMARK  3 active torsions:
REMARK  status: ('A' for Active; 'I' for Inactive)
REMARK    1  A    between atoms: C_1  and  C_2
REMARK    2  A    between atoms: C_6  and  N_7
REMARK    3  A    between atoms: N_16  and  C_17
REMARK                            x       y       z     vdW  Elec       q    Type
REMARK                         _______ _______ _______ _____ _____    ______ ____
ROOT
ATOM      1  C   UNL     1       0.269   8.425  22.556  0.00  0.00    +0.000 C 
ATOM      2  C   UNL     1       0.351   9.451  21.457  0.00  0.00    +0.000 A 
ATOM      3  C   UNL     1       1.056   9.233  20.253  0.00  0.00    +0.000 A 
ATOM      4  C   UNL     1       1.777   8.182  19.663  0.00  0.00    +0.000 A 
ATOM      5  C   UNL     1       2.090   6.858  20.038  0.00  0.00    +0.000 A 
ATOM      6  C   UNL     1       2.842   6.016  19.167  0.00  0.00    +0.000 A 
ATOM      7  C   UNL     1       3.264   6.566  17.924  0.00  0.00    +0.000 A 
ATOM      8  C   UNL     1       2.951   7.880  17.566  0.00  0.00    +0.000 A 
ATOM      9  C   UNL     1       2.213   8.661  18.438  0.00  0.00    +0.000 A 
ATOM     10  N   UNL     1       1.833   9.928  18.194  0.00  0.00    +0.000 NA
ATOM     11  C   UNL     1       1.118  10.297  19.273  0.00  0.00    +0.000 A 
ATOM     12  N   UNL     1       0.503  11.499  19.436  0.00  0.00    +0.000 N 
ATOM     13  C   UNL     1       0.619  12.526  18.381  0.00  0.00    +0.000 C 
ATOM     14  C   UNL     1      -0.232  11.718  20.585  0.00  0.00    +0.000 A 
ATOM     15  C   UNL     1      -0.926  12.939  20.777  0.00  0.00    +0.000 A 
ATOM     16  C   UNL     1      -1.689  13.165  21.919  0.00  0.00    +0.000 A 
ATOM     17  C   UNL     1      -1.774  12.193  22.905  0.00  0.00    +0.000 A 
ATOM     18  C   UNL     1      -1.096  10.985  22.760  0.00  0.00    +0.000 A 
ATOM     19  C   UNL     1      -0.318  10.708  21.608  0.00  0.00    +0.000 A 
ENDROOT
BRANCH   6  20
ATOM     20  N   UNL     1       3.098   4.666  19.628  0.00  0.00    +0.000 N 
ATOM     21  C   UNL     1       4.227   3.762  19.538  0.00  0.00    +0.000 C 
ATOM     22  N   UNL     1       5.348   4.025  18.964  0.00  0.00    +0.000 NA
ATOM     23  N   UNL     1       4.097   2.475  20.125  0.00  0.00    +0.000 N 
ATOM     24  H   UNL     1       2.305   4.239  20.129  0.00  0.00    +0.000 HD
ATOM     25  H   UNL     1       5.634   4.874  18.495  0.00  0.00    +0.000 HD
ATOM     26  H   UNL     1       3.229   2.191  20.599  0.00  0.00    +0.000 HD
ATOM     27  H   UNL     1       4.877   1.802  20.082  0.00  0.00    +0.000 HD
ENDBRANCH   6  20
TORSDOF 1
ENDMDL
MODEL 8
REMARK VINA RESULT:      -7.1      2.692      8.446
REMARK  Name = 
REMARK  3 active torsions:
REMARK  status: ('A' for Active; 'I' for Inactive)
REMARK    1  A    between atoms: C_1  and  C_2
REMARK    2  A    between atoms: C_6  and  N_7
REMARK    3  A    between atoms: N_16  and  C_17
REMARK                            x       y       z     vdW  Elec       q    Type
REMARK                         _______ _______ _______ _____ _____    ______ ____
ROOT
ATOM      1  C   UNL     1       4.022   6.409  16.832  0.00  0.00    +0.000 C 
ATOM      2  C   UNL     1       3.363   5.730  18.004  0.00  0.00    +0.000 A 
ATOM      3  C   UNL     1       2.593   6.426  18.962  0.00  0.00    +0.000 A 
ATOM      4  C   UNL     1       2.155   7.745  19.164  0.00  0.00    +0.000 A 
ATOM      5  C   UNL     1       2.297   8.958  18.457  0.00  0.00    +0.000 A 
ATOM      6  C   UNL     1       1.682  10.153  18.936  0.00  0.00    +0.000 A 
ATOM      7  C   UNL     1       0.938  10.069  20.146  0.00  0.00    +0.000 A 
ATOM      8  C   UNL     1       0.809   8.862  20.838  0.00  0.00    +0.000 A 
ATOM      9  C   UNL     1       1.416   7.725  20.335  0.00  0.00    +0.000 A 
ATOM     10  N   UNL     1       1.343   6.506  20.900  0.00  0.00    +0.000 NA
ATOM     11  C   UNL     1       2.037   5.695  20.081  0.00  0.00    +0.000 A 
ATOM     12  N   UNL     1       2.193   4.354  20.248  0.00  0.00    +0.000 N 
ATOM     13  C   UNL     1       1.588   3.691  21.421  0.00  0.00    +0.000 C 
ATOM     14  C   UNL     1       2.902   3.644  19.299  0.00  0.00    +0.000 A 
ATOM     15  C   UNL     1       3.052   2.239  19.409  0.00  0.00    +0.000 A 
ATOM     16  C   UNL     1       3.745   1.508  18.449  0.00  0.00    +0.000 A 
ATOM     17  C   UNL     1       4.317   2.152  17.361  0.00  0.00    +0.000 A 
ATOM     18  C   UNL     1       4.204   3.533  17.224  0.00  0.00    +0.000 A 
ATOM     19  C   UNL     1       3.498   4.315  18.172  0.00  0.00    +0.000 A 
ENDROOT
BRANCH   6  20
ATOM     20  N   UNL     1       1.866  11.346  18.134  0.00  0.00    +0.000 N 
ATOM     21  C   UNL     1       2.254  12.711  18.423  0.00  0.00    +0.000 C 
ATOM     22  N   UNL     1       2.546  13.171  19.589  0.00  0.00    +0.000 NA
ATOM     23  N   UNL     1       2.318  13.629  17.340  0.00  0.00    +0.000 N 
ATOM     24  H   UNL     1       1.674  11.207  17.130  0.00  0.00    +0.000 HD
ATOM     25  H   UNL     1       2.559  12.684  20.475  0.00  0.00    +0.000 HD
ATOM     26  H   UNL     1       2.096  13.335  16.379  0.00  0.00    +0.000 HD
ATOM     27  H   UNL     1       2.590  14.609  17.504  0.00  0.00    +0.000 HD
ENDBRANCH   6  20
TORSDOF 1
ENDMDL
MODEL 9
REMARK VINA RESULT:      -7.1      4.986      7.119
REMARK  Name = 
REMARK  3 active torsions:
REMARK  status: ('A' for Active; 'I' for Inactive)
REMARK    1  A    between atoms: C_1  and  C_2
REMARK    2  A    between atoms: C_6  and  N_7
REMARK    3  A    between atoms: N_16  and  C_17
REMARK                            x       y       z     vdW  Elec       q    Type
REMARK                         _______ _______ _______ _____ _____    ______ ____
ROOT
ATOM      1  C   UNL     1      -7.133  12.707  17.966  0.00  0.00    +0.000 C 
ATOM      2  C   UNL     1      -5.956  12.713  18.905  0.00  0.00    +0.000 A 
ATOM      3  C   UNL     1      -4.718  12.111  18.590  0.00  0.00    +0.000 A 
ATOM      4  C   UNL     1      -4.151  11.446  17.491  0.00  0.00    +0.000 A 
ATOM      5  C   UNL     1      -4.598  11.108  16.196  0.00  0.00    +0.000 A 
ATOM      6  C   UNL     1      -3.733  10.435  15.283  0.00  0.00    +0.000 A 
ATOM      7  C   UNL     1      -2.422  10.116  15.734  0.00  0.00    +0.000 A 
ATOM      8  C   UNL     1      -1.993  10.453  17.021  0.00  0.00    +0.000 A 
ATOM      9  C   UNL     1      -2.862  11.112  17.872  0.00  0.00    +0.000 A 
ATOM     10  N   UNL     1      -2.555  11.506  19.122  0.00  0.00    +0.000 NA
ATOM     11  C   UNL     1      -3.658  12.127  19.577  0.00  0.00    +0.000 A 
ATOM     12  N   UNL     1      -3.782  12.721  20.795  0.00  0.00    +0.000 N 
ATOM     13  C   UNL     1      -2.646  12.689  21.739  0.00  0.00    +0.000 C 
ATOM     14  C   UNL     1      -4.967  13.356  21.107  0.00  0.00    +0.000 A 
ATOM     15  C   UNL     1      -5.124  14.027  22.346  0.00  0.00    +0.000 A 
ATOM     16  C   UNL     1      -6.305  14.691  22.665  0.00  0.00    +0.000 A 
ATOM     17  C   UNL     1      -7.365  14.698  21.770  0.00  0.00    +0.000 A 
ATOM     18  C   UNL     1      -7.255  14.039  20.547  0.00  0.00    +0.000 A 
ATOM     19  C   UNL     1      -6.067  13.361  20.177  0.00  0.00    +0.000 A 
ENDROOT
BRANCH   6  20
ATOM     20  N   UNL     1      -4.272  10.147  13.969  0.00  0.00    +0.000 N 
ATOM     21  C   UNL     1      -3.690   9.768  12.697  0.00  0.00    +0.000 C 
ATOM     22  N   UNL     1      -2.436   9.594  12.474  0.00  0.00    +0.000 NA
ATOM     23  N   UNL     1      -4.567   9.573  11.596  0.00  0.00    +0.000 N 
ATOM     24  H   UNL     1      -5.298  10.234  13.911  0.00  0.00    +0.000 HD
ATOM     25  H   UNL     1      -1.661   9.682  13.118  0.00  0.00    +0.000 HD
ATOM     26  H   UNL     1      -5.584   9.698  11.697  0.00  0.00    +0.000 HD
ATOM     27  H   UNL     1      -4.194   9.303  10.674  0.00  0.00    +0.000 HD
ENDBRANCH   6  20
TORSDOF 1
ENDMDL
