MODEL 1
REMARK VINA RESULT:      -7.8      0.000      0.000
REMARK  Name = 
REMARK  6 active torsions:
REMARK  status: ('A' for Active; 'I' for Inactive)
REMARK    1  A    between atoms: C_2  and  N_3
REMARK    2  A    between atoms: N_5  and  C_6
REMARK    3  A    between atoms: C_6  and  N_7
REMARK    4  A    between atoms: C_6  and  C_17
REMARK    5  A    between atoms: C_8  and  C_10
REMARK    6  A    between atoms: N_21  and  C_22
REMARK                            x       y       z     vdW  Elec       q    Type
REMARK                         _______ _______ _______ _____ _____    ______ ____
ROOT
ATOM      1  C   UNL     1       5.340   5.734  17.618  0.00  0.00    +0.000 C 
ENDROOT
BRANCH   1   4
ATOM      2  N   UNL     1       4.277   3.219  16.198  0.00  0.00    +0.000 N 
ATOM      3  C   UNL     1       4.433   3.458  17.544  0.00  0.00    +0.000 C 
ATOM      4  N   UNL     1       4.849   4.489  18.183  0.00  0.00    +0.000 NA
ATOM      5  N   UNL     1       3.929   2.399  18.265  0.00  0.00    +0.000 N 
ATOM      6  H   UNL     1       3.468   3.776  15.890  0.00  0.00    +0.000 HD
ATOM      7  H   UNL     1       3.863   1.507  17.793  0.00  0.00    +0.000 HD
BRANCH   5   8
ATOM      8  C   UNL     1       3.129   2.511  19.419  0.00  0.00    +0.000 A 
ATOM      9  C   UNL     1       1.761   2.758  19.296  0.00  0.00    +0.000 A 
ATOM     10  C   UNL     1       0.955   2.840  20.434  0.00  0.00    +0.000 A 
ATOM     11  C   UNL     1       1.546   2.675  21.676  0.00  0.00    +0.000 A 
ATOM     12  N   UNL     1       2.857   2.418  21.848  0.00  0.00    +0.000 NA
ATOM     13  C   UNL     1       3.606   2.323  20.719  0.00  0.00    +0.000 A 
ENDBRANCH   5   8
BRANCH   2  15
ATOM     14  N   UNL     1       6.211   3.848  14.566  0.00  0.00    +0.000 NA
ATOM     15  C   UNL     1       5.369   3.579  15.309  0.00  0.00    +0.000 C 
ENDBRANCH   2  15
ENDBRANCH   1   4
BRANCH   1  16
ATOM     16  N   UNL     1       4.438   6.792  18.074  0.00  0.00    +0.000 N 
ATOM     17  C   UNL     1       3.066   6.709  18.059  0.00  0.00    +0.000 C 
ATOM     18  O   UNL     1       2.439   5.738  17.644  0.00  0.00    +0.000 OA
ATOM     19  H   UNL     1       4.868   7.691  18.257  0.00  0.00    +0.000 HD
BRANCH  17  20
ATOM     20  C   UNL     1       2.342   7.898  18.589  0.00  0.00    +0.000 A 
ATOM     21  C   UNL     1       1.891   7.879  19.916  0.00  0.00    +0.000 A 
ATOM     22  C   UNL     1       1.209   8.981  20.440  0.00  0.00    +0.000 A 
ATOM     23  C   UNL     1       0.986  10.103  19.643  0.00  0.00    +0.000 A 
ATOM     24 CL   UNL     1       0.146  11.457  20.288  0.00  0.00    +0.000 Cl
ATOM     25  C   UNL     1       1.448  10.138  18.328  0.00  0.00    +0.000 A 
ATOM     26  C   UNL     1       2.132   9.039  17.802  0.00  0.00    +0.000 A 
ENDBRANCH  17  20
ENDBRANCH   1  16
BRANCH   1  27
ATOM     27  C   UNL     1       6.879   5.955  18.023  0.00  0.00    +0.000 C 
ATOM     28 CL   UNL     1       7.560   7.562  17.551  0.00  0.00    +0.000 Cl
ATOM     29 CL   UNL     1       7.081   5.804  19.810  0.00  0.00    +0.000 Cl
ATOM     30 CL   UNL     1       7.954   4.698  17.271  0.00  0.00    +0.000 Cl
ENDBRANCH   1  27
TORSDOF 6
ENDMDL
MODEL 2
REMARK VINA RESULT:      -7.8      0.067      1.338
REMARK  Name = 
REMARK  6 active torsions:
REMARK  status: ('A' for Active; 'I' for Inactive)
REMARK    1  A    between atoms: C_2  and  N_3
REMARK    2  A    between atoms: N_5  and  C_6
REMARK    3  A    between atoms: C_6  and  N_7
REMARK    4  A    between atoms: C_6  and  C_17
REMARK    5  A    between atoms: C_8  and  C_10
REMARK    6  A    between atoms: N_21  and  C_22
REMARK                            x       y       z     vdW  Elec       q    Type
REMARK                         _______ _______ _______ _____ _____    ______ ____
ROOT
ATOM      1  C   UNL     1       5.370   5.715  17.661  0.00  0.00    +0.000 C 
ENDROOT
BRANCH   1   4
ATOM      2  N   UNL     1       4.267   3.239  16.203  0.00  0.00    +0.000 N 
ATOM      3  C   UNL     1       4.434   3.452  17.552  0.00  0.00    +0.000 C 
ATOM      4  N   UNL     1       4.868   4.466  18.206  0.00  0.00    +0.000 NA
ATOM      5  N   UNL     1       3.922   2.386  18.257  0.00  0.00    +0.000 N 
ATOM      6  H   UNL     1       3.463   3.811  15.910  0.00  0.00    +0.000 HD
ATOM      7  H   UNL     1       3.842   1.504  17.769  0.00  0.00    +0.000 HD
BRANCH   5   8
ATOM      8  C   UNL     1       3.130   2.486  19.417  0.00  0.00    +0.000 A 
ATOM      9  C   UNL     1       1.757   2.707  19.306  0.00  0.00    +0.000 A 
ATOM     10  C   UNL     1       0.960   2.778  20.451  0.00  0.00    +0.000 A 
ATOM     11  C   UNL     1       1.565   2.628  21.688  0.00  0.00    +0.000 A 
ATOM     12  N   UNL     1       2.882   2.396  21.849  0.00  0.00    +0.000 NA
ATOM     13  C   UNL     1       3.623   2.313  20.714  0.00  0.00    +0.000 A 
ENDBRANCH   5   8
BRANCH   2  15
ATOM     14  N   UNL     1       6.199   3.927  14.592  0.00  0.00    +0.000 NA
ATOM     15  C   UNL     1       5.358   3.602  15.313  0.00  0.00    +0.000 C 
ENDBRANCH   2  15
ENDBRANCH   1   4
BRANCH   1  16
ATOM     16  N   UNL     1       4.468   6.772  18.120  0.00  0.00    +0.000 N 
ATOM     17  C   UNL     1       3.096   6.697  18.086  0.00  0.00    +0.000 C 
ATOM     18  O   UNL     1       2.469   5.736  17.650  0.00  0.00    +0.000 OA
ATOM     19  H   UNL     1       4.901   7.666  18.321  0.00  0.00    +0.000 HD
BRANCH  17  20
ATOM     20  C   UNL     1       2.372   7.883  18.622  0.00  0.00    +0.000 A 
ATOM     21  C   UNL     1       2.167   8.986  17.782  0.00  0.00    +0.000 A 
ATOM     22  C   UNL     1       1.490  10.113  18.257  0.00  0.00    +0.000 A 
ATOM     23  C   UNL     1       1.011  10.134  19.566  0.00  0.00    +0.000 A 
ATOM     24 CL   UNL     1       0.180  11.521  20.152  0.00  0.00    +0.000 Cl
ATOM     25  C   UNL     1       1.193   9.034  20.403  0.00  0.00    +0.000 A 
ATOM     26  C   UNL     1       1.868   7.905  19.930  0.00  0.00    +0.000 A 
ENDBRANCH  17  20
ENDBRANCH   1  16
BRANCH   1  27
ATOM     27  C   UNL     1       6.906   5.924  18.085  0.00  0.00    +0.000 C 
ATOM     28 CL   UNL     1       7.212   5.860  19.866  0.00  0.00    +0.000 Cl
ATOM     29 CL   UNL     1       7.940   4.652  17.329  0.00  0.00    +0.000 Cl
ATOM     30 CL   UNL     1       7.545   7.524  17.509  0.00  0.00    +0.000 Cl
ENDBRANCH   1  27
TORSDOF 6
ENDMDL
MODEL 3
REMARK VINA RESULT:      -7.4      0.595      1.322
REMARK  Name = 
REMARK  6 active torsions:
REMARK  status: ('A' for Active; 'I' for Inactive)
REMARK    1  A    between atoms: C_2  and  N_3
REMARK    2  A    between atoms: N_5  and  C_6
REMARK    3  A    between atoms: C_6  and  N_7
REMARK    4  A    between atoms: C_6  and  C_17
REMARK    5  A    between atoms: C_8  and  C_10
REMARK    6  A    between atoms: N_21  and  C_22
REMARK                            x       y       z     vdW  Elec       q    Type
REMARK                         _______ _______ _______ _____ _____    ______ ____
ROOT
ATOM      1  C   UNL     1       5.345   5.737  17.568  0.00  0.00    +0.000 C 
ENDROOT
BRANCH   1   4
ATOM      2  N   UNL     1       4.388   3.258  16.017  0.00  0.00    +0.000 N 
ATOM      3  C   UNL     1       4.460   3.459  17.376  0.00  0.00    +0.000 C 
ATOM      4  N   UNL     1       4.830   4.475  18.067  0.00  0.00    +0.000 NA
ATOM      5  N   UNL     1       3.920   2.378  18.036  0.00  0.00    +0.000 N 
ATOM      6  H   UNL     1       3.595   3.818  15.675  0.00  0.00    +0.000 HD
ATOM      7  H   UNL     1       3.890   1.499  17.536  0.00  0.00    +0.000 HD
BRANCH   5   8
ATOM      8  C   UNL     1       3.051   2.453  19.141  0.00  0.00    +0.000 A 
ATOM      9  C   UNL     1       3.569   2.442  20.437  0.00  0.00    +0.000 A 
ATOM     10  C   UNL     1       2.717   2.547  21.537  0.00  0.00    +0.000 A 
ATOM     11  C   UNL     1       1.355   2.659  21.310  0.00  0.00    +0.000 A 
ATOM     12  N   UNL     1       0.805   2.691  20.081  0.00  0.00    +0.000 NA
ATOM     13  C   UNL     1       1.666   2.608  19.034  0.00  0.00    +0.000 A 
ENDBRANCH   5   8
BRANCH   2  15
ATOM     14  N   UNL     1       6.413   3.997  14.550  0.00  0.00    +0.000 NA
ATOM     15  C   UNL     1       5.530   3.648  15.206  0.00  0.00    +0.000 C 
ENDBRANCH   2  15
ENDBRANCH   1   4
BRANCH   1  16
ATOM     16  N   UNL     1       4.448   6.786  18.057  0.00  0.00    +0.000 N 
ATOM     17  C   UNL     1       3.077   6.693  18.076  0.00  0.00    +0.000 C 
ATOM     18  O   UNL     1       2.445   5.723  17.668  0.00  0.00    +0.000 OA
ATOM     19  H   UNL     1       4.878   7.685  18.238  0.00  0.00    +0.000 HD
BRANCH  17  20
ATOM     20  C   UNL     1       2.359   7.873  18.636  0.00  0.00    +0.000 A 
ATOM     21  C   UNL     1       2.140   8.985  17.810  0.00  0.00    +0.000 A 
ATOM     22  C   UNL     1       1.469  10.106  18.308  0.00  0.00    +0.000 A 
ATOM     23  C   UNL     1       1.011  10.112  19.624  0.00  0.00    +0.000 A 
ATOM     24 CL   UNL     1       0.187  11.491  20.237  0.00  0.00    +0.000 Cl
ATOM     25  C   UNL     1       1.207   9.004  20.447  0.00  0.00    +0.000 A 
ATOM     26  C   UNL     1       1.876   7.881  19.952  0.00  0.00    +0.000 A 
ENDBRANCH  17  20
ENDBRANCH   1  16
BRANCH   1  27
ATOM     27  C   UNL     1       6.880   5.920  18.008  0.00  0.00    +0.000 C 
ATOM     28 CL   UNL     1       7.624   7.492  17.516  0.00  0.00    +0.000 Cl
ATOM     29 CL   UNL     1       7.031   5.806  19.803  0.00  0.00    +0.000 Cl
ATOM     30 CL   UNL     1       7.932   4.612  17.313  0.00  0.00    +0.000 Cl
ENDBRANCH   1  27
TORSDOF 6
ENDMDL
MODEL 4
REMARK VINA RESULT:      -7.4      0.587      1.336
REMARK  Name = 
REMARK  6 active torsions:
REMARK  status: ('A' for Active; 'I' for Inactive)
REMARK    1  A    between atoms: C_2  and  N_3
REMARK    2  A    between atoms: N_5  and  C_6
REMARK    3  A    between atoms: C_6  and  N_7
REMARK    4  A    between atoms: C_6  and  C_17
REMARK    5  A    between atoms: C_8  and  C_10
REMARK    6  A    between atoms: N_21  and  C_22
REMARK                            x       y       z     vdW  Elec       q    Type
REMARK                         _______ _______ _______ _____ _____    ______ ____
ROOT
ATOM      1  C   UNL     1       5.393   5.708  17.586  0.00  0.00    +0.000 C 
ENDROOT
BRANCH   1   4
ATOM      2  N   UNL     1       4.340   3.292  15.998  0.00  0.00    +0.000 N 
ATOM      3  C   UNL     1       4.447   3.458  17.360  0.00  0.00    +0.000 C 
ATOM      4  N   UNL     1       4.858   4.447  18.067  0.00  0.00    +0.000 NA
ATOM      5  N   UNL     1       3.896   2.374  18.005  0.00  0.00    +0.000 N 
ATOM      6  H   UNL     1       3.554   3.880  15.689  0.00  0.00    +0.000 HD
ATOM      7  H   UNL     1       3.832   1.509  17.485  0.00  0.00    +0.000 HD
BRANCH   5   8
ATOM      8  C   UNL     1       3.053   2.443  19.131  0.00  0.00    +0.000 A 
ATOM      9  C   UNL     1       3.602   2.412  20.414  0.00  0.00    +0.000 A 
ATOM     10  C   UNL     1       2.777   2.511  21.536  0.00  0.00    +0.000 A 
ATOM     11  C   UNL     1       1.411   2.636  21.343  0.00  0.00    +0.000 A 
ATOM     12  N   UNL     1       0.833   2.689  20.127  0.00  0.00    +0.000 NA
ATOM     13  C   UNL     1       1.668   2.611  19.059  0.00  0.00    +0.000 A 
ENDBRANCH   5   8
BRANCH   2  15
ATOM     14  N   UNL     1       6.400   3.951  14.542  0.00  0.00    +0.000 NA
ATOM     15  C   UNL     1       5.473   3.674  15.171  0.00  0.00    +0.000 C 
ENDBRANCH   2  15
ENDBRANCH   1   4
BRANCH   1  16
ATOM     16  N   UNL     1       4.485   6.759  18.048  0.00  0.00    +0.000 N 
ATOM     17  C   UNL     1       3.114   6.664  18.040  0.00  0.00    +0.000 C 
ATOM     18  O   UNL     1       2.493   5.689  17.627  0.00  0.00    +0.000 OA
ATOM     19  H   UNL     1       4.909   7.661  18.231  0.00  0.00    +0.000 HD
BRANCH  17  20
ATOM     20  C   UNL     1       2.383   7.847  18.574  0.00  0.00    +0.000 A 
ATOM     21  C   UNL     1       1.918   7.813  19.897  0.00  0.00    +0.000 A 
ATOM     22  C   UNL     1       1.229   8.909  20.426  0.00  0.00    +0.000 A 
ATOM     23  C   UNL     1       1.014  10.039  19.638  0.00  0.00    +0.000 A 
ATOM     24 CL   UNL     1       0.165  11.385  20.288  0.00  0.00    +0.000 Cl
ATOM     25  C   UNL     1       1.489  10.089  18.328  0.00  0.00    +0.000 A 
ATOM     26  C   UNL     1       2.179   8.996  17.797  0.00  0.00    +0.000 A 
ENDBRANCH  17  20
ENDBRANCH   1  16
BRANCH   1  27
ATOM     27  C   UNL     1       6.914   5.884  18.077  0.00  0.00    +0.000 C 
ATOM     28 CL   UNL     1       7.140   5.828  19.869  0.00  0.00    +0.000 Cl
ATOM     29 CL   UNL     1       7.949   4.583  17.376  0.00  0.00    +0.000 Cl
ATOM     30 CL   UNL     1       7.616   7.465  17.518  0.00  0.00    +0.000 Cl
ENDBRANCH   1  27
TORSDOF 6
ENDMDL
MODEL 5
REMARK VINA RESULT:      -7.0      5.107      9.155
REMARK  Name = 
REMARK  6 active torsions:
REMARK  status: ('A' for Active; 'I' for Inactive)
REMARK    1  A    between atoms: C_2  and  N_3
REMARK    2  A    between atoms: N_5  and  C_6
REMARK    3  A    between atoms: C_6  and  N_7
REMARK    4  A    between atoms: C_6  and  C_17
REMARK    5  A    between atoms: C_8  and  C_10
REMARK    6  A    between atoms: N_21  and  C_22
REMARK                            x       y       z     vdW  Elec       q    Type
REMARK                         _______ _______ _______ _____ _____    ______ ____
ROOT
ATOM      1  C   UNL     1       0.767  12.047  20.145  0.00  0.00    +0.000 C 
ENDROOT
BRANCH   1   4
ATOM      2  N   UNL     1      -1.987  11.954  21.516  0.00  0.00    +0.000 N 
ATOM      3  C   UNL     1      -1.682  12.149  20.189  0.00  0.00    +0.000 C 
ATOM      4  N   UNL     1      -0.560  12.176  19.568  0.00  0.00    +0.000 NA
ATOM      5  N   UNL     1      -2.842  12.207  19.450  0.00  0.00    +0.000 N 
ATOM      6  H   UNL     1      -1.816  10.959  21.717  0.00  0.00    +0.000 HD
ATOM      7  H   UNL     1      -3.691  12.459  19.939  0.00  0.00    +0.000 HD
BRANCH   5   8
ATOM      8  C   UNL     1      -3.049  11.567  18.213  0.00  0.00    +0.000 A 
ATOM      9  C   UNL     1      -2.118  10.636  17.747  0.00  0.00    +0.000 A 
ATOM     10  C   UNL     1      -2.330   9.974  16.536  0.00  0.00    +0.000 A 
ATOM     11  C   UNL     1      -3.477  10.265  15.815  0.00  0.00    +0.000 A 
ATOM     12  N   UNL     1      -4.413  11.141  16.228  0.00  0.00    +0.000 NA
ATOM     13  C   UNL     1      -4.185  11.750  17.420  0.00  0.00    +0.000 A 
ENDBRANCH   5   8
BRANCH   2  15
ATOM     14  N   UNL     1      -0.586  13.289  23.265  0.00  0.00    +0.000 NA
ATOM     15  C   UNL     1      -1.226  12.696  22.508  0.00  0.00    +0.000 C 
ENDBRANCH   2  15
ENDBRANCH   1   4
BRANCH   1  16
ATOM     16  N   UNL     1       1.249  10.707  19.806  0.00  0.00    +0.000 N 
ATOM     17  C   UNL     1       0.933   9.565  20.502  0.00  0.00    +0.000 C 
ATOM     18  O   UNL     1       0.220   9.541  21.501  0.00  0.00    +0.000 OA
ATOM     19  H   UNL     1       1.986  10.666  19.112  0.00  0.00    +0.000 HD
BRANCH  17  20
ATOM     20  C   UNL     1       1.520   8.303  19.971  0.00  0.00    +0.000 A 
ATOM     21  C   UNL     1       2.084   8.309  18.687  0.00  0.00    +0.000 A 
ATOM     22  C   UNL     1       2.643   7.140  18.162  0.00  0.00    +0.000 A 
ATOM     23  C   UNL     1       2.646   5.971  18.922  0.00  0.00    +0.000 A 
ATOM     24 CL   UNL     1       3.332   4.532  18.276  0.00  0.00    +0.000 Cl
ATOM     25  C   UNL     1       2.106   5.961  20.207  0.00  0.00    +0.000 A 
ATOM     26  C   UNL     1       1.548   7.128  20.735  0.00  0.00    +0.000 A 
ENDBRANCH  17  20
ENDBRANCH   1  16
BRANCH   1  27
ATOM     27  C   UNL     1       1.711  13.241  19.629  0.00  0.00    +0.000 C 
ATOM     28 CL   UNL     1       2.947  13.795  20.826  0.00  0.00    +0.000 Cl
ATOM     29 CL   UNL     1       2.606  12.732  18.147  0.00  0.00    +0.000 Cl
ATOM     30 CL   UNL     1       0.741  14.709  19.173  0.00  0.00    +0.000 Cl
ENDBRANCH   1  27
TORSDOF 6
ENDMDL
MODEL 6
REMARK VINA RESULT:      -7.0      5.125      9.085
REMARK  Name = 
REMARK  6 active torsions:
REMARK  status: ('A' for Active; 'I' for Inactive)
REMARK    1  A    between atoms: C_2  and  N_3
REMARK    2  A    between atoms: N_5  and  C_6
REMARK    3  A    between atoms: C_6  and  N_7
REMARK    4  A    between atoms: C_6  and  C_17
REMARK    5  A    between atoms: C_8  and  C_10
REMARK    6  A    between atoms: N_21  and  C_22
REMARK                            x       y       z     vdW  Elec       q    Type
REMARK                         _______ _______ _______ _____ _____    ______ ____
ROOT
ATOM      1  C   UNL     1       0.758  12.149  20.017  0.00  0.00    +0.000 C 
ENDROOT
BRANCH   1   4
ATOM      2  N   UNL     1      -1.954  11.978  21.462  0.00  0.00    +0.000 N 
ATOM      3  C   UNL     1      -1.691  12.186  20.128  0.00  0.00    +0.000 C 
ATOM      4  N   UNL     1      -0.587  12.245  19.477  0.00  0.00    +0.000 NA
ATOM      5  N   UNL     1      -2.872  12.216  19.421  0.00  0.00    +0.000 N 
ATOM      6  H   UNL     1      -1.751  10.987  21.654  0.00  0.00    +0.000 HD
ATOM      7  H   UNL     1      -3.713  12.443  19.934  0.00  0.00    +0.000 HD
BRANCH   5   8
ATOM      8  C   UNL     1      -3.095  11.574  18.187  0.00  0.00    +0.000 A 
ATOM      9  C   UNL     1      -2.169  10.647  17.707  0.00  0.00    +0.000 A 
ATOM     10  C   UNL     1      -2.397   9.984  16.500  0.00  0.00    +0.000 A 
ATOM     11  C   UNL     1      -3.555  10.272  15.796  0.00  0.00    +0.000 A 
ATOM     12  N   UNL     1      -4.488  11.145  16.223  0.00  0.00    +0.000 NA
ATOM     13  C   UNL     1      -4.243  11.755  17.411  0.00  0.00    +0.000 A 
ENDBRANCH   5   8
BRANCH   2  15
ATOM     14  N   UNL     1      -0.537  13.325  23.188  0.00  0.00    +0.000 NA
ATOM     15  C   UNL     1      -1.186  12.736  22.436  0.00  0.00    +0.000 C 
ENDBRANCH   2  15
ENDBRANCH   1   4
BRANCH   1  16
ATOM     16  N   UNL     1       1.268  10.826  19.655  0.00  0.00    +0.000 N 
ATOM     17  C   UNL     1       0.970   9.665  20.328  0.00  0.00    +0.000 C 
ATOM     18  O   UNL     1       0.252   9.608  21.322  0.00  0.00    +0.000 OA
ATOM     19  H   UNL     1       2.009  10.812  18.964  0.00  0.00    +0.000 HD
BRANCH  17  20
ATOM     20  C   UNL     1       1.585   8.424  19.775  0.00  0.00    +0.000 A 
ATOM     21  C   UNL     1       1.633   7.278  20.580  0.00  0.00    +0.000 A 
ATOM     22  C   UNL     1       2.203   6.100  20.089  0.00  0.00    +0.000 A 
ATOM     23  C   UNL     1       2.715   6.065  18.793  0.00  0.00    +0.000 A 
ATOM     24 CL   UNL     1       3.417   4.617  18.188  0.00  0.00    +0.000 Cl
ATOM     25  C   UNL     1       2.653   7.195  17.978  0.00  0.00    +0.000 A 
ATOM     26  C   UNL     1       2.083   8.373  18.466  0.00  0.00    +0.000 A 
ENDBRANCH  17  20
ENDBRANCH   1  16
BRANCH   1  27
ATOM     27  C   UNL     1       1.654  13.373  19.485  0.00  0.00    +0.000 C 
ATOM     28 CL   UNL     1       0.711  14.788  18.873  0.00  0.00    +0.000 Cl
ATOM     29 CL   UNL     1       2.720  13.985  20.807  0.00  0.00    +0.000 Cl
ATOM     30 CL   UNL     1       2.749  12.857  18.130  0.00  0.00    +0.000 Cl
ENDBRANCH   1  27
TORSDOF 6
ENDMDL
MODEL 7
REMARK VINA RESULT:      -6.9      5.226      9.288
REMARK  Name = 
REMARK  6 active torsions:
REMARK  status: ('A' for Active; 'I' for Inactive)
REMARK    1  A    between atoms: C_2  and  N_3
REMARK    2  A    between atoms: N_5  and  C_6
REMARK    3  A    between atoms: C_6  and  N_7
REMARK    4  A    between atoms: C_6  and  C_17
REMARK    5  A    between atoms: C_8  and  C_10
REMARK    6  A    between atoms: N_21  and  C_22
REMARK                            x       y       z     vdW  Elec       q    Type
REMARK                         _______ _______ _______ _____ _____    ______ ____
ROOT
ATOM      1  C   UNL     1       0.510  12.355  20.053  0.00  0.00    +0.000 C 
ENDROOT
BRANCH   1   4
ATOM      2  N   UNL     1      -2.268  12.121  21.357  0.00  0.00    +0.000 N 
ATOM      3  C   UNL     1      -1.941  12.292  20.032  0.00  0.00    +0.000 C 
ATOM      4  N   UNL     1      -0.806  12.374  19.439  0.00  0.00    +0.000 NA
ATOM      5  N   UNL     1      -3.082  12.246  19.262  0.00  0.00    +0.000 N 
ATOM      6  H   UNL     1      -2.036  11.148  21.597  0.00  0.00    +0.000 HD
ATOM      7  H   UNL     1      -3.958  12.456  19.721  0.00  0.00    +0.000 HD
BRANCH   5   8
ATOM      8  C   UNL     1      -3.210  11.552  18.044  0.00  0.00    +0.000 A 
ATOM      9  C   UNL     1      -2.272  10.580  17.694  0.00  0.00    +0.000 A 
ATOM     10  C   UNL     1      -2.409   9.866  16.502  0.00  0.00    +0.000 A 
ATOM     11  C   UNL     1      -3.490  10.148  15.683  0.00  0.00    +0.000 A 
ATOM     12  N   UNL     1      -4.432  11.063  15.982  0.00  0.00    +0.000 NA
ATOM     13  C   UNL     1      -4.278  11.723  17.159  0.00  0.00    +0.000 A 
ENDBRANCH   5   8
BRANCH   2  15
ATOM     14  N   UNL     1      -1.083  13.629  23.125  0.00  0.00    +0.000 NA
ATOM     15  C   UNL     1      -1.586  12.946  22.341  0.00  0.00    +0.000 C 
ENDBRANCH   2  15
ENDBRANCH   1   4
BRANCH   1  16
ATOM     16  N   UNL     1       1.159  11.114  19.628  0.00  0.00    +0.000 N 
ATOM     17  C   UNL     1       0.796   9.859  20.053  0.00  0.00    +0.000 C 
ATOM     18  O   UNL     1      -0.109   9.636  20.853  0.00  0.00    +0.000 OA
ATOM     19  H   UNL     1       2.027  11.223  19.117  0.00  0.00    +0.000 HD
BRANCH  17  20
ATOM     20  C   UNL     1       1.582   8.731  19.478  0.00  0.00    +0.000 A 
ATOM     21  C   UNL     1       2.088   8.855  18.177  0.00  0.00    +0.000 A 
ATOM     22  C   UNL     1       2.829   7.814  17.611  0.00  0.00    +0.000 A 
ATOM     23  C   UNL     1       3.072   6.655  18.348  0.00  0.00    +0.000 A 
ATOM     24 CL   UNL     1       3.982   5.373  17.652  0.00  0.00    +0.000 Cl
ATOM     25  C   UNL     1       2.588   6.531  19.650  0.00  0.00    +0.000 A 
ATOM     26  C   UNL     1       1.849   7.571  20.218  0.00  0.00    +0.000 A 
ENDBRANCH  17  20
ENDBRANCH   1  16
BRANCH   1  27
ATOM     27  C   UNL     1       1.317  13.691  19.668  0.00  0.00    +0.000 C 
ATOM     28 CL   UNL     1       0.289  15.041  19.046  0.00  0.00    +0.000 Cl
ATOM     29 CL   UNL     1       2.199  14.324  21.110  0.00  0.00    +0.000 Cl
ATOM     30 CL   UNL     1       2.571  13.368  18.393  0.00  0.00    +0.000 Cl
ENDBRANCH   1  27
TORSDOF 6
ENDMDL
MODEL 8
REMARK VINA RESULT:      -6.8      5.462      9.976
REMARK  Name = 
REMARK  6 active torsions:
REMARK  status: ('A' for Active; 'I' for Inactive)
REMARK    1  A    between atoms: C_2  and  N_3
REMARK    2  A    between atoms: N_5  and  C_6
REMARK    3  A    between atoms: C_6  and  N_7
REMARK    4  A    between atoms: C_6  and  C_17
REMARK    5  A    between atoms: C_8  and  C_10
REMARK    6  A    between atoms: N_21  and  C_22
REMARK                            x       y       z     vdW  Elec       q    Type
REMARK                         _______ _______ _______ _____ _____    ______ ____
ROOT
ATOM      1  C   UNL     1      -1.526  11.609  20.668  0.00  0.00    +0.000 C 
ENDROOT
BRANCH   1   4
ATOM      2  N   UNL     1      -1.517  12.341  17.679  0.00  0.00    +0.000 N 
ATOM      3  C   UNL     1      -1.049  13.063  18.753  0.00  0.00    +0.000 C 
ATOM      4  N   UNL     1      -1.011  12.795  20.007  0.00  0.00    +0.000 NA
ATOM      5  N   UNL     1      -0.430  14.210  18.307  0.00  0.00    +0.000 N 
ATOM      6  H   UNL     1      -0.852  11.571  17.527  0.00  0.00    +0.000 HD
ATOM      7  H   UNL     1      -0.692  14.551  17.392  0.00  0.00    +0.000 HD
BRANCH   5   8
ATOM      8  C   UNL     1       0.793  14.711  18.791  0.00  0.00    +0.000 A 
ATOM      9  C   UNL     1       1.985  14.051  18.488  0.00  0.00    +0.000 A 
ATOM     10  C   UNL     1       3.206  14.558  18.938  0.00  0.00    +0.000 A 
ATOM     11  C   UNL     1       3.201  15.722  19.691  0.00  0.00    +0.000 A 
ATOM     12  N   UNL     1       2.082  16.406  19.997  0.00  0.00    +0.000 NA
ATOM     13  C   UNL     1       0.915  15.895  19.524  0.00  0.00    +0.000 A 
ENDBRANCH   5   8
BRANCH   2  15
ATOM     14  N   UNL     1      -3.886  11.270  17.882  0.00  0.00    +0.000 NA
ATOM     15  C   UNL     1      -2.826  11.720  17.792  0.00  0.00    +0.000 C 
ENDBRANCH   2  15
ENDBRANCH   1   4
BRANCH   1  16
ATOM     16  N   UNL     1      -0.708  10.483  20.218  0.00  0.00    +0.000 N 
ATOM     17  C   UNL     1       0.665  10.445  20.271  0.00  0.00    +0.000 C 
ATOM     18  O   UNL     1       1.365  11.364  20.688  0.00  0.00    +0.000 OA
ATOM     19  H   UNL     1      -1.194   9.765  19.693  0.00  0.00    +0.000 HD
BRANCH  17  20
ATOM     20  C   UNL     1       1.295   9.189  19.776  0.00  0.00    +0.000 A 
ATOM     21  C   UNL     1       1.709   9.122  18.438  0.00  0.00    +0.000 A 
ATOM     22  C   UNL     1       2.303   7.956  17.946  0.00  0.00    +0.000 A 
ATOM     23  C   UNL     1       2.493   6.864  18.792  0.00  0.00    +0.000 A 
ATOM     24 CL   UNL     1       3.223   5.430  18.186  0.00  0.00    +0.000 Cl
ATOM     25  C   UNL     1       2.102   6.928  20.128  0.00  0.00    +0.000 A 
ATOM     26  C   UNL     1       1.509   8.093  20.623  0.00  0.00    +0.000 A 
ENDBRANCH  17  20
ENDBRANCH   1  16
BRANCH   1  27
ATOM     27  C   UNL     1      -1.536  11.827  22.261  0.00  0.00    +0.000 C 
ATOM     28 CL   UNL     1      -0.931  10.417  23.218  0.00  0.00    +0.000 Cl
ATOM     29 CL   UNL     1      -0.507  13.242  22.703  0.00  0.00    +0.000 Cl
ATOM     30 CL   UNL     1      -3.208  12.187  22.875  0.00  0.00    +0.000 Cl
ENDBRANCH   1  27
TORSDOF 6
ENDMDL
MODEL 9
REMARK VINA RESULT:      -6.7      5.311      9.429
REMARK  Name = 
REMARK  6 active torsions:
REMARK  status: ('A' for Active; 'I' for Inactive)
REMARK    1  A    between atoms: C_2  and  N_3
REMARK    2  A    between atoms: N_5  and  C_6
REMARK    3  A    between atoms: C_6  and  N_7
REMARK    4  A    between atoms: C_6  and  C_17
REMARK    5  A    between atoms: C_8  and  C_10
REMARK    6  A    between atoms: N_21  and  C_22
REMARK                            x       y       z     vdW  Elec       q    Type
REMARK                         _______ _______ _______ _____ _____    ______ ____
ROOT
ATOM      1  C   UNL     1       0.535  12.554  20.159  0.00  0.00    +0.000 C 
ENDROOT
BRANCH   1   4
ATOM      2  N   UNL     1      -2.120  12.209  21.676  0.00  0.00    +0.000 N 
ATOM      3  C   UNL     1      -1.908  12.494  20.347  0.00  0.00    +0.000 C 
ATOM      4  N   UNL     1      -0.829  12.627  19.667  0.00  0.00    +0.000 NA
ATOM      5  N   UNL     1      -3.112  12.517  19.679  0.00  0.00    +0.000 N 
ATOM      6  H   UNL     1      -1.876  11.218  21.810  0.00  0.00    +0.000 HD
ATOM      7  H   UNL     1      -3.943  12.687  20.229  0.00  0.00    +0.000 HD
BRANCH   5   8
ATOM      8  C   UNL     1      -3.352  11.932  18.421  0.00  0.00    +0.000 A 
ATOM      9  C   UNL     1      -4.651  11.884  17.912  0.00  0.00    +0.000 A 
ATOM     10  C   UNL     1      -4.893  11.333  16.652  0.00  0.00    +0.000 A 
ATOM     11  C   UNL     1      -3.820  10.836  15.930  0.00  0.00    +0.000 A 
ATOM     12  N   UNL     1      -2.547  10.874  16.368  0.00  0.00    +0.000 NA
ATOM     13  C   UNL     1      -2.346  11.436  17.587  0.00  0.00    +0.000 A 
ENDBRANCH   5   8
BRANCH   2  15
ATOM     14  N   UNL     1      -0.696  13.519  23.425  0.00  0.00    +0.000 NA
ATOM     15  C   UNL     1      -1.348  12.945  22.665  0.00  0.00    +0.000 C 
ENDBRANCH   2  15
ENDBRANCH   1   4
BRANCH   1  16
ATOM     16  N   UNL     1       1.079  11.269  19.717  0.00  0.00    +0.000 N 
ATOM     17  C   UNL     1       0.847  10.068  20.343  0.00  0.00    +0.000 C 
ATOM     18  O   UNL     1       0.168   9.938  21.358  0.00  0.00    +0.000 OA
ATOM     19  H   UNL     1       1.794  11.315  19.001  0.00  0.00    +0.000 HD
BRANCH  17  20
ATOM     20  C   UNL     1       1.484   8.878  19.711  0.00  0.00    +0.000 A 
ATOM     21  C   UNL     1       1.692   7.730  20.488  0.00  0.00    +0.000 A 
ATOM     22  C   UNL     1       2.287   6.599  19.922  0.00  0.00    +0.000 A 
ATOM     23  C   UNL     1       2.665   6.612  18.580  0.00  0.00    +0.000 A 
ATOM     24 CL   UNL     1       3.399   5.222  17.884  0.00  0.00    +0.000 Cl
ATOM     25  C   UNL     1       2.445   7.742  17.795  0.00  0.00    +0.000 A 
ATOM     26  C   UNL     1       1.849   8.874  18.357  0.00  0.00    +0.000 A 
ENDBRANCH  17  20
ENDBRANCH   1  16
BRANCH   1  27
ATOM     27  C   UNL     1       1.372  13.833  19.661  0.00  0.00    +0.000 C 
ATOM     28 CL   UNL     1       2.361  14.634  20.944  0.00  0.00    +0.000 Cl
ATOM     29 CL   UNL     1       2.508  13.360  18.341  0.00  0.00    +0.000 Cl
ATOM     30 CL   UNL     1       0.282  15.115  18.974  0.00  0.00    +0.000 Cl
ENDBRANCH   1  27
TORSDOF 6
ENDMDL
