MODEL 1
REMARK VINA RESULT:      -8.3      0.000      0.000
REMARK  Name = 
REMARK  9 active torsions:
REMARK  status: ('A' for Active; 'I' for Inactive)
REMARK    1  A    between atoms: C_1  and  C_2
REMARK    2  A    between atoms: N_5  and  C_6
REMARK    3  A    between atoms: C_10  and  C_11
REMARK    4  A    between atoms: N_13  and  CA_14
REMARK    5  A    between atoms: CA_14  and  CB_15
REMARK    6  A    between atoms: CA_14  and  C_22
REMARK    7  A    between atoms: CB_15  and  CG_16
REMARK    8  A    between atoms: C_22  and  OXT_24
REMARK    9  A    between atoms: C_27  and  C_28
REMARK                            x       y       z     vdW  Elec       q    Type
REMARK                         _______ _______ _______ _____ _____    ______ ____
ROOT
ATOM      1  C   UNK A   0       0.434  10.711  19.976  0.00  0.00    +0.000 A 
ATOM      2  C   UNK A   0       0.286  10.662  21.371  0.00  0.00    +0.000 A 
ATOM      3  C   UNK A   0       0.695   9.537  22.087  0.00  0.00    +0.000 A 
ATOM      4  C   UNK A   0       1.290   8.463  21.423  0.00  0.00    +0.000 A 
ATOM      5  C   UNK A   0       1.469   8.503  20.034  0.00  0.00    +0.000 A 
ATOM      6  C   UNK A   0       1.031   9.623  19.319  0.00  0.00    +0.000 A 
ENDROOT
BRANCH   1  11
ATOM      7  C   UNK A   0       1.550  16.764  18.662  0.00  0.00    +0.000 C 
ATOM      8  C   UNK A   0       1.486  15.296  18.904  0.00  0.00    +0.000 A 
ATOM      9  S   UNK A   0      -0.046  14.508  18.924  0.00  0.00    +0.000 S 
ATOM     10  C   UNK A   0       0.723  12.994  19.183  0.00  0.00    +0.000 A 
ATOM     11  N   UNK A   0      -0.003  11.855  19.281  0.00  0.00    +0.000 N 
ATOM     12  N   UNK A   0       2.031  13.055  19.244  0.00  0.00    +0.000 NA
ATOM     13  C   UNK A   0       2.485  14.353  19.094  0.00  0.00    +0.000 A 
ATOM     14  H   UNK A   0      -1.012  11.925  19.210  0.00  0.00    +0.000 HD
BRANCH  13  15
ATOM     15  C   UNK A   0       3.924  14.595  19.094  0.00  0.00    +0.000 A 
ATOM     16  C   UNK A   0       4.559  14.906  20.310  0.00  0.00    +0.000 A 
ATOM     17  C   UNK A   0       5.932  15.165  20.356  0.00  0.00    +0.000 A 
ATOM     18  C   UNK A   0       6.681  15.119  19.185  0.00  0.00    +0.000 A 
ATOM     19 CL   UNK A   0       8.373  15.430  19.235  0.00  0.00    +0.000 Cl
ATOM     20  C   UNK A   0       6.065  14.832  17.967  0.00  0.00    +0.000 A 
ATOM     21  C   UNK A   0       4.689  14.585  17.922  0.00  0.00    +0.000 A 
ENDBRANCH  13  15
ENDBRANCH   1  11
BRANCH   5  22
ATOM     22  C   UNK A   0       2.210   7.389  19.381  0.00  0.00    +0.000 C 
ATOM     23  O   UNK A   0       2.457   7.437  18.179  0.00  0.00    +0.000 OA
ATOM     24  N   PHE A   1       2.580   6.319  20.164  0.00  0.00    +0.000 N 
ATOM     25  H   PHE A   1       2.443   6.322  21.170  0.00  0.00    +0.000 HD
BRANCH  24  26
ATOM     26  CA  PHE A   1       3.158   5.111  19.577  0.00  0.00    +0.000 C 
BRANCH  26  27
ATOM     27  C   PHE A   1       2.590   3.864  20.266  0.00  0.00    +0.000 C 
ATOM     28  O   PHE A   1       2.462   2.775  19.720  0.00  0.00    +0.000 OA
BRANCH  27  29
ATOM     29  OXT PHE A   1       2.279   4.042  21.574  0.00  0.00    +0.000 OA
ATOM     30  HXT PHE A   1       2.188   4.975  21.854  0.00  0.00    +0.000 HD
ENDBRANCH  27  29
ENDBRANCH  26  27
BRANCH  26  31
ATOM     31  CB  PHE A   1       4.692   5.122  19.538  0.00  0.00    +0.000 C 
BRANCH  31  32
ATOM     32  CG  PHE A   1       5.349   4.912  18.195  0.00  0.00    +0.000 A 
ATOM     33  CD1 PHE A   1       6.745   4.930  18.064  0.00  0.00    +0.000 A 
ATOM     34  CE1 PHE A   1       7.347   4.589  16.851  0.00  0.00    +0.000 A 
ATOM     35  CZ  PHE A   1       6.562   4.240  15.754  0.00  0.00    +0.000 A 
ATOM     36  CE2 PHE A   1       5.173   4.267  15.860  0.00  0.00    +0.000 A 
ATOM     37  CD2 PHE A   1       4.569   4.608  17.071  0.00  0.00    +0.000 A 
ENDBRANCH  31  32
ENDBRANCH  26  31
ENDBRANCH  24  26
ENDBRANCH   5  22
TORSDOF 8
ENDMDL
MODEL 2
REMARK VINA RESULT:      -8.2      1.170      1.725
REMARK  Name = 
REMARK  9 active torsions:
REMARK  status: ('A' for Active; 'I' for Inactive)
REMARK    1  A    between atoms: C_1  and  C_2
REMARK    2  A    between atoms: N_5  and  C_6
REMARK    3  A    between atoms: C_10  and  C_11
REMARK    4  A    between atoms: N_13  and  CA_14
REMARK    5  A    between atoms: CA_14  and  CB_15
REMARK    6  A    between atoms: CA_14  and  C_22
REMARK    7  A    between atoms: CB_15  and  CG_16
REMARK    8  A    between atoms: C_22  and  OXT_24
REMARK    9  A    between atoms: C_27  and  C_28
REMARK                            x       y       z     vdW  Elec       q    Type
REMARK                         _______ _______ _______ _____ _____    ______ ____
ROOT
ATOM      1  C   UNK A   0       0.335  10.732  20.201  0.00  0.00    +0.000 A 
ATOM      2  C   UNK A   0       0.246  10.458  21.575  0.00  0.00    +0.000 A 
ATOM      3  C   UNK A   0       0.723   9.252  22.088  0.00  0.00    +0.000 A 
ATOM      4  C   UNK A   0       1.327   8.321  21.242  0.00  0.00    +0.000 A 
ATOM      5  C   UNK A   0       1.447   8.586  19.871  0.00  0.00    +0.000 A 
ATOM      6  C   UNK A   0       0.942   9.786  19.360  0.00  0.00    +0.000 A 
ENDROOT
BRANCH   1  11
ATOM      7  C   UNK A   0       1.377  16.897  19.485  0.00  0.00    +0.000 C 
ATOM      8  C   UNK A   0       1.319  15.411  19.556  0.00  0.00    +0.000 A 
ATOM      9  S   UNK A   0      -0.211  14.629  19.684  0.00  0.00    +0.000 S 
ATOM     10  C   UNK A   0       0.558  13.094  19.656  0.00  0.00    +0.000 A 
ATOM     11  N   UNK A   0      -0.169  11.952  19.712  0.00  0.00    +0.000 N 
ATOM     12  N   UNK A   0       1.864  13.145  19.550  0.00  0.00    +0.000 NA
ATOM     13  C   UNK A   0       2.317  14.450  19.497  0.00  0.00    +0.000 A 
ATOM     14  H   UNK A   0      -1.177  12.033  19.785  0.00  0.00    +0.000 HD
BRANCH  13  15
ATOM     15  C   UNK A   0       3.748  14.688  19.336  0.00  0.00    +0.000 A 
ATOM     16  C   UNK A   0       4.313  14.581  18.053  0.00  0.00    +0.000 A 
ATOM     17  C   UNK A   0       5.682  14.782  17.853  0.00  0.00    +0.000 A 
ATOM     18  C   UNK A   0       6.498  15.087  18.937  0.00  0.00    +0.000 A 
ATOM     19 CL   UNK A   0       8.183  15.342  18.698  0.00  0.00    +0.000 Cl
ATOM     20  C   UNK A   0       5.959  15.179  20.219  0.00  0.00    +0.000 A 
ATOM     21  C   UNK A   0       4.591  14.966  20.419  0.00  0.00    +0.000 A 
ENDBRANCH  13  15
ENDBRANCH   1  11
BRANCH   5  22
ATOM     22  C   UNK A   0       2.199   7.620  19.025  0.00  0.00    +0.000 C 
ATOM     23  O   UNK A   0       2.696   7.990  17.965  0.00  0.00    +0.000 OA
ATOM     24  N   PHE A   1       2.293   6.318  19.464  0.00  0.00    +0.000 N 
ATOM     25  H   PHE A   1       1.948   6.038  20.377  0.00  0.00    +0.000 HD
BRANCH  24  26
ATOM     26  CA  PHE A   1       2.863   5.269  18.620  0.00  0.00    +0.000 C 
BRANCH  26  27
ATOM     27  C   PHE A   1       1.833   4.157  18.391  0.00  0.00    +0.000 C 
ATOM     28  O   PHE A   1       1.503   3.741  17.286  0.00  0.00    +0.000 OA
BRANCH  27  29
ATOM     29  OXT PHE A   1       1.337   3.613  19.530  0.00  0.00    +0.000 OA
ATOM     30  HXT PHE A   1       0.623   4.127  19.957  0.00  0.00    +0.000 HD
ENDBRANCH  27  29
ENDBRANCH  26  27
BRANCH  26  31
ATOM     31  CB  PHE A   1       4.209   4.739  19.130  0.00  0.00    +0.000 C 
BRANCH  31  32
ATOM     32  CG  PHE A   1       5.455   5.438  18.640  0.00  0.00    +0.000 A 
ATOM     33  CD1 PHE A   1       5.413   6.295  17.530  0.00  0.00    +0.000 A 
ATOM     34  CE1 PHE A   1       6.532   7.050  17.175  0.00  0.00    +0.000 A 
ATOM     35  CZ  PHE A   1       7.708   6.947  17.915  0.00  0.00    +0.000 A 
ATOM     36  CE2 PHE A   1       7.776   6.062  18.989  0.00  0.00    +0.000 A 
ATOM     37  CD2 PHE A   1       6.658   5.306  19.346  0.00  0.00    +0.000 A 
ENDBRANCH  31  32
ENDBRANCH  26  31
ENDBRANCH  24  26
ENDBRANCH   5  22
TORSDOF 8
ENDMDL
MODEL 3
REMARK VINA RESULT:      -8.2      0.283      1.320
REMARK  Name = 
REMARK  9 active torsions:
REMARK  status: ('A' for Active; 'I' for Inactive)
REMARK    1  A    between atoms: C_1  and  C_2
REMARK    2  A    between atoms: N_5  and  C_6
REMARK    3  A    between atoms: C_10  and  C_11
REMARK    4  A    between atoms: N_13  and  CA_14
REMARK    5  A    between atoms: CA_14  and  CB_15
REMARK    6  A    between atoms: CA_14  and  C_22
REMARK    7  A    between atoms: CB_15  and  CG_16
REMARK    8  A    between atoms: C_22  and  OXT_24
REMARK    9  A    between atoms: C_27  and  C_28
REMARK                            x       y       z     vdW  Elec       q    Type
REMARK                         _______ _______ _______ _____ _____    ______ ____
ROOT
ATOM      1  C   UNK A   0       0.554  10.455  19.952  0.00  0.00    +0.000 A 
ATOM      2  C   UNK A   0       0.499  10.477  21.354  0.00  0.00    +0.000 A 
ATOM      3  C   UNK A   0       0.965   9.393  22.098  0.00  0.00    +0.000 A 
ATOM      4  C   UNK A   0       1.526   8.291  21.451  0.00  0.00    +0.000 A 
ATOM      5  C   UNK A   0       1.613   8.260  20.053  0.00  0.00    +0.000 A 
ATOM      6  C   UNK A   0       1.118   9.339  19.313  0.00  0.00    +0.000 A 
ENDROOT
BRANCH   1  11
ATOM      7  C   UNK A   0       1.245  16.576  18.658  0.00  0.00    +0.000 C 
ATOM      8  C   UNK A   0       1.286  15.108  18.905  0.00  0.00    +0.000 A 
ATOM      9  S   UNK A   0      -0.176  14.199  18.856  0.00  0.00    +0.000 S 
ATOM     10  C   UNK A   0       0.697  12.753  19.160  0.00  0.00    +0.000 A 
ATOM     11  N   UNK A   0       0.061  11.559  19.230  0.00  0.00    +0.000 N 
ATOM     12  N   UNK A   0       1.992  12.919  19.284  0.00  0.00    +0.000 NA
ATOM     13  C   UNK A   0       2.348  14.248  19.148  0.00  0.00    +0.000 A 
ATOM     14  H   UNK A   0      -0.945  11.548  19.110  0.00  0.00    +0.000 HD
BRANCH  13  15
ATOM     15  C   UNK A   0       3.761  14.605  19.217  0.00  0.00    +0.000 A 
ATOM     16  C   UNK A   0       4.500  14.681  18.023  0.00  0.00    +0.000 A 
ATOM     17  C   UNK A   0       5.861  15.001  18.040  0.00  0.00    +0.000 A 
ATOM     18  C   UNK A   0       6.495  15.243  19.254  0.00  0.00    +0.000 A 
ATOM     19 CL   UNK A   0       8.168  15.644  19.284  0.00  0.00    +0.000 Cl
ATOM     20  C   UNK A   0       5.783  15.154  20.450  0.00  0.00    +0.000 A 
ATOM     21  C   UNK A   0       4.424  14.823  20.430  0.00  0.00    +0.000 A 
ENDBRANCH  13  15
ENDBRANCH   1  11
BRANCH   5  22
ATOM     22  C   UNK A   0       2.321   7.119  19.411  0.00  0.00    +0.000 C 
ATOM     23  O   UNK A   0       2.531   7.131  18.201  0.00  0.00    +0.000 OA
ATOM     24  N   PHE A   1       2.702   6.067  20.212  0.00  0.00    +0.000 N 
ATOM     25  H   PHE A   1       2.595   6.099  21.221  0.00  0.00    +0.000 HD
BRANCH  24  26
ATOM     26  CA  PHE A   1       3.248   4.835  19.643  0.00  0.00    +0.000 C 
BRANCH  26  27
ATOM     27  C   PHE A   1       2.730   3.619  20.419  0.00  0.00    +0.000 C 
ATOM     28  O   PHE A   1       2.304   3.666  21.568  0.00  0.00    +0.000 OA
BRANCH  27  29
ATOM     29  OXT PHE A   1       2.727   2.464  19.709  0.00  0.00    +0.000 OA
ATOM     30  HXT PHE A   1       1.856   2.026  19.637  0.00  0.00    +0.000 HD
ENDBRANCH  27  29
ENDBRANCH  26  27
BRANCH  26  31
ATOM     31  CB  PHE A   1       4.775   4.849  19.506  0.00  0.00    +0.000 C 
BRANCH  31  32
ATOM     32  CG  PHE A   1       5.346   4.620  18.127  0.00  0.00    +0.000 A 
ATOM     33  CD1 PHE A   1       4.505   4.460  17.015  0.00  0.00    +0.000 A 
ATOM     34  CE1 PHE A   1       5.039   4.398  15.727  0.00  0.00    +0.000 A 
ATOM     35  CZ  PHE A   1       6.416   4.479  15.536  0.00  0.00    +0.000 A 
ATOM     36  CE2 PHE A   1       7.264   4.588  16.636  0.00  0.00    +0.000 A 
ATOM     37  CD2 PHE A   1       6.732   4.651  17.925  0.00  0.00    +0.000 A 
ENDBRANCH  31  32
ENDBRANCH  26  31
ENDBRANCH  24  26
ENDBRANCH   5  22
TORSDOF 8
ENDMDL
MODEL 4
REMARK VINA RESULT:      -8.2      1.957      3.187
REMARK  Name = 
REMARK  9 active torsions:
REMARK  status: ('A' for Active; 'I' for Inactive)
REMARK    1  A    between atoms: C_1  and  C_2
REMARK    2  A    between atoms: N_5  and  C_6
REMARK    3  A    between atoms: C_10  and  C_11
REMARK    4  A    between atoms: N_13  and  CA_14
REMARK    5  A    between atoms: CA_14  and  CB_15
REMARK    6  A    between atoms: CA_14  and  C_22
REMARK    7  A    between atoms: CB_15  and  CG_16
REMARK    8  A    between atoms: C_22  and  OXT_24
REMARK    9  A    between atoms: C_27  and  C_28
REMARK                            x       y       z     vdW  Elec       q    Type
REMARK                         _______ _______ _______ _____ _____    ______ ____
ROOT
ATOM      1  C   UNK A   0       1.013   9.678  18.824  0.00  0.00    +0.000 A 
ATOM      2  C   UNK A   0       0.789   9.241  20.139  0.00  0.00    +0.000 A 
ATOM      3  C   UNK A   0       1.422   8.097  20.623  0.00  0.00    +0.000 A 
ATOM      4  C   UNK A   0       2.316   7.396  19.811  0.00  0.00    +0.000 A 
ATOM      5  C   UNK A   0       2.572   7.829  18.504  0.00  0.00    +0.000 A 
ATOM      6  C   UNK A   0       1.912   8.962  18.017  0.00  0.00    +0.000 A 
ENDROOT
BRANCH   1  11
ATOM      7  C   UNK A   0       0.703  15.961  19.013  0.00  0.00    +0.000 C 
ATOM      8  C   UNK A   0       0.982  14.502  18.913  0.00  0.00    +0.000 A 
ATOM      9  S   UNK A   0      -0.315  13.411  18.603  0.00  0.00    +0.000 S 
ATOM     10  C   UNK A   0       0.782  12.090  18.593  0.00  0.00    +0.000 A 
ATOM     11  N   UNK A   0       0.346  10.829  18.362  0.00  0.00    +0.000 N 
ATOM     12  N   UNK A   0       2.033  12.424  18.798  0.00  0.00    +0.000 NA
ATOM     13  C   UNK A   0       2.169  13.787  18.987  0.00  0.00    +0.000 A 
ATOM     14  H   UNK A   0      -0.645  10.688  18.207  0.00  0.00    +0.000 HD
BRANCH  13  15
ATOM     15  C   UNK A   0       3.507  14.337  19.186  0.00  0.00    +0.000 A 
ATOM     16  C   UNK A   0       4.337  14.523  18.067  0.00  0.00    +0.000 A 
ATOM     17  C   UNK A   0       5.632  15.028  18.211  0.00  0.00    +0.000 A 
ATOM     18  C   UNK A   0       6.109  15.347  19.478  0.00  0.00    +0.000 A 
ATOM     19 CL   UNK A   0       7.700  15.976  19.663  0.00  0.00    +0.000 Cl
ATOM     20  C   UNK A   0       5.308  15.151  20.601  0.00  0.00    +0.000 A 
ATOM     21  C   UNK A   0       4.016  14.634  20.456  0.00  0.00    +0.000 A 
ENDBRANCH  13  15
ENDBRANCH   1  11
BRANCH   5  22
ATOM     22  C   UNK A   0       3.616   7.121  17.713  0.00  0.00    +0.000 C 
ATOM     23  O   UNK A   0       3.682   7.286  16.498  0.00  0.00    +0.000 OA
ATOM     24  N   PHE A   1       4.470   6.277  18.386  0.00  0.00    +0.000 N 
ATOM     25  H   PHE A   1       4.460   6.206  19.399  0.00  0.00    +0.000 HD
BRANCH  24  26
ATOM     26  CA  PHE A   1       5.410   5.416  17.671  0.00  0.00    +0.000 C 
BRANCH  26  27
ATOM     27  C   PHE A   1       6.203   6.236  16.646  0.00  0.00    +0.000 C 
ATOM     28  O   PHE A   1       7.041   7.081  16.941  0.00  0.00    +0.000 OA
BRANCH  27  29
ATOM     29  OXT PHE A   1       5.945   5.914  15.354  0.00  0.00    +0.000 OA
ATOM     30  HXT PHE A   1       5.306   5.185  15.230  0.00  0.00    +0.000 HD
ENDBRANCH  27  29
ENDBRANCH  26  27
BRANCH  26  31
ATOM     31  CB  PHE A   1       4.756   4.171  17.059  0.00  0.00    +0.000 C 
BRANCH  31  32
ATOM     32  CG  PHE A   1       3.650   3.514  17.851  0.00  0.00    +0.000 A 
ATOM     33  CD1 PHE A   1       3.928   2.808  19.030  0.00  0.00    +0.000 A 
ATOM     34  CE1 PHE A   1       2.890   2.331  19.833  0.00  0.00    +0.000 A 
ATOM     35  CZ  PHE A   1       1.565   2.543  19.459  0.00  0.00    +0.000 A 
ATOM     36  CE2 PHE A   1       1.277   3.200  18.265  0.00  0.00    +0.000 A 
ATOM     37  CD2 PHE A   1       2.314   3.677  17.461  0.00  0.00    +0.000 A 
ENDBRANCH  31  32
ENDBRANCH  26  31
ENDBRANCH  24  26
ENDBRANCH   5  22
TORSDOF 8
ENDMDL
MODEL 5
REMARK VINA RESULT:      -8.2      0.690      1.220
REMARK  Name = 
REMARK  9 active torsions:
REMARK  status: ('A' for Active; 'I' for Inactive)
REMARK    1  A    between atoms: C_1  and  C_2
REMARK    2  A    between atoms: N_5  and  C_6
REMARK    3  A    between atoms: C_10  and  C_11
REMARK    4  A    between atoms: N_13  and  CA_14
REMARK    5  A    between atoms: CA_14  and  CB_15
REMARK    6  A    between atoms: CA_14  and  C_22
REMARK    7  A    between atoms: CB_15  and  CG_16
REMARK    8  A    between atoms: C_22  and  OXT_24
REMARK    9  A    between atoms: C_27  and  C_28
REMARK                            x       y       z     vdW  Elec       q    Type
REMARK                         _______ _______ _______ _____ _____    ______ ____
ROOT
ATOM      1  C   UNK A   0       0.569  10.699  19.832  0.00  0.00    +0.000 A 
ATOM      2  C   UNK A   0       0.501  10.608  21.231  0.00  0.00    +0.000 A 
ATOM      3  C   UNK A   0       0.926   9.453  21.886  0.00  0.00    +0.000 A 
ATOM      4  C   UNK A   0       1.459   8.390  21.155  0.00  0.00    +0.000 A 
ATOM      5  C   UNK A   0       1.558   8.471  19.760  0.00  0.00    +0.000 A 
ATOM      6  C   UNK A   0       1.104   9.622  19.107  0.00  0.00    +0.000 A 
ENDROOT
BRANCH   1  11
ATOM      7  C   UNK A   0       1.611  16.827  18.842  0.00  0.00    +0.000 C 
ATOM      8  C   UNK A   0       1.564  15.348  19.006  0.00  0.00    +0.000 A 
ATOM      9  S   UNK A   0       0.042  14.541  18.985  0.00  0.00    +0.000 S 
ATOM     10  C   UNK A   0       0.829  13.025  19.162  0.00  0.00    +0.000 A 
ATOM     11  N   UNK A   0       0.117  11.874  19.200  0.00  0.00    +0.000 N 
ATOM     12  N   UNK A   0       2.137  13.098  19.224  0.00  0.00    +0.000 NA
ATOM     13  C   UNK A   0       2.575  14.407  19.143  0.00  0.00    +0.000 A 
ATOM     14  H   UNK A   0      -0.893  11.936  19.134  0.00  0.00    +0.000 HD
BRANCH  13  15
ATOM     15  C   UNK A   0       4.011  14.667  19.154  0.00  0.00    +0.000 A 
ATOM     16  C   UNK A   0       4.725  14.586  17.945  0.00  0.00    +0.000 A 
ATOM     17  C   UNK A   0       6.104  14.807  17.910  0.00  0.00    +0.000 A 
ATOM     18  C   UNK A   0       6.783  15.107  19.087  0.00  0.00    +0.000 A 
ATOM     19 CL   UNK A   0       8.480  15.388  19.051  0.00  0.00    +0.000 Cl
ATOM     20  C   UNK A   0       6.096  15.173  20.298  0.00  0.00    +0.000 A 
ATOM     21  C   UNK A   0       4.717  14.939  20.332  0.00  0.00    +0.000 A 
ENDBRANCH  13  15
ENDBRANCH   1  11
BRANCH   5  22
ATOM     22  C   UNK A   0       2.236   7.365  19.030  0.00  0.00    +0.000 C 
ATOM     23  O   UNK A   0       2.864   7.602  18.002  0.00  0.00    +0.000 OA
ATOM     24  N   PHE A   1       2.114   6.091  19.538  0.00  0.00    +0.000 N 
ATOM     25  H   PHE A   1       1.661   5.914  20.430  0.00  0.00    +0.000 HD
BRANCH  24  26
ATOM     26  CA  PHE A   1       2.601   4.927  18.799  0.00  0.00    +0.000 C 
BRANCH  26  27
ATOM     27  C   PHE A   1       1.597   3.774  18.908  0.00  0.00    +0.000 C 
ATOM     28  O   PHE A   1       0.907   3.553  19.896  0.00  0.00    +0.000 OA
BRANCH  27  29
ATOM     29  OXT PHE A   1       1.484   3.025  17.783  0.00  0.00    +0.000 OA
ATOM     30  HXT PHE A   1       2.084   2.255  17.737  0.00  0.00    +0.000 HD
ENDBRANCH  27  29
ENDBRANCH  26  27
BRANCH  26  31
ATOM     31  CB  PHE A   1       4.028   4.513  19.182  0.00  0.00    +0.000 C 
BRANCH  31  32
ATOM     32  CG  PHE A   1       5.077   4.573  18.098  0.00  0.00    +0.000 A 
ATOM     33  CD1 PHE A   1       6.417   4.853  18.404  0.00  0.00    +0.000 A 
ATOM     34  CE1 PHE A   1       7.403   4.762  17.420  0.00  0.00    +0.000 A 
ATOM     35  CZ  PHE A   1       7.060   4.403  16.118  0.00  0.00    +0.000 A 
ATOM     36  CE2 PHE A   1       5.726   4.171  15.792  0.00  0.00    +0.000 A 
ATOM     37  CD2 PHE A   1       4.739   4.262  16.774  0.00  0.00    +0.000 A 
ENDBRANCH  31  32
ENDBRANCH  26  31
ENDBRANCH  24  26
ENDBRANCH   5  22
TORSDOF 8
ENDMDL
MODEL 6
REMARK VINA RESULT:      -8.1      1.888      3.206
REMARK  Name = 
REMARK  9 active torsions:
REMARK  status: ('A' for Active; 'I' for Inactive)
REMARK    1  A    between atoms: C_1  and  C_2
REMARK    2  A    between atoms: N_5  and  C_6
REMARK    3  A    between atoms: C_10  and  C_11
REMARK    4  A    between atoms: N_13  and  CA_14
REMARK    5  A    between atoms: CA_14  and  CB_15
REMARK    6  A    between atoms: CA_14  and  C_22
REMARK    7  A    between atoms: CB_15  and  CG_16
REMARK    8  A    between atoms: C_22  and  OXT_24
REMARK    9  A    between atoms: C_27  and  C_28
REMARK                            x       y       z     vdW  Elec       q    Type
REMARK                         _______ _______ _______ _____ _____    ______ ____
ROOT
ATOM      1  C   UNK A   0       0.816   9.689  19.293  0.00  0.00    +0.000 A 
ATOM      2  C   UNK A   0       0.332   9.560  20.604  0.00  0.00    +0.000 A 
ATOM      3  C   UNK A   0       0.690   8.463  21.386  0.00  0.00    +0.000 A 
ATOM      4  C   UNK A   0       1.566   7.500  20.882  0.00  0.00    +0.000 A 
ATOM      5  C   UNK A   0       2.080   7.623  19.584  0.00  0.00    +0.000 A 
ATOM      6  C   UNK A   0       1.694   8.712  18.796  0.00  0.00    +0.000 A 
ENDROOT
BRANCH   1  11
ATOM      7  C   UNK A   0       0.891  15.961  18.768  0.00  0.00    +0.000 C 
ATOM      8  C   UNK A   0       1.086  14.491  18.909  0.00  0.00    +0.000 A 
ATOM      9  S   UNK A   0      -0.103  13.415  18.280  0.00  0.00    +0.000 S 
ATOM     10  C   UNK A   0       0.840  12.066  18.770  0.00  0.00    +0.000 A 
ATOM     11  N   UNK A   0       0.423  10.802  18.524  0.00  0.00    +0.000 N 
ATOM     12  N   UNK A   0       1.971  12.381  19.355  0.00  0.00    +0.000 NA
ATOM     13  C   UNK A   0       2.128  13.752  19.450  0.00  0.00    +0.000 A 
ATOM     14  H   UNK A   0      -0.467  10.676  18.056  0.00  0.00    +0.000 HD
BRANCH  13  15
ATOM     15  C   UNK A   0       3.356  14.277  20.039  0.00  0.00    +0.000 A 
ATOM     16  C   UNK A   0       4.373  14.741  19.187  0.00  0.00    +0.000 A 
ATOM     17  C   UNK A   0       5.573  15.235  19.705  0.00  0.00    +0.000 A 
ATOM     18  C   UNK A   0       5.768  15.264  21.082  0.00  0.00    +0.000 A 
ATOM     19 CL   UNK A   0       7.240  15.877  21.728  0.00  0.00    +0.000 Cl
ATOM     20  C   UNK A   0       4.779  14.790  21.942  0.00  0.00    +0.000 A 
ATOM     21  C   UNK A   0       3.583  14.285  21.420  0.00  0.00    +0.000 A 
ENDBRANCH  13  15
ENDBRANCH   1  11
BRANCH   5  22
ATOM     22  C   UNK A   0       3.098   6.638  19.128  0.00  0.00    +0.000 C 
ATOM     23  O   UNK A   0       3.583   5.842  19.927  0.00  0.00    +0.000 OA
ATOM     24  N   PHE A   1       3.477   6.672  17.804  0.00  0.00    +0.000 N 
ATOM     25  H   PHE A   1       3.015   7.280  17.134  0.00  0.00    +0.000 HD
BRANCH  24  26
ATOM     26  CA  PHE A   1       4.587   5.860  17.309  0.00  0.00    +0.000 C 
BRANCH  26  27
ATOM     27  C   PHE A   1       5.543   6.723  16.478  0.00  0.00    +0.000 C 
ATOM     28  O   PHE A   1       6.568   7.232  16.917  0.00  0.00    +0.000 OA
BRANCH  27  29
ATOM     29  OXT PHE A   1       5.195   6.843  15.173  0.00  0.00    +0.000 OA
ATOM     30  HXT PHE A   1       4.412   6.324  14.905  0.00  0.00    +0.000 HD
ENDBRANCH  27  29
ENDBRANCH  26  27
BRANCH  26  31
ATOM     31  CB  PHE A   1       4.136   4.592  16.573  0.00  0.00    +0.000 C 
BRANCH  31  32
ATOM     32  CG  PHE A   1       3.301   3.603  17.351  0.00  0.00    +0.000 A 
ATOM     33  CD1 PHE A   1       3.889   2.484  17.959  0.00  0.00    +0.000 A 
ATOM     34  CE1 PHE A   1       3.138   1.658  18.798  0.00  0.00    +0.000 A 
ATOM     35  CZ  PHE A   1       1.791   1.932  19.026  0.00  0.00    +0.000 A 
ATOM     36  CE2 PHE A   1       1.186   3.012  18.388  0.00  0.00    +0.000 A 
ATOM     37  CD2 PHE A   1       1.934   3.839  17.549  0.00  0.00    +0.000 A 
ENDBRANCH  31  32
ENDBRANCH  26  31
ENDBRANCH  24  26
ENDBRANCH   5  22
TORSDOF 8
ENDMDL
MODEL 7
REMARK VINA RESULT:      -8.1      3.252      5.032
REMARK  Name = 
REMARK  9 active torsions:
REMARK  status: ('A' for Active; 'I' for Inactive)
REMARK    1  A    between atoms: C_1  and  C_2
REMARK    2  A    between atoms: N_5  and  C_6
REMARK    3  A    between atoms: C_10  and  C_11
REMARK    4  A    between atoms: N_13  and  CA_14
REMARK    5  A    between atoms: CA_14  and  CB_15
REMARK    6  A    between atoms: CA_14  and  C_22
REMARK    7  A    between atoms: CB_15  and  CG_16
REMARK    8  A    between atoms: C_22  and  OXT_24
REMARK    9  A    between atoms: C_27  and  C_28
REMARK                            x       y       z     vdW  Elec       q    Type
REMARK                         _______ _______ _______ _____ _____    ______ ____
ROOT
ATOM      1  C   UNK A   0       1.113   8.707  19.824  0.00  0.00    +0.000 A 
ATOM      2  C   UNK A   0       1.180   9.552  18.705  0.00  0.00    +0.000 A 
ATOM      3  C   UNK A   0       2.082   9.291  17.674  0.00  0.00    +0.000 A 
ATOM      4  C   UNK A   0       2.903   8.163  17.731  0.00  0.00    +0.000 A 
ATOM      5  C   UNK A   0       2.834   7.294  18.828  0.00  0.00    +0.000 A 
ATOM      6  C   UNK A   0       1.946   7.578  19.871  0.00  0.00    +0.000 A 
ENDROOT
BRANCH   1  11
ATOM      7  C   UNK A   0      -1.370  13.213  23.450  0.00  0.00    +0.000 C 
ATOM      8  C   UNK A   0      -0.841  12.269  22.426  0.00  0.00    +0.000 A 
ATOM      9  S   UNK A   0      -0.676  10.600  22.819  0.00  0.00    +0.000 S 
ATOM     10  C   UNK A   0      -0.116  10.269  21.230  0.00  0.00    +0.000 A 
ATOM     11  N   UNK A   0       0.202   9.007  20.855  0.00  0.00    +0.000 N 
ATOM     12  N   UNK A   0      -0.059  11.319  20.446  0.00  0.00    +0.000 NA
ATOM     13  C   UNK A   0      -0.461  12.465  21.106  0.00  0.00    +0.000 A 
ATOM     14  H   UNK A   0       0.111   8.268  21.543  0.00  0.00    +0.000 HD
BRANCH  13  15
ATOM     15  C   UNK A   0      -0.500  13.723  20.366  0.00  0.00    +0.000 A 
ATOM     16  C   UNK A   0       0.434  13.932  19.336  0.00  0.00    +0.000 A 
ATOM     17  C   UNK A   0       0.448  15.128  18.612  0.00  0.00    +0.000 A 
ATOM     18  C   UNK A   0      -0.470  16.127  18.917  0.00  0.00    +0.000 A 
ATOM     19 CL   UNK A   0      -0.464  17.599  18.026  0.00  0.00    +0.000 Cl
ATOM     20  C   UNK A   0      -1.391  15.945  19.948  0.00  0.00    +0.000 A 
ATOM     21  C   UNK A   0      -1.395  14.752  20.678  0.00  0.00    +0.000 A 
ENDBRANCH  13  15
ENDBRANCH   1  11
BRANCH   5  22
ATOM     22  C   UNK A   0       3.642   6.045  18.795  0.00  0.00    +0.000 C 
ATOM     23  O   UNK A   0       4.294   5.710  19.781  0.00  0.00    +0.000 OA
ATOM     24  N   PHE A   1       3.643   5.310  17.631  0.00  0.00    +0.000 N 
ATOM     25  H   PHE A   1       3.041   5.551  16.849  0.00  0.00    +0.000 HD
BRANCH  24  26
ATOM     26  CA  PHE A   1       4.536   4.167  17.452  0.00  0.00    +0.000 C 
BRANCH  26  27
ATOM     27  C   PHE A   1       5.225   4.243  16.084  0.00  0.00    +0.000 C 
ATOM     28  O   PHE A   1       5.213   5.233  15.362  0.00  0.00    +0.000 OA
BRANCH  27  29
ATOM     29  OXT PHE A   1       5.913   3.125  15.743  0.00  0.00    +0.000 OA
ATOM     30  HXT PHE A   1       6.782   3.026  16.180  0.00  0.00    +0.000 HD
ENDBRANCH  27  29
ENDBRANCH  26  27
BRANCH  26  31
ATOM     31  CB  PHE A   1       3.857   2.815  17.702  0.00  0.00    +0.000 C 
BRANCH  31  32
ATOM     32  CG  PHE A   1       2.944   2.714  18.901  0.00  0.00    +0.000 A 
ATOM     33  CD1 PHE A   1       3.463   2.545  20.193  0.00  0.00    +0.000 A 
ATOM     34  CE1 PHE A   1       2.624   2.601  21.307  0.00  0.00    +0.000 A 
ATOM     35  CZ  PHE A   1       1.257   2.812  21.142  0.00  0.00    +0.000 A 
ATOM     36  CE2 PHE A   1       0.723   2.931  19.861  0.00  0.00    +0.000 A 
ATOM     37  CD2 PHE A   1       1.560   2.875  18.746  0.00  0.00    +0.000 A 
ENDBRANCH  31  32
ENDBRANCH  26  31
ENDBRANCH  24  26
ENDBRANCH   5  22
TORSDOF 8
ENDMDL
MODEL 8
REMARK VINA RESULT:      -8.1      4.388      6.363
REMARK  Name = 
REMARK  9 active torsions:
REMARK  status: ('A' for Active; 'I' for Inactive)
REMARK    1  A    between atoms: C_1  and  C_2
REMARK    2  A    between atoms: N_5  and  C_6
REMARK    3  A    between atoms: C_10  and  C_11
REMARK    4  A    between atoms: N_13  and  CA_14
REMARK    5  A    between atoms: CA_14  and  CB_15
REMARK    6  A    between atoms: CA_14  and  C_22
REMARK    7  A    between atoms: CB_15  and  CG_16
REMARK    8  A    between atoms: C_22  and  OXT_24
REMARK    9  A    between atoms: C_27  and  C_28
REMARK                            x       y       z     vdW  Elec       q    Type
REMARK                         _______ _______ _______ _____ _____    ______ ____
ROOT
ATOM      1  C   UNK A   0       2.005   6.282  20.315  0.00  0.00    +0.000 A 
ATOM      2  C   UNK A   0       1.256   5.097  20.384  0.00  0.00    +0.000 A 
ATOM      3  C   UNK A   0       1.444   4.085  19.443  0.00  0.00    +0.000 A 
ATOM      4  C   UNK A   0       2.408   4.229  18.444  0.00  0.00    +0.000 A 
ATOM      5  C   UNK A   0       3.183   5.394  18.373  0.00  0.00    +0.000 A 
ATOM      6  C   UNK A   0       2.970   6.416  19.303  0.00  0.00    +0.000 A 
ENDROOT
BRANCH   1  11
ATOM      7  C   UNK A   0       0.145  12.212  21.308  0.00  0.00    +0.000 C 
ATOM      8  C   UNK A   0       0.398  10.783  20.972  0.00  0.00    +0.000 A 
ATOM      9  S   UNK A   0       1.492   9.867  21.938  0.00  0.00    +0.000 S 
ATOM     10  C   UNK A   0       1.181   8.471  20.988  0.00  0.00    +0.000 A 
ATOM     11  N   UNK A   0       1.781   7.291  21.272  0.00  0.00    +0.000 N 
ATOM     12  N   UNK A   0       0.317   8.657  20.019  0.00  0.00    +0.000 NA
ATOM     13  C   UNK A   0      -0.136   9.964  19.988  0.00  0.00    +0.000 A 
ATOM     14  H   UNK A   0       2.427   7.261  22.052  0.00  0.00    +0.000 HD
BRANCH  13  15
ATOM     15  C   UNK A   0      -1.139  10.334  18.994  0.00  0.00    +0.000 A 
ATOM     16  C   UNK A   0      -1.111   9.706  17.737  0.00  0.00    +0.000 A 
ATOM     17  C   UNK A   0      -2.039  10.042  16.747  0.00  0.00    +0.000 A 
ATOM     18  C   UNK A   0      -3.000  11.013  17.006  0.00  0.00    +0.000 A 
ATOM     19 CL   UNK A   0      -4.151  11.428  15.795  0.00  0.00    +0.000 Cl
ATOM     20  C   UNK A   0      -3.031  11.660  18.240  0.00  0.00    +0.000 A 
ATOM     21  C   UNK A   0      -2.094  11.331  19.225  0.00  0.00    +0.000 A 
ENDBRANCH  13  15
ENDBRANCH   1  11
BRANCH   5  22
ATOM     22  C   UNK A   0       4.277   5.458  17.365  0.00  0.00    +0.000 C 
ATOM     23  O   UNK A   0       4.613   6.541  16.893  0.00  0.00    +0.000 OA
ATOM     24  N   PHE A   1       4.866   4.275  16.979  0.00  0.00    +0.000 N 
ATOM     25  H   PHE A   1       4.637   3.394  17.430  0.00  0.00    +0.000 HD
BRANCH  24  26
ATOM     26  CA  PHE A   1       5.825   4.226  15.877  0.00  0.00    +0.000 C 
BRANCH  26  27
ATOM     27  C   PHE A   1       7.140   4.897  16.289  0.00  0.00    +0.000 C 
ATOM     28  O   PHE A   1       7.589   5.910  15.766  0.00  0.00    +0.000 OA
BRANCH  27  29
ATOM     29  OXT PHE A   1       7.763   4.306  17.339  0.00  0.00    +0.000 OA
ATOM     30  HXT PHE A   1       7.275   3.562  17.743  0.00  0.00    +0.000 HD
ENDBRANCH  27  29
ENDBRANCH  26  27
BRANCH  26  31
ATOM     31  CB  PHE A   1       5.267   4.770  14.556  0.00  0.00    +0.000 C 
BRANCH  31  32
ATOM     32  CG  PHE A   1       5.607   4.007  13.297  0.00  0.00    +0.000 A 
ATOM     33  CD1 PHE A   1       6.941   3.810  12.911  0.00  0.00    +0.000 A 
ATOM     34  CE1 PHE A   1       7.251   2.980  11.832  0.00  0.00    +0.000 A 
ATOM     35  CZ  PHE A   1       6.232   2.352  11.118  0.00  0.00    +0.000 A 
ATOM     36  CE2 PHE A   1       4.901   2.581  11.462  0.00  0.00    +0.000 A 
ATOM     37  CD2 PHE A   1       4.590   3.409  12.541  0.00  0.00    +0.000 A 
ENDBRANCH  31  32
ENDBRANCH  26  31
ENDBRANCH  24  26
ENDBRANCH   5  22
TORSDOF 8
ENDMDL
MODEL 9
REMARK VINA RESULT:      -8.1      1.913      3.129
REMARK  Name = 
REMARK  9 active torsions:
REMARK  status: ('A' for Active; 'I' for Inactive)
REMARK    1  A    between atoms: C_1  and  C_2
REMARK    2  A    between atoms: N_5  and  C_6
REMARK    3  A    between atoms: C_10  and  C_11
REMARK    4  A    between atoms: N_13  and  CA_14
REMARK    5  A    between atoms: CA_14  and  CB_15
REMARK    6  A    between atoms: CA_14  and  C_22
REMARK    7  A    between atoms: CB_15  and  CG_16
REMARK    8  A    between atoms: C_22  and  OXT_24
REMARK    9  A    between atoms: C_27  and  C_28
REMARK                            x       y       z     vdW  Elec       q    Type
REMARK                         _______ _______ _______ _____ _____    ______ ____
ROOT
ATOM      1  C   UNK A   0       0.822   9.718  19.285  0.00  0.00    +0.000 A 
ATOM      2  C   UNK A   0       0.349   9.596  20.601  0.00  0.00    +0.000 A 
ATOM      3  C   UNK A   0       0.701   8.496  21.381  0.00  0.00    +0.000 A 
ATOM      4  C   UNK A   0       1.560   7.521  20.869  0.00  0.00    +0.000 A 
ATOM      5  C   UNK A   0       2.062   7.636  19.566  0.00  0.00    +0.000 A 
ATOM      6  C   UNK A   0       1.682   8.729  18.780  0.00  0.00    +0.000 A 
ENDROOT
BRANCH   1  11
ATOM      7  C   UNK A   0       0.836  15.995  18.828  0.00  0.00    +0.000 C 
ATOM      8  C   UNK A   0       1.045  14.526  18.958  0.00  0.00    +0.000 A 
ATOM      9  S   UNK A   0      -0.115  13.444  18.288  0.00  0.00    +0.000 S 
ATOM     10  C   UNK A   0       0.831  12.101  18.787  0.00  0.00    +0.000 A 
ATOM     11  N   UNK A   0       0.435  10.834  18.518  0.00  0.00    +0.000 N 
ATOM     12  N   UNK A   0       1.943  12.422  19.404  0.00  0.00    +0.000 NA
ATOM     13  C   UNK A   0       2.082  13.793  19.517  0.00  0.00    +0.000 A 
ATOM     14  H   UNK A   0      -0.441  10.704  18.026  0.00  0.00    +0.000 HD
BRANCH  13  15
ATOM     15  C   UNK A   0       3.288  14.325  20.143  0.00  0.00    +0.000 A 
ATOM     16  C   UNK A   0       3.339  14.422  21.544  0.00  0.00    +0.000 A 
ATOM     17  C   UNK A   0       4.466  14.943  22.187  0.00  0.00    +0.000 A 
ATOM     18  C   UNK A   0       5.550  15.377  21.431  0.00  0.00    +0.000 A 
ATOM     19 CL   UNK A   0       6.944  16.013  22.215  0.00  0.00    +0.000 Cl
ATOM     20  C   UNK A   0       5.510  15.306  20.039  0.00  0.00    +0.000 A 
ATOM     21  C   UNK A   0       4.377  14.795  19.398  0.00  0.00    +0.000 A 
ENDBRANCH  13  15
ENDBRANCH   1  11
BRANCH   5  22
ATOM     22  C   UNK A   0       3.063   6.638  19.100  0.00  0.00    +0.000 C 
ATOM     23  O   UNK A   0       3.556   5.846  19.898  0.00  0.00    +0.000 OA
ATOM     24  N   PHE A   1       3.416   6.655  17.770  0.00  0.00    +0.000 N 
ATOM     25  H   PHE A   1       2.947   7.259  17.102  0.00  0.00    +0.000 HD
BRANCH  24  26
ATOM     26  CA  PHE A   1       4.510   5.828  17.262  0.00  0.00    +0.000 C 
BRANCH  26  27
ATOM     27  C   PHE A   1       5.427   6.661  16.359  0.00  0.00    +0.000 C 
ATOM     28  O   PHE A   1       5.288   6.766  15.146  0.00  0.00    +0.000 OA
BRANCH  27  29
ATOM     29  OXT PHE A   1       6.400   7.336  17.021  0.00  0.00    +0.000 OA
ATOM     30  HXT PHE A   1       6.542   8.256  16.721  0.00  0.00    +0.000 HD
ENDBRANCH  27  29
ENDBRANCH  26  27
BRANCH  26  31
ATOM     31  CB  PHE A   1       4.037   4.530  16.596  0.00  0.00    +0.000 C 
BRANCH  31  32
ATOM     32  CG  PHE A   1       3.232   3.574  17.443  0.00  0.00    +0.000 A 
ATOM     33  CD1 PHE A   1       3.860   2.561  18.183  0.00  0.00    +0.000 A 
ATOM     34  CE1 PHE A   1       3.126   1.778  19.077  0.00  0.00    +0.000 A 
ATOM     35  CZ  PHE A   1       1.758   1.989  19.230  0.00  0.00    +0.000 A 
ATOM     36  CE2 PHE A   1       1.115   2.959  18.463  0.00  0.00    +0.000 A 
ATOM     37  CD2 PHE A   1       1.847   3.743  17.570  0.00  0.00    +0.000 A 
ENDBRANCH  31  32
ENDBRANCH  26  31
ENDBRANCH  24  26
ENDBRANCH   5  22
TORSDOF 8
ENDMDL
