MODEL 1
REMARK VINA RESULT:      -7.6      0.000      0.000
REMARK  Name = 
REMARK  5 active torsions:
REMARK  status: ('A' for Active; 'I' for Inactive)
REMARK    1  A    between atoms: C_1  and  C_2
REMARK    2  A    between atoms: C_2  and  C_17
REMARK    3  A    between atoms: N_3  and  N_4
REMARK    4  A    between atoms: N_4  and  C_5
REMARK    5  A    between atoms: C_5  and  N_7
REMARK                            x       y       z     vdW  Elec       q    Type
REMARK                         _______ _______ _______ _____ _____    ______ ____
ROOT
ATOM      1  C   UNL     1       2.748   4.255  18.663  0.00  0.00    +0.000 C 
ATOM      2  S   UNL     1       1.477   3.168  18.896  0.00  0.00    +0.000 S 
ENDROOT
BRANCH   1   3
ATOM      3  N   UNL     1       2.625   5.660  18.782  0.00  0.00    +0.000 N 
ATOM      4  C   UNL     1       2.610   6.539  17.598  0.00  0.00    +0.000 C 
ATOM      5  C   UNL     1       2.807   8.034  17.863  0.00  0.00    +0.000 C 
ATOM      6  C   UNL     1       1.931   8.472  18.998  0.00  0.00    +0.000 A 
ATOM      7  C   UNL     1       1.245   9.687  18.992  0.00  0.00    +0.000 A 
ATOM      8  C   UNL     1       0.447  10.034  20.079  0.00  0.00    +0.000 A 
ATOM      9  C   UNL     1       0.348   9.181  21.179  0.00  0.00    +0.000 A 
ATOM     10  C   UNL     1       1.046   7.973  21.197  0.00  0.00    +0.000 A 
ATOM     11  C   UNL     1       1.837   7.610  20.102  0.00  0.00    +0.000 A 
ATOM     12  C   UNL     1       2.633   6.327  20.095  0.00  0.00    +0.000 C 
ENDBRANCH   1   3
BRANCH   1  13
ATOM     13  N   UNL     1       4.039   3.831  18.366  0.00  0.00    +0.000 N 
ATOM     14  H   UNL     1       4.686   3.570  19.105  0.00  0.00    +0.000 HD
BRANCH  13  17
ATOM     15  C   UNL     1       5.911   3.762  15.235  0.00  0.00    +0.000 C 
ATOM     16  C   UNL     1       5.501   4.168  16.638  0.00  0.00    +0.000 C 
ATOM     17  N   UNL     1       4.448   3.551  17.100  0.00  0.00    +0.000 NA
BRANCH  16  18
ATOM     18  C   UNL     1       6.370   5.182  17.352  0.00  0.00    +0.000 A 
ATOM     19  C   UNL     1       6.551   6.468  16.851  0.00  0.00    +0.000 A 
ATOM     20  C   UNL     1       7.415   7.336  17.520  0.00  0.00    +0.000 A 
ATOM     21  C   UNL     1       8.069   6.905  18.666  0.00  0.00    +0.000 A 
ATOM     22  C   UNL     1       7.822   5.621  19.112  0.00  0.00    +0.000 A 
ATOM     23  N   UNL     1       6.994   4.753  18.487  0.00  0.00    +0.000 NA
ENDBRANCH  16  18
ENDBRANCH  13  17
ENDBRANCH   1  13
TORSDOF 4
ENDMDL
MODEL 2
REMARK VINA RESULT:      -7.3      1.303      2.325
REMARK  Name = 
REMARK  5 active torsions:
REMARK  status: ('A' for Active; 'I' for Inactive)
REMARK    1  A    between atoms: C_1  and  C_2
REMARK    2  A    between atoms: C_2  and  C_17
REMARK    3  A    between atoms: N_3  and  N_4
REMARK    4  A    between atoms: N_4  and  C_5
REMARK    5  A    between atoms: C_5  and  N_7
REMARK                            x       y       z     vdW  Elec       q    Type
REMARK                         _______ _______ _______ _____ _____    ______ ____
ROOT
ATOM      1  C   UNL     1       3.907   3.153  18.342  0.00  0.00    +0.000 C 
ATOM      2  S   UNL     1       3.457   1.526  18.365  0.00  0.00    +0.000 S 
ENDROOT
BRANCH   1   3
ATOM      3  N   UNL     1       3.111   4.206  18.854  0.00  0.00    +0.000 N 
ATOM      4  C   UNL     1       2.895   4.380  20.303  0.00  0.00    +0.000 C 
ATOM      5  C   UNL     1       1.766   5.331  20.708  0.00  0.00    +0.000 C 
ATOM      6  C   UNL     1       1.859   6.602  19.917  0.00  0.00    +0.000 A 
ATOM      7  C   UNL     1       1.633   7.856  20.482  0.00  0.00    +0.000 A 
ATOM      8  C   UNL     1       1.735   8.998  19.691  0.00  0.00    +0.000 A 
ATOM      9  C   UNL     1       2.042   8.887  18.334  0.00  0.00    +0.000 A 
ATOM     10  C   UNL     1       2.251   7.632  17.761  0.00  0.00    +0.000 A 
ATOM     11  C   UNL     1       2.167   6.483  18.552  0.00  0.00    +0.000 A 
ATOM     12  C   UNL     1       2.355   5.105  17.964  0.00  0.00    +0.000 C 
ENDBRANCH   1   3
BRANCH   1  13
ATOM     13  N   UNL     1       5.134   3.575  17.840  0.00  0.00    +0.000 N 
ATOM     14  H   UNL     1       5.947   3.655  18.445  0.00  0.00    +0.000 HD
BRANCH  13  17
ATOM     15  C   UNL     1       6.436   4.704  14.624  0.00  0.00    +0.000 C 
ATOM     16  C   UNL     1       6.191   4.654  16.120  0.00  0.00    +0.000 C 
ATOM     17  N   UNL     1       5.375   3.712  16.509  0.00  0.00    +0.000 NA
BRANCH  16  18
ATOM     18  C   UNL     1       6.944   5.644  16.984  0.00  0.00    +0.000 A 
ATOM     19  C   UNL     1       7.548   5.258  18.176  0.00  0.00    +0.000 A 
ATOM     20  C   UNL     1       8.172   6.229  18.960  0.00  0.00    +0.000 A 
ATOM     21  C   UNL     1       8.182   7.551  18.536  0.00  0.00    +0.000 A 
ATOM     22  C   UNL     1       7.578   7.852  17.330  0.00  0.00    +0.000 A 
ATOM     23  N   UNL     1       6.962   6.936  16.548  0.00  0.00    +0.000 NA
ENDBRANCH  16  18
ENDBRANCH  13  17
ENDBRANCH   1  13
TORSDOF 4
ENDMDL
MODEL 3
REMARK VINA RESULT:      -7.3      1.549      3.112
REMARK  Name = 
REMARK  5 active torsions:
REMARK  status: ('A' for Active; 'I' for Inactive)
REMARK    1  A    between atoms: C_1  and  C_2
REMARK    2  A    between atoms: C_2  and  C_17
REMARK    3  A    between atoms: N_3  and  N_4
REMARK    4  A    between atoms: N_4  and  C_5
REMARK    5  A    between atoms: C_5  and  N_7
REMARK                            x       y       z     vdW  Elec       q    Type
REMARK                         _______ _______ _______ _____ _____    ______ ____
ROOT
ATOM      1  C   UNL     1       4.465   3.282  19.642  0.00  0.00    +0.000 C 
ATOM      2  S   UNL     1       4.323   1.809  20.454  0.00  0.00    +0.000 S 
ENDROOT
BRANCH   1   3
ATOM      3  N   UNL     1       3.496   4.312  19.688  0.00  0.00    +0.000 N 
ATOM      4  C   UNL     1       2.830   4.693  20.948  0.00  0.00    +0.000 C 
ATOM      5  C   UNL     1       1.583   5.572  20.815  0.00  0.00    +0.000 C 
ATOM      6  C   UNL     1       1.853   6.701  19.866  0.00  0.00    +0.000 A 
ATOM      7  C   UNL     1       1.398   8.000  20.094  0.00  0.00    +0.000 A 
ATOM      8  C   UNL     1       1.683   9.003  19.172  0.00  0.00    +0.000 A 
ATOM      9  C   UNL     1       2.403   8.709  18.013  0.00  0.00    +0.000 A 
ATOM     10  C   UNL     1       2.845   7.408  17.772  0.00  0.00    +0.000 A 
ATOM     11  C   UNL     1       2.577   6.398  18.701  0.00  0.00    +0.000 A 
ATOM     12  C   UNL     1       3.010   4.971  18.463  0.00  0.00    +0.000 C 
ENDBRANCH   1   3
BRANCH   1  13
ATOM     13  N   UNL     1       5.586   3.605  18.884  0.00  0.00    +0.000 N 
ATOM     14  H   UNL     1       5.714   3.224  17.950  0.00  0.00    +0.000 HD
BRANCH  13  17
ATOM     15  C   UNL     1       7.878   6.443  18.818  0.00  0.00    +0.000 C 
ATOM     16  C   UNL     1       6.945   5.358  18.317  0.00  0.00    +0.000 C 
ATOM     17  N   UNL     1       6.462   4.579  19.247  0.00  0.00    +0.000 NA
BRANCH  16  18
ATOM     18  C   UNL     1       6.640   5.330  16.834  0.00  0.00    +0.000 A 
ATOM     19  C   UNL     1       5.637   6.119  16.282  0.00  0.00    +0.000 A 
ATOM     20  C   UNL     1       5.360   6.001  14.919  0.00  0.00    +0.000 A 
ATOM     21  C   UNL     1       6.090   5.109  14.145  0.00  0.00    +0.000 A 
ATOM     22  C   UNL     1       7.084   4.375  14.763  0.00  0.00    +0.000 A 
ATOM     23  N   UNL     1       7.376   4.462  16.081  0.00  0.00    +0.000 NA
ENDBRANCH  16  18
ENDBRANCH  13  17
ENDBRANCH   1  13
TORSDOF 4
ENDMDL
MODEL 4
REMARK VINA RESULT:      -7.2      1.222      2.228
REMARK  Name = 
REMARK  5 active torsions:
REMARK  status: ('A' for Active; 'I' for Inactive)
REMARK    1  A    between atoms: C_1  and  C_2
REMARK    2  A    between atoms: C_2  and  C_17
REMARK    3  A    between atoms: N_3  and  N_4
REMARK    4  A    between atoms: N_4  and  C_5
REMARK    5  A    between atoms: C_5  and  N_7
REMARK                            x       y       z     vdW  Elec       q    Type
REMARK                         _______ _______ _______ _____ _____    ______ ____
ROOT
ATOM      1  C   UNL     1       4.028   2.847  18.465  0.00  0.00    +0.000 C 
ATOM      2  S   UNL     1       3.707   1.190  18.521  0.00  0.00    +0.000 S 
ENDROOT
BRANCH   1   3
ATOM      3  N   UNL     1       3.172   3.841  18.996  0.00  0.00    +0.000 N 
ATOM      4  C   UNL     1       2.839   3.890  20.432  0.00  0.00    +0.000 C 
ATOM      5  C   UNL     1       1.662   4.788  20.822  0.00  0.00    +0.000 C 
ATOM      6  C   UNL     1       1.790   6.121  20.148  0.00  0.00    +0.000 A 
ATOM      7  C   UNL     1       1.493   7.321  20.794  0.00  0.00    +0.000 A 
ATOM      8  C   UNL     1       1.633   8.526  20.109  0.00  0.00    +0.000 A 
ATOM      9  C   UNL     1       2.048   8.533  18.777  0.00  0.00    +0.000 A 
ATOM     10  C   UNL     1       2.329   7.334  18.122  0.00  0.00    +0.000 A 
ATOM     11  C   UNL     1       2.207   6.121  18.807  0.00  0.00    +0.000 A 
ATOM     12  C   UNL     1       2.470   4.800  18.125  0.00  0.00    +0.000 C 
ENDBRANCH   1   3
BRANCH   1  13
ATOM     13  N   UNL     1       5.200   3.356  17.913  0.00  0.00    +0.000 N 
ATOM     14  H   UNL     1       6.043   3.451  18.473  0.00  0.00    +0.000 HD
BRANCH  13  17
ATOM     15  C   UNL     1       6.218   4.719  14.686  0.00  0.00    +0.000 C 
ATOM     16  C   UNL     1       6.065   4.588  16.189  0.00  0.00    +0.000 C 
ATOM     17  N   UNL     1       5.352   3.566  16.579  0.00  0.00    +0.000 NA
BRANCH  16  18
ATOM     18  C   UNL     1       6.782   5.602  17.054  0.00  0.00    +0.000 A 
ATOM     19  C   UNL     1       6.812   6.952  16.721  0.00  0.00    +0.000 A 
ATOM     20  C   UNL     1       7.544   7.828  17.523  0.00  0.00    +0.000 A 
ATOM     21  C   UNL     1       8.219   7.340  18.634  0.00  0.00    +0.000 A 
ATOM     22  C   UNL     1       8.125   5.990  18.911  0.00  0.00    +0.000 A 
ATOM     23  N   UNL     1       7.427   5.113  18.152  0.00  0.00    +0.000 NA
ENDBRANCH  16  18
ENDBRANCH  13  17
ENDBRANCH   1  13
TORSDOF 4
ENDMDL
MODEL 5
REMARK VINA RESULT:      -7.1      3.009      5.283
REMARK  Name = 
REMARK  5 active torsions:
REMARK  status: ('A' for Active; 'I' for Inactive)
REMARK    1  A    between atoms: C_1  and  C_2
REMARK    2  A    between atoms: C_2  and  C_17
REMARK    3  A    between atoms: N_3  and  N_4
REMARK    4  A    between atoms: N_4  and  C_5
REMARK    5  A    between atoms: C_5  and  N_7
REMARK                            x       y       z     vdW  Elec       q    Type
REMARK                         _______ _______ _______ _____ _____    ______ ____
ROOT
ATOM      1  C   UNL     1       6.062   5.279  16.773  0.00  0.00    +0.000 C 
ATOM      2  S   UNL     1       7.053   6.298  17.685  0.00  0.00    +0.000 S 
ENDROOT
BRANCH   1   3
ATOM      3  N   UNL     1       4.765   4.870  17.166  0.00  0.00    +0.000 N 
ATOM      4  C   UNL     1       4.283   3.496  16.934  0.00  0.00    +0.000 C 
ATOM      5  C   UNL     1       2.777   3.272  17.095  0.00  0.00    +0.000 C 
ATOM      6  C   UNL     1       2.296   3.915  18.361  0.00  0.00    +0.000 A 
ATOM      7  C   UNL     1       1.360   3.312  19.201  0.00  0.00    +0.000 A 
ATOM      8  C   UNL     1       0.955   3.964  20.363  0.00  0.00    +0.000 A 
ATOM      9  C   UNL     1       1.467   5.224  20.676  0.00  0.00    +0.000 A 
ATOM     10  C   UNL     1       2.389   5.839  19.829  0.00  0.00    +0.000 A 
ATOM     11  C   UNL     1       2.813   5.183  18.670  0.00  0.00    +0.000 A 
ATOM     12  C   UNL     1       3.786   5.827  17.710  0.00  0.00    +0.000 C 
ENDBRANCH   1   3
BRANCH   1  13
ATOM     13  N   UNL     1       6.448   4.791  15.529  0.00  0.00    +0.000 N 
ATOM     14  H   UNL     1       5.936   4.035  15.082  0.00  0.00    +0.000 HD
BRANCH  13  17
ATOM     15  C   UNL     1       8.523   5.817  12.709  0.00  0.00    +0.000 C 
ATOM     16  C   UNL     1       7.487   5.049  13.506  0.00  0.00    +0.000 C 
ATOM     17  N   UNL     1       7.383   5.406  14.756  0.00  0.00    +0.000 NA
BRANCH  16  18
ATOM     18  C   UNL     1       6.668   4.011  12.766  0.00  0.00    +0.000 A 
ATOM     19  C   UNL     1       7.266   3.068  11.936  0.00  0.00    +0.000 A 
ATOM     20  C   UNL     1       6.453   2.179  11.231  0.00  0.00    +0.000 A 
ATOM     21  C   UNL     1       5.074   2.249  11.375  0.00  0.00    +0.000 A 
ATOM     22  C   UNL     1       4.557   3.201  12.233  0.00  0.00    +0.000 A 
ATOM     23  N   UNL     1       5.316   4.079  12.928  0.00  0.00    +0.000 NA
ENDBRANCH  16  18
ENDBRANCH  13  17
ENDBRANCH   1  13
TORSDOF 4
ENDMDL
MODEL 6
REMARK VINA RESULT:      -7.1      1.523      3.250
REMARK  Name = 
REMARK  5 active torsions:
REMARK  status: ('A' for Active; 'I' for Inactive)
REMARK    1  A    between atoms: C_1  and  C_2
REMARK    2  A    between atoms: C_2  and  C_17
REMARK    3  A    between atoms: N_3  and  N_4
REMARK    4  A    between atoms: N_4  and  C_5
REMARK    5  A    between atoms: C_5  and  N_7
REMARK                            x       y       z     vdW  Elec       q    Type
REMARK                         _______ _______ _______ _____ _____    ______ ____
ROOT
ATOM      1  C   UNL     1       4.217   3.193  18.613  0.00  0.00    +0.000 C 
ATOM      2  S   UNL     1       3.783   1.564  18.529  0.00  0.00    +0.000 S 
ENDROOT
BRANCH   1   3
ATOM      3  N   UNL     1       3.343   4.229  19.018  0.00  0.00    +0.000 N 
ATOM      4  C   UNL     1       3.001   4.445  20.436  0.00  0.00    +0.000 C 
ATOM      5  C   UNL     1       1.808   5.364  20.712  0.00  0.00    +0.000 C 
ATOM      6  C   UNL     1       1.918   6.608  19.883  0.00  0.00    +0.000 A 
ATOM      7  C   UNL     1       1.598   7.872  20.379  0.00  0.00    +0.000 A 
ATOM      8  C   UNL     1       1.722   8.988  19.555  0.00  0.00    +0.000 A 
ATOM      9  C   UNL     1       2.144   8.842  18.232  0.00  0.00    +0.000 A 
ATOM     10  C   UNL     1       2.447   7.577  17.727  0.00  0.00    +0.000 A 
ATOM     11  C   UNL     1       2.341   6.454  18.553  0.00  0.00    +0.000 A 
ATOM     12  C   UNL     1       2.629   5.065  18.036  0.00  0.00    +0.000 C 
ENDBRANCH   1   3
BRANCH   1  13
ATOM     13  N   UNL     1       5.504   3.632  18.319  0.00  0.00    +0.000 N 
ATOM     14  H   UNL     1       6.167   3.027  17.843  0.00  0.00    +0.000 HD
BRANCH  13  17
ATOM     15  C   UNL     1       6.610   7.043  17.645  0.00  0.00    +0.000 C 
ATOM     16  C   UNL     1       6.240   5.594  17.397  0.00  0.00    +0.000 C 
ATOM     17  N   UNL     1       5.889   4.928  18.463  0.00  0.00    +0.000 NA
BRANCH  16  18
ATOM     18  C   UNL     1       6.266   5.103  15.965  0.00  0.00    +0.000 A 
ATOM     19  C   UNL     1       5.157   4.498  15.382  0.00  0.00    +0.000 A 
ATOM     20  C   UNL     1       5.264   4.008  14.079  0.00  0.00    +0.000 A 
ATOM     21  C   UNL     1       6.464   4.138  13.393  0.00  0.00    +0.000 A 
ATOM     22  C   UNL     1       7.514   4.769  14.033  0.00  0.00    +0.000 A 
ATOM     23  N   UNL     1       7.445   5.252  15.295  0.00  0.00    +0.000 NA
ENDBRANCH  16  18
ENDBRANCH  13  17
ENDBRANCH   1  13
TORSDOF 4
ENDMDL
MODEL 7
REMARK VINA RESULT:      -7.1      0.807      1.143
REMARK  Name = 
REMARK  5 active torsions:
REMARK  status: ('A' for Active; 'I' for Inactive)
REMARK    1  A    between atoms: C_1  and  C_2
REMARK    2  A    between atoms: C_2  and  C_17
REMARK    3  A    between atoms: N_3  and  N_4
REMARK    4  A    between atoms: N_4  and  C_5
REMARK    5  A    between atoms: C_5  and  N_7
REMARK                            x       y       z     vdW  Elec       q    Type
REMARK                         _______ _______ _______ _____ _____    ______ ____
ROOT
ATOM      1  C   UNL     1       3.229   3.912  18.426  0.00  0.00    +0.000 C 
ATOM      2  S   UNL     1       2.037   2.756  18.726  0.00  0.00    +0.000 S 
ENDROOT
BRANCH   1   3
ATOM      3  N   UNL     1       3.044   5.306  18.587  0.00  0.00    +0.000 N 
ATOM      4  C   UNL     1       3.015   6.222  17.432  0.00  0.00    +0.000 C 
ATOM      5  C   UNL     1       3.142   7.715  17.749  0.00  0.00    +0.000 C 
ATOM      6  C   UNL     1       2.224   8.077  18.878  0.00  0.00    +0.000 A 
ATOM      7  C   UNL     1       1.487   9.262  18.895  0.00  0.00    +0.000 A 
ATOM      8  C   UNL     1       0.653   9.539  19.975  0.00  0.00    +0.000 A 
ATOM      9  C   UNL     1       0.569   8.647  21.045  0.00  0.00    +0.000 A 
ATOM     10  C   UNL     1       1.319   7.470  21.040  0.00  0.00    +0.000 A 
ATOM     11  C   UNL     1       2.146   7.177  19.952  0.00  0.00    +0.000 A 
ATOM     12  C   UNL     1       2.997   5.930  19.921  0.00  0.00    +0.000 C 
ENDBRANCH   1   3
BRANCH   1  13
ATOM     13  N   UNL     1       4.516   3.563  18.027  0.00  0.00    +0.000 N 
ATOM     14  H   UNL     1       5.201   3.233  18.701  0.00  0.00    +0.000 HD
BRANCH  13  17
ATOM     15  C   UNL     1       6.197   3.989  14.817  0.00  0.00    +0.000 C 
ATOM     16  C   UNL     1       5.833   4.213  16.272  0.00  0.00    +0.000 C 
ATOM     17  N   UNL     1       4.874   3.451  16.720  0.00  0.00    +0.000 NA
BRANCH  16  18
ATOM     18  C   UNL     1       6.641   5.236  17.042  0.00  0.00    +0.000 A 
ATOM     19  C   UNL     1       7.368   4.888  18.175  0.00  0.00    +0.000 A 
ATOM     20  C   UNL     1       8.040   5.887  18.880  0.00  0.00    +0.000 A 
ATOM     21  C   UNL     1       7.975   7.201  18.436  0.00  0.00    +0.000 A 
ATOM     22  C   UNL     1       7.249   7.465  17.290  0.00  0.00    +0.000 A 
ATOM     23  N   UNL     1       6.584   6.521  16.586  0.00  0.00    +0.000 NA
ENDBRANCH  16  18
ENDBRANCH  13  17
ENDBRANCH   1  13
TORSDOF 4
ENDMDL
MODEL 8
REMARK VINA RESULT:      -7.1      2.558      4.724
REMARK  Name = 
REMARK  5 active torsions:
REMARK  status: ('A' for Active; 'I' for Inactive)
REMARK    1  A    between atoms: C_1  and  C_2
REMARK    2  A    between atoms: C_2  and  C_17
REMARK    3  A    between atoms: N_3  and  N_4
REMARK    4  A    between atoms: N_4  and  C_5
REMARK    5  A    between atoms: C_5  and  N_7
REMARK                            x       y       z     vdW  Elec       q    Type
REMARK                         _______ _______ _______ _____ _____    ______ ____
ROOT
ATOM      1  C   UNL     1       1.730   8.207  19.887  0.00  0.00    +0.000 C 
ATOM      2  S   UNL     1       2.106   8.537  18.275  0.00  0.00    +0.000 S 
ENDROOT
BRANCH   1   3
ATOM      3  N   UNL     1       0.847   8.985  20.673  0.00  0.00    +0.000 N 
ATOM      4  C   UNL     1       0.994   9.082  22.137  0.00  0.00    +0.000 C 
ATOM      5  C   UNL     1      -0.197   9.669  22.899  0.00  0.00    +0.000 C 
ATOM      6  C   UNL     1      -0.674  10.917  22.219  0.00  0.00    +0.000 A 
ATOM      7  C   UNL     1      -1.072  12.052  22.925  0.00  0.00    +0.000 A 
ATOM      8  C   UNL     1      -1.507  13.179  22.231  0.00  0.00    +0.000 A 
ATOM      9  C   UNL     1      -1.563  13.168  20.837  0.00  0.00    +0.000 A 
ATOM     10  C   UNL     1      -1.182  12.028  20.128  0.00  0.00    +0.000 A 
ATOM     11  C   UNL     1      -0.730  10.899  20.816  0.00  0.00    +0.000 A 
ATOM     12  C   UNL     1      -0.339   9.635  20.088  0.00  0.00    +0.000 C 
ENDBRANCH   1   3
BRANCH   1  13
ATOM     13  N   UNL     1       2.245   7.101  20.556  0.00  0.00    +0.000 N 
ATOM     14  H   UNL     1       3.124   7.159  21.063  0.00  0.00    +0.000 HD
BRANCH  13  17
ATOM     15  C   UNL     1       1.066   3.653  20.381  0.00  0.00    +0.000 C 
ATOM     16  C   UNL     1       1.886   4.892  20.078  0.00  0.00    +0.000 C 
ATOM     17  N   UNL     1       1.533   5.958  20.743  0.00  0.00    +0.000 NA
BRANCH  16  18
ATOM     18  C   UNL     1       3.032   4.746  19.099  0.00  0.00    +0.000 A 
ATOM     19  C   UNL     1       2.850   4.173  17.844  0.00  0.00    +0.000 A 
ATOM     20  C   UNL     1       3.958   4.007  17.012  0.00  0.00    +0.000 A 
ATOM     21  C   UNL     1       5.210   4.420  17.446  0.00  0.00    +0.000 A 
ATOM     22  C   UNL     1       5.306   4.999  18.698  0.00  0.00    +0.000 A 
ATOM     23  N   UNL     1       4.255   5.171  19.530  0.00  0.00    +0.000 NA
ENDBRANCH  16  18
ENDBRANCH  13  17
ENDBRANCH   1  13
TORSDOF 4
ENDMDL
MODEL 9
REMARK VINA RESULT:      -7.0      3.117      5.326
REMARK  Name = 
REMARK  5 active torsions:
REMARK  status: ('A' for Active; 'I' for Inactive)
REMARK    1  A    between atoms: C_1  and  C_2
REMARK    2  A    between atoms: C_2  and  C_17
REMARK    3  A    between atoms: N_3  and  N_4
REMARK    4  A    between atoms: N_4  and  C_5
REMARK    5  A    between atoms: C_5  and  N_7
REMARK                            x       y       z     vdW  Elec       q    Type
REMARK                         _______ _______ _______ _____ _____    ______ ____
ROOT
ATOM      1  C   UNL     1       6.205   4.459  16.792  0.00  0.00    +0.000 C 
ATOM      2  S   UNL     1       7.495   4.815  17.820  0.00  0.00    +0.000 S 
ENDROOT
BRANCH   1   3
ATOM      3  N   UNL     1       4.864   4.312  17.219  0.00  0.00    +0.000 N 
ATOM      4  C   UNL     1       4.161   3.018  17.136  0.00  0.00    +0.000 C 
ATOM      5  C   UNL     1       2.641   3.062  17.312  0.00  0.00    +0.000 C 
ATOM      6  C   UNL     1       2.287   3.908  18.498  0.00  0.00    +0.000 A 
ATOM      7  C   UNL     1       1.277   3.560  19.394  0.00  0.00    +0.000 A 
ATOM      8  C   UNL     1       0.998   4.391  20.476  0.00  0.00    +0.000 A 
ATOM      9  C   UNL     1       1.711   5.577  20.653  0.00  0.00    +0.000 A 
ATOM     10  C   UNL     1       2.711   5.938  19.749  0.00  0.00    +0.000 A 
ATOM     11  C   UNL     1       3.008   5.100  18.670  0.00  0.00    +0.000 A 
ATOM     12  C   UNL     1       4.060   5.469  17.651  0.00  0.00    +0.000 C 
ENDBRANCH   1   3
BRANCH   1  13
ATOM     13  N   UNL     1       6.371   4.319  15.417  0.00  0.00    +0.000 N 
ATOM     14  H   UNL     1       5.729   3.753  14.868  0.00  0.00    +0.000 HD
BRANCH  13  17
ATOM     15  C   UNL     1       8.316   5.775  12.696  0.00  0.00    +0.000 C 
ATOM     16  C   UNL     1       7.339   4.866  13.417  0.00  0.00    +0.000 C 
ATOM     17  N   UNL     1       7.254   5.066  14.704  0.00  0.00    +0.000 NA
BRANCH  16  18
ATOM     18  C   UNL     1       6.549   3.886  12.577  0.00  0.00    +0.000 A 
ATOM     19  C   UNL     1       5.167   3.985  12.447  0.00  0.00    +0.000 A 
ATOM     20  C   UNL     1       4.487   3.014  11.712  0.00  0.00    +0.000 A 
ATOM     21  C   UNL     1       5.198   1.976  11.124  0.00  0.00    +0.000 A 
ATOM     22  C   UNL     1       6.571   1.957  11.281  0.00  0.00    +0.000 A 
ATOM     23  N   UNL     1       7.260   2.880  11.989  0.00  0.00    +0.000 NA
ENDBRANCH  16  18
ENDBRANCH  13  17
ENDBRANCH   1  13
TORSDOF 4
ENDMDL
