MODEL 1
REMARK VINA RESULT:      -9.5      0.000      0.000
REMARK  Name = 
REMARK  8 active torsions:
REMARK  status: ('A' for Active; 'I' for Inactive)
REMARK    1  A    between atoms: C_1  and  C_2
REMARK    2  A    between atoms: C_5  and  C_6
REMARK    3  A    between atoms: C_7  and  C_8
REMARK    4  A    between atoms: C_10  and  C_11
REMARK    5  A    between atoms: N_13  and  C_14
REMARK    6  A    between atoms: C_16  and  C_17
REMARK    7  A    between atoms: C_18  and  C_19
REMARK    8  A    between atoms: C_20  and  C_21
REMARK                            x       y       z     vdW  Elec       q    Type
REMARK                         _______ _______ _______ _____ _____    ______ ____
ROOT
ATOM      1  C   UNL     1       4.371   5.222  17.353  0.00  0.00    +0.000 A 
ATOM      2  C   UNL     1       3.601   6.362  17.490  0.00  0.00    +0.000 A 
ATOM      3  C   UNL     1       2.685   6.481  18.552  0.00  0.00    +0.000 A 
ATOM      4  C   UNL     1       2.530   5.398  19.466  0.00  0.00    +0.000 A 
ATOM      5  C   UNL     1       1.628   5.307  20.565  0.00  0.00    +0.000 A 
ATOM      6  C   UNL     1       1.600   4.182  21.400  0.00  0.00    +0.000 A 
ATOM      7  C   UNL     1       2.431   3.100  21.142  0.00  0.00    +0.000 A 
ATOM      8  C   UNL     1       3.288   3.160  20.047  0.00  0.00    +0.000 A 
ATOM      9  C   UNL     1       3.357   4.279  19.230  0.00  0.00    +0.000 A 
ATOM     10  N   UNL     1       4.243   4.208  18.230  0.00  0.00    +0.000 NA
ENDROOT
BRANCH   1  17
ATOM     11  C   UNL     1       5.556   3.476  12.794  0.00  0.00    +0.000 C 
ATOM     12  C   UNL     1       5.969   4.208  14.037  0.00  0.00    +0.000 A 
ATOM     13  C   UNL     1       7.252   4.729  14.164  0.00  0.00    +0.000 A 
ATOM     14  C   UNL     1       7.623   5.396  15.330  0.00  0.00    +0.000 A 
ATOM     15  C   UNL     1       6.719   5.559  16.397  0.00  0.00    +0.000 A 
ATOM     16  C   UNL     1       7.223   6.255  17.637  0.00  0.00    +0.000 C 
ATOM     17  C   UNL     1       5.396   5.055  16.289  0.00  0.00    +0.000 A 
ATOM     18  C   UNL     1       5.059   4.377  15.092  0.00  0.00    +0.000 A 
ENDBRANCH   1  17
BRANCH   3  19
ATOM     19  C   UNL     1       1.943   7.791  18.547  0.00  0.00    +0.000 C 
ATOM     20  O   UNL     1       1.705   8.283  17.447  0.00  0.00    +0.000 OA
ATOM     21  N   UNL     1       1.701   8.389  19.769  0.00  0.00    +0.000 N 
ATOM     22  H   UNL     1       2.143   7.990  20.596  0.00  0.00    +0.000 HD
BRANCH  21  23
ATOM     23  C   UNL     1       1.103   9.637  19.985  0.00  0.00    +0.000 A 
ATOM     24  S   UNL     1       1.394  10.948  18.954  0.00  0.00    +0.000 S 
ATOM     25  C   UNL     1       0.408  12.000  19.858  0.00  0.00    +0.000 A 
ATOM     26  C   UNL     1       0.253  13.427  19.423  0.00  0.00    +0.000 C 
ATOM     27  C   UNL     1      -0.165  11.366  20.954  0.00  0.00    +0.000 A 
ATOM     28  C   UNL     1      -1.039  12.096  21.929  0.00  0.00    +0.000 C 
ATOM     29  C   UNL     1       0.200   9.949  21.004  0.00  0.00    +0.000 A 
BRANCH  29  30
ATOM     30  C   UNL     1      -0.217   8.893  21.943  0.00  0.00    +0.000 C 
ATOM     31  N   UNL     1      -0.146   9.124  23.281  0.00  0.00    +0.000 N 
ATOM     32  O   UNL     1      -0.634   7.801  21.563  0.00  0.00    +0.000 OA
ATOM     33  H   UNL     1       0.279   9.922  23.711  0.00  0.00    +0.000 HD
ATOM     34  H   UNL     1      -0.406   8.350  23.881  0.00  0.00    +0.000 HD
ENDBRANCH  29  30
ENDBRANCH  21  23
ENDBRANCH   3  19
TORSDOF 4
ENDMDL
MODEL 2
REMARK VINA RESULT:      -8.5      1.541      2.047
REMARK  Name = 
REMARK  8 active torsions:
REMARK  status: ('A' for Active; 'I' for Inactive)
REMARK    1  A    between atoms: C_1  and  C_2
REMARK    2  A    between atoms: C_5  and  C_6
REMARK    3  A    between atoms: C_7  and  C_8
REMARK    4  A    between atoms: C_10  and  C_11
REMARK    5  A    between atoms: N_13  and  C_14
REMARK    6  A    between atoms: C_16  and  C_17
REMARK    7  A    between atoms: C_18  and  C_19
REMARK    8  A    between atoms: C_20  and  C_21
REMARK                            x       y       z     vdW  Elec       q    Type
REMARK                         _______ _______ _______ _____ _____    ______ ____
ROOT
ATOM      1  C   UNL     1       4.242   4.882  17.291  0.00  0.00    +0.000 A 
ATOM      2  C   UNL     1       3.702   6.080  17.723  0.00  0.00    +0.000 A 
ATOM      3  C   UNL     1       2.790   6.107  18.794  0.00  0.00    +0.000 A 
ATOM      4  C   UNL     1       2.396   4.883  19.408  0.00  0.00    +0.000 A 
ATOM      5  C   UNL     1       1.456   4.700  20.462  0.00  0.00    +0.000 A 
ATOM      6  C   UNL     1       1.181   3.430  20.988  0.00  0.00    +0.000 A 
ATOM      7  C   UNL     1       1.796   2.306  20.454  0.00  0.00    +0.000 A 
ATOM      8  C   UNL     1       2.686   2.467  19.396  0.00  0.00    +0.000 A 
ATOM      9  C   UNL     1       2.999   3.718  18.886  0.00  0.00    +0.000 A 
ATOM     10  N   UNL     1       3.889   3.727  17.887  0.00  0.00    +0.000 NA
ENDROOT
BRANCH   1  17
ATOM     11  C   UNL     1       5.346   3.500  12.589  0.00  0.00    +0.000 C 
ATOM     12  C   UNL     1       5.784   4.120  13.883  0.00  0.00    +0.000 A 
ATOM     13  C   UNL     1       7.078   4.610  14.036  0.00  0.00    +0.000 A 
ATOM     14  C   UNL     1       7.472   5.173  15.248  0.00  0.00    +0.000 A 
ATOM     15  C   UNL     1       6.583   5.261  16.336  0.00  0.00    +0.000 A 
ATOM     16  C   UNL     1       7.113   5.844  17.623  0.00  0.00    +0.000 C 
ATOM     17  C   UNL     1       5.252   4.787  16.204  0.00  0.00    +0.000 A 
ATOM     18  C   UNL     1       4.890   4.216  14.959  0.00  0.00    +0.000 A 
ENDBRANCH   1  17
BRANCH   3  19
ATOM     19  C   UNL     1       2.316   7.496  19.129  0.00  0.00    +0.000 C 
ATOM     20  O   UNL     1       3.037   8.424  18.771  0.00  0.00    +0.000 OA
ATOM     21  N   UNL     1       1.184   7.610  19.912  0.00  0.00    +0.000 N 
ATOM     22  H   UNL     1       0.801   6.763  20.331  0.00  0.00    +0.000 HD
BRANCH  21  23
ATOM     23  C   UNL     1       0.623   8.795  20.404  0.00  0.00    +0.000 A 
ATOM     24  S   UNL     1       0.322   9.014  22.055  0.00  0.00    +0.000 S 
ATOM     25  C   UNL     1      -0.340  10.565  21.827  0.00  0.00    +0.000 A 
ATOM     26  C   UNL     1      -0.841  11.339  23.010  0.00  0.00    +0.000 C 
ATOM     27  C   UNL     1      -0.335  10.943  20.489  0.00  0.00    +0.000 A 
ATOM     28  C   UNL     1      -0.909  12.249  20.029  0.00  0.00    +0.000 C 
ATOM     29  C   UNL     1       0.285   9.919  19.646  0.00  0.00    +0.000 A 
BRANCH  29  30
ATOM     30  C   UNL     1       0.555   9.917  18.197  0.00  0.00    +0.000 C 
ATOM     31  N   UNL     1       1.625  10.605  17.717  0.00  0.00    +0.000 N 
ATOM     32  O   UNL     1      -0.153   9.309  17.398  0.00  0.00    +0.000 OA
ATOM     33  H   UNL     1       2.204  11.225  18.249  0.00  0.00    +0.000 HD
ATOM     34  H   UNL     1       1.740  10.603  16.710  0.00  0.00    +0.000 HD
ENDBRANCH  29  30
ENDBRANCH  21  23
ENDBRANCH   3  19
TORSDOF 4
ENDMDL
MODEL 3
REMARK VINA RESULT:      -8.3      2.399      8.172
REMARK  Name = 
REMARK  8 active torsions:
REMARK  status: ('A' for Active; 'I' for Inactive)
REMARK    1  A    between atoms: C_1  and  C_2
REMARK    2  A    between atoms: C_5  and  C_6
REMARK    3  A    between atoms: C_7  and  C_8
REMARK    4  A    between atoms: C_10  and  C_11
REMARK    5  A    between atoms: N_13  and  C_14
REMARK    6  A    between atoms: C_16  and  C_17
REMARK    7  A    between atoms: C_18  and  C_19
REMARK    8  A    between atoms: C_20  and  C_21
REMARK                            x       y       z     vdW  Elec       q    Type
REMARK                         _______ _______ _______ _____ _____    ______ ____
ROOT
ATOM      1  C   UNL     1       1.489  12.231  19.543  0.00  0.00    +0.000 A 
ATOM      2  C   UNL     1       1.799  11.064  18.869  0.00  0.00    +0.000 A 
ATOM      3  C   UNL     1       1.369   9.818  19.363  0.00  0.00    +0.000 A 
ATOM      4  C   UNL     1       0.642   9.765  20.587  0.00  0.00    +0.000 A 
ATOM      5  C   UNL     1       0.169   8.608  21.270  0.00  0.00    +0.000 A 
ATOM      6  C   UNL     1      -0.558   8.707  22.464  0.00  0.00    +0.000 A 
ATOM      7  C   UNL     1      -0.795   9.949  23.036  0.00  0.00    +0.000 A 
ATOM      8  C   UNL     1      -0.303  11.085  22.400  0.00  0.00    +0.000 A 
ATOM      9  C   UNL     1       0.387  11.011  21.199  0.00  0.00    +0.000 A 
ATOM     10  N   UNL     1       0.781  12.184  20.688  0.00  0.00    +0.000 NA
ENDROOT
BRANCH   1  17
ATOM     11  C   UNL     1       5.050  15.308  17.788  0.00  0.00    +0.000 C 
ATOM     12  C   UNL     1       3.616  15.088  18.169  0.00  0.00    +0.000 A 
ATOM     13  C   UNL     1       2.677  16.106  18.032  0.00  0.00    +0.000 A 
ATOM     14  C   UNL     1       1.352  15.887  18.402  0.00  0.00    +0.000 A 
ATOM     15  C   UNL     1       0.932  14.646  18.916  0.00  0.00    +0.000 A 
ATOM     16  C   UNL     1      -0.513  14.517  19.331  0.00  0.00    +0.000 C 
ATOM     17  C   UNL     1       1.862  13.582  19.049  0.00  0.00    +0.000 A 
ATOM     18  C   UNL     1       3.201  13.845  18.669  0.00  0.00    +0.000 A 
ENDBRANCH   1  17
BRANCH   3  19
ATOM     19  C   UNL     1       1.791   8.663  18.494  0.00  0.00    +0.000 C 
ATOM     20  O   UNL     1       1.241   8.569  17.400  0.00  0.00    +0.000 OA
ATOM     21  N   UNL     1       2.663   7.742  19.041  0.00  0.00    +0.000 N 
ATOM     22  H   UNL     1       2.875   7.812  20.036  0.00  0.00    +0.000 HD
BRANCH  21  23
ATOM     23  C   UNL     1       3.116   6.560  18.441  0.00  0.00    +0.000 A 
ATOM     24  S   UNL     1       4.241   6.585  17.177  0.00  0.00    +0.000 S 
ATOM     25  C   UNL     1       4.230   4.892  17.007  0.00  0.00    +0.000 A 
ATOM     26  C   UNL     1       5.087   4.247  15.958  0.00  0.00    +0.000 C 
ATOM     27  C   UNL     1       3.375   4.281  17.916  0.00  0.00    +0.000 A 
ATOM     28  C   UNL     1       3.159   2.798  17.933  0.00  0.00    +0.000 C 
ATOM     29  C   UNL     1       2.752   5.262  18.807  0.00  0.00    +0.000 A 
BRANCH  29  30
ATOM     30  C   UNL     1       1.835   5.066  19.944  0.00  0.00    +0.000 C 
ATOM     31  N   UNL     1       0.897   4.084  19.882  0.00  0.00    +0.000 N 
ATOM     32  O   UNL     1       1.886   5.759  20.957  0.00  0.00    +0.000 OA
ATOM     33  H   UNL     1       0.683   3.534  19.074  0.00  0.00    +0.000 HD
ATOM     34  H   UNL     1       0.267   4.020  20.673  0.00  0.00    +0.000 HD
ENDBRANCH  29  30
ENDBRANCH  21  23
ENDBRANCH   3  19
TORSDOF 4
ENDMDL
MODEL 4
REMARK VINA RESULT:      -8.3      3.242      8.313
REMARK  Name = 
REMARK  8 active torsions:
REMARK  status: ('A' for Active; 'I' for Inactive)
REMARK    1  A    between atoms: C_1  and  C_2
REMARK    2  A    between atoms: C_5  and  C_6
REMARK    3  A    between atoms: C_7  and  C_8
REMARK    4  A    between atoms: C_10  and  C_11
REMARK    5  A    between atoms: N_13  and  C_14
REMARK    6  A    between atoms: C_16  and  C_17
REMARK    7  A    between atoms: C_18  and  C_19
REMARK    8  A    between atoms: C_20  and  C_21
REMARK                            x       y       z     vdW  Elec       q    Type
REMARK                         _______ _______ _______ _____ _____    ______ ____
ROOT
ATOM      1  C   UNL     1      -1.188  10.154  18.514  0.00  0.00    +0.000 A 
ATOM      2  C   UNL     1      -0.039   9.570  18.012  0.00  0.00    +0.000 A 
ATOM      3  C   UNL     1       0.963   9.104  18.882  0.00  0.00    +0.000 A 
ATOM      4  C   UNL     1       0.803   9.272  20.289  0.00  0.00    +0.000 A 
ATOM      5  C   UNL     1       1.718   8.915  21.320  0.00  0.00    +0.000 A 
ATOM      6  C   UNL     1       1.416   9.120  22.673  0.00  0.00    +0.000 A 
ATOM      7  C   UNL     1       0.220   9.724  23.037  0.00  0.00    +0.000 A 
ATOM      8  C   UNL     1      -0.666  10.114  22.036  0.00  0.00    +0.000 A 
ATOM      9  C   UNL     1      -0.402   9.888  20.694  0.00  0.00    +0.000 A 
ATOM     10  N   UNL     1      -1.352  10.292  19.844  0.00  0.00    +0.000 NA
ENDROOT
BRANCH   1  17
ATOM     11  C   UNL     1      -3.501  10.009  14.057  0.00  0.00    +0.000 C 
ATOM     12  C   UNL     1      -3.453  10.529  15.463  0.00  0.00    +0.000 A 
ATOM     13  C   UNL     1      -4.440  11.385  15.942  0.00  0.00    +0.000 A 
ATOM     14  C   UNL     1      -4.374  11.867  17.247  0.00  0.00    +0.000 A 
ATOM     15  C   UNL     1      -3.321  11.505  18.107  0.00  0.00    +0.000 A 
ATOM     16  C   UNL     1      -3.308  12.112  19.488  0.00  0.00    +0.000 C 
ATOM     17  C   UNL     1      -2.309  10.618  17.655  0.00  0.00    +0.000 A 
ATOM     18  C   UNL     1      -2.407  10.154  16.319  0.00  0.00    +0.000 A 
ENDBRANCH   1  17
BRANCH   3  19
ATOM     19  C   UNL     1       2.133   8.492  18.160  0.00  0.00    +0.000 C 
ATOM     20  O   UNL     1       2.618   9.149  17.242  0.00  0.00    +0.000 OA
ATOM     21  N   UNL     1       2.487   7.200  18.500  0.00  0.00    +0.000 N 
ATOM     22  H   UNL     1       1.868   6.680  19.122  0.00  0.00    +0.000 HD
BRANCH  21  23
ATOM     23  C   UNL     1       3.483   6.420  17.902  0.00  0.00    +0.000 A 
ATOM     24  S   UNL     1       4.987   7.075  17.482  0.00  0.00    +0.000 S 
ATOM     25  C   UNL     1       5.552   5.607  16.833  0.00  0.00    +0.000 A 
ATOM     26  C   UNL     1       6.931   5.538  16.246  0.00  0.00    +0.000 C 
ATOM     27  C   UNL     1       4.608   4.593  16.934  0.00  0.00    +0.000 A 
ATOM     28  C   UNL     1       4.854   3.218  16.391  0.00  0.00    +0.000 C 
ATOM     29  C   UNL     1       3.397   5.056  17.617  0.00  0.00    +0.000 A 
BRANCH  29  30
ATOM     30  C   UNL     1       2.177   4.319  17.991  0.00  0.00    +0.000 C 
ATOM     31  N   UNL     1       2.182   3.545  19.110  0.00  0.00    +0.000 N 
ATOM     32  O   UNL     1       1.144   4.378  17.329  0.00  0.00    +0.000 OA
ATOM     33  H   UNL     1       2.987   3.328  19.663  0.00  0.00    +0.000 HD
ATOM     34  H   UNL     1       1.330   3.029  19.297  0.00  0.00    +0.000 HD
ENDBRANCH  29  30
ENDBRANCH  21  23
ENDBRANCH   3  19
TORSDOF 4
ENDMDL
MODEL 5
REMARK VINA RESULT:      -8.2      1.561      2.428
REMARK  Name = 
REMARK  8 active torsions:
REMARK  status: ('A' for Active; 'I' for Inactive)
REMARK    1  A    between atoms: C_1  and  C_2
REMARK    2  A    between atoms: C_5  and  C_6
REMARK    3  A    between atoms: C_7  and  C_8
REMARK    4  A    between atoms: C_10  and  C_11
REMARK    5  A    between atoms: N_13  and  C_14
REMARK    6  A    between atoms: C_16  and  C_17
REMARK    7  A    between atoms: C_18  and  C_19
REMARK    8  A    between atoms: C_20  and  C_21
REMARK                            x       y       z     vdW  Elec       q    Type
REMARK                         _______ _______ _______ _____ _____    ______ ____
ROOT
ATOM      1  C   UNL     1       4.057   4.890  17.393  0.00  0.00    +0.000 A 
ATOM      2  C   UNL     1       3.616   5.981  18.119  0.00  0.00    +0.000 A 
ATOM      3  C   UNL     1       2.599   5.834  19.081  0.00  0.00    +0.000 A 
ATOM      4  C   UNL     1       1.999   4.556  19.275  0.00  0.00    +0.000 A 
ATOM      5  C   UNL     1       0.932   4.218  20.155  0.00  0.00    +0.000 A 
ATOM      6  C   UNL     1       0.453   2.905  20.260  0.00  0.00    +0.000 A 
ATOM      7  C   UNL     1       0.989   1.903  19.463  0.00  0.00    +0.000 A 
ATOM      8  C   UNL     1       2.004   2.227  18.569  0.00  0.00    +0.000 A 
ATOM      9  C   UNL     1       2.516   3.513  18.476  0.00  0.00    +0.000 A 
ATOM     10  N   UNL     1       3.507   3.676  17.592  0.00  0.00    +0.000 NA
ENDROOT
BRANCH   1  17
ATOM     11  C   UNL     1       5.831   3.640  12.862  0.00  0.00    +0.000 C 
ATOM     12  C   UNL     1       6.025   4.358  14.164  0.00  0.00    +0.000 A 
ATOM     13  C   UNL     1       7.185   5.085  14.412  0.00  0.00    +0.000 A 
ATOM     14  C   UNL     1       7.354   5.736  15.632  0.00  0.00    +0.000 A 
ATOM     15  C   UNL     1       6.367   5.679  16.633  0.00  0.00    +0.000 A 
ATOM     16  C   UNL     1       6.657   6.379  17.939  0.00  0.00    +0.000 C 
ATOM     17  C   UNL     1       5.164   4.963  16.403  0.00  0.00    +0.000 A 
ATOM     18  C   UNL     1       5.032   4.307  15.154  0.00  0.00    +0.000 A 
ENDBRANCH   1  17
BRANCH   3  19
ATOM     19  C   UNL     1       2.256   7.124  19.777  0.00  0.00    +0.000 C 
ATOM     20  O   UNL     1       2.641   7.241  20.938  0.00  0.00    +0.000 OA
ATOM     21  N   UNL     1       1.439   8.012  19.104  0.00  0.00    +0.000 N 
ATOM     22  H   UNL     1       1.005   7.703  18.235  0.00  0.00    +0.000 HD
BRANCH  21  23
ATOM     23  C   UNL     1       0.937   9.223  19.596  0.00  0.00    +0.000 A 
ATOM     24  S   UNL     1      -0.035   9.281  20.980  0.00  0.00    +0.000 S 
ATOM     25  C   UNL     1      -0.235  10.969  20.886  0.00  0.00    +0.000 A 
ATOM     26  C   UNL     1      -1.071  11.675  21.911  0.00  0.00    +0.000 C 
ATOM     27  C   UNL     1       0.443  11.515  19.802  0.00  0.00    +0.000 A 
ATOM     28  C   UNL     1       0.383  12.977  19.480  0.00  0.00    +0.000 C 
ATOM     29  C   UNL     1       1.186  10.491  19.064  0.00  0.00    +0.000 A 
BRANCH  29  30
ATOM     30  C   UNL     1       2.078  10.619  17.899  0.00  0.00    +0.000 C 
ATOM     31  N   UNL     1       2.623  11.830  17.605  0.00  0.00    +0.000 N 
ATOM     32  O   UNL     1       2.356   9.666  17.175  0.00  0.00    +0.000 OA
ATOM     33  H   UNL     1       2.386  12.696  18.047  0.00  0.00    +0.000 HD
ATOM     34  H   UNL     1       3.196  11.870  16.771  0.00  0.00    +0.000 HD
ENDBRANCH  29  30
ENDBRANCH  21  23
ENDBRANCH   3  19
TORSDOF 4
ENDMDL
MODEL 6
REMARK VINA RESULT:      -8.1      2.255      8.412
REMARK  Name = 
REMARK  8 active torsions:
REMARK  status: ('A' for Active; 'I' for Inactive)
REMARK    1  A    between atoms: C_1  and  C_2
REMARK    2  A    between atoms: C_5  and  C_6
REMARK    3  A    between atoms: C_7  and  C_8
REMARK    4  A    between atoms: C_10  and  C_11
REMARK    5  A    between atoms: N_13  and  C_14
REMARK    6  A    between atoms: C_16  and  C_17
REMARK    7  A    between atoms: C_18  and  C_19
REMARK    8  A    between atoms: C_20  and  C_21
REMARK                            x       y       z     vdW  Elec       q    Type
REMARK                         _______ _______ _______ _____ _____    ______ ____
ROOT
ATOM      1  C   UNL     1       1.011  12.535  19.540  0.00  0.00    +0.000 A 
ATOM      2  C   UNL     1       1.446  11.414  18.858  0.00  0.00    +0.000 A 
ATOM      3  C   UNL     1       1.195  10.127  19.367  0.00  0.00    +0.000 A 
ATOM      4  C   UNL     1       0.518   9.988  20.614  0.00  0.00    +0.000 A 
ATOM      5  C   UNL     1       0.217   8.784  21.313  0.00  0.00    +0.000 A 
ATOM      6  C   UNL     1      -0.478   8.796  22.530  0.00  0.00    +0.000 A 
ATOM      7  C   UNL     1      -0.854  10.001  23.106  0.00  0.00    +0.000 A 
ATOM      8  C   UNL     1      -0.531  11.187  22.453  0.00  0.00    +0.000 A 
ATOM      9  C   UNL     1       0.125  11.195  21.232  0.00  0.00    +0.000 A 
ATOM     10  N   UNL     1       0.351  12.405  20.707  0.00  0.00    +0.000 NA
ENDROOT
BRANCH   1  17
ATOM     11  C   UNL     1      -0.991  17.048  18.612  0.00  0.00    +0.000 C 
ATOM     12  C   UNL     1       0.206  16.146  18.593  0.00  0.00    +0.000 A 
ATOM     13  C   UNL     1       1.440  16.607  18.144  0.00  0.00    +0.000 A 
ATOM     14  C   UNL     1       2.540  15.752  18.122  0.00  0.00    +0.000 A 
ATOM     15  C   UNL     1       2.434  14.415  18.550  0.00  0.00    +0.000 A 
ATOM     16  C   UNL     1       3.667  13.551  18.449  0.00  0.00    +0.000 C 
ATOM     17  C   UNL     1       1.194  13.921  19.032  0.00  0.00    +0.000 A 
ATOM     18  C   UNL     1       0.097  14.818  19.032  0.00  0.00    +0.000 A 
ENDBRANCH   1  17
BRANCH   3  19
ATOM     19  C   UNL     1       1.733   9.030  18.488  0.00  0.00    +0.000 C 
ATOM     20  O   UNL     1       1.371   9.039  17.314  0.00  0.00    +0.000 OA
ATOM     21  N   UNL     1       2.484   8.040  19.093  0.00  0.00    +0.000 N 
ATOM     22  H   UNL     1       2.529   8.026  20.112  0.00  0.00    +0.000 HD
BRANCH  21  23
ATOM     23  C   UNL     1       3.008   6.896  18.481  0.00  0.00    +0.000 A 
ATOM     24  S   UNL     1       4.127   7.003  17.215  0.00  0.00    +0.000 S 
ATOM     25  C   UNL     1       4.220   5.314  17.027  0.00  0.00    +0.000 A 
ATOM     26  C   UNL     1       5.113   4.734  15.972  0.00  0.00    +0.000 C 
ATOM     27  C   UNL     1       3.407   4.642  17.932  0.00  0.00    +0.000 A 
ATOM     28  C   UNL     1       3.282   3.149  17.934  0.00  0.00    +0.000 C 
ATOM     29  C   UNL     1       2.726   5.574  18.834  0.00  0.00    +0.000 A 
BRANCH  29  30
ATOM     30  C   UNL     1       1.825   5.310  19.970  0.00  0.00    +0.000 C 
ATOM     31  N   UNL     1       0.956   4.266  19.903  0.00  0.00    +0.000 N 
ATOM     32  O   UNL     1       1.830   5.999  20.987  0.00  0.00    +0.000 OA
ATOM     33  H   UNL     1       0.779   3.708  19.092  0.00  0.00    +0.000 HD
ATOM     34  H   UNL     1       0.332   4.156  20.694  0.00  0.00    +0.000 HD
ENDBRANCH  29  30
ENDBRANCH  21  23
ENDBRANCH   3  19
TORSDOF 4
ENDMDL
MODEL 7
REMARK VINA RESULT:      -7.9      2.491      8.299
REMARK  Name = 
REMARK  8 active torsions:
REMARK  status: ('A' for Active; 'I' for Inactive)
REMARK    1  A    between atoms: C_1  and  C_2
REMARK    2  A    between atoms: C_5  and  C_6
REMARK    3  A    between atoms: C_7  and  C_8
REMARK    4  A    between atoms: C_10  and  C_11
REMARK    5  A    between atoms: N_13  and  C_14
REMARK    6  A    between atoms: C_16  and  C_17
REMARK    7  A    between atoms: C_18  and  C_19
REMARK    8  A    between atoms: C_20  and  C_21
REMARK                            x       y       z     vdW  Elec       q    Type
REMARK                         _______ _______ _______ _____ _____    ______ ____
ROOT
ATOM      1  C   UNL     1       1.793   7.289  20.034  0.00  0.00    +0.000 A 
ATOM      2  C   UNL     1       2.656   7.201  18.958  0.00  0.00    +0.000 A 
ATOM      3  C   UNL     1       3.304   5.988  18.660  0.00  0.00    +0.000 A 
ATOM      4  C   UNL     1       3.093   4.857  19.501  0.00  0.00    +0.000 A 
ATOM      5  C   UNL     1       3.691   3.569  19.396  0.00  0.00    +0.000 A 
ATOM      6  C   UNL     1       3.371   2.536  20.288  0.00  0.00    +0.000 A 
ATOM      7  C   UNL     1       2.486   2.766  21.332  0.00  0.00    +0.000 A 
ATOM      8  C   UNL     1       1.925   4.032  21.470  0.00  0.00    +0.000 A 
ATOM      9  C   UNL     1       2.201   5.057  20.577  0.00  0.00    +0.000 A 
ATOM     10  N   UNL     1       1.574   6.214  20.816  0.00  0.00    +0.000 NA
ENDROOT
BRANCH   1  17
ATOM     11  C   UNL     1      -0.679   9.978  23.483  0.00  0.00    +0.000 C 
ATOM     12  C   UNL     1      -0.168   9.849  22.079  0.00  0.00    +0.000 A 
ATOM     13  C   UNL     1      -0.377  10.861  21.147  0.00  0.00    +0.000 A 
ATOM     14  C   UNL     1       0.094  10.719  19.844  0.00  0.00    +0.000 A 
ATOM     15  C   UNL     1       0.787   9.563  19.440  0.00  0.00    +0.000 A 
ATOM     16  C   UNL     1       1.221   9.479  17.997  0.00  0.00    +0.000 C 
ATOM     17  C   UNL     1       1.033   8.521  20.372  0.00  0.00    +0.000 A 
ATOM     18  C   UNL     1       0.532   8.699  21.685  0.00  0.00    +0.000 A 
ENDBRANCH   1  17
BRANCH   3  19
ATOM     19  C   UNL     1       4.196   6.078  17.451  0.00  0.00    +0.000 C 
ATOM     20  O   UNL     1       4.334   7.192  16.951  0.00  0.00    +0.000 OA
ATOM     21  N   UNL     1       4.685   4.895  16.931  0.00  0.00    +0.000 N 
ATOM     22  H   UNL     1       4.319   4.019  17.303  0.00  0.00    +0.000 HD
BRANCH  21  23
ATOM     23  C   UNL     1       5.459   4.746  15.774  0.00  0.00    +0.000 A 
ATOM     24  S   UNL     1       4.857   3.959  14.401  0.00  0.00    +0.000 S 
ATOM     25  C   UNL     1       6.309   4.158  13.534  0.00  0.00    +0.000 A 
ATOM     26  C   UNL     1       6.417   3.620  12.138  0.00  0.00    +0.000 C 
ATOM     27  C   UNL     1       7.271   4.834  14.274  0.00  0.00    +0.000 A 
ATOM     28  C   UNL     1       8.648   5.091  13.743  0.00  0.00    +0.000 C 
ATOM     29  C   UNL     1       6.754   5.235  15.585  0.00  0.00    +0.000 A 
BRANCH  29  30
ATOM     30  C   UNL     1       7.394   6.011  16.662  0.00  0.00    +0.000 C 
ATOM     31  N   UNL     1       7.440   7.367  16.571  0.00  0.00    +0.000 N 
ATOM     32  O   UNL     1       7.890   5.477  17.651  0.00  0.00    +0.000 OA
ATOM     33  H   UNL     1       7.175   7.904  15.769  0.00  0.00    +0.000 HD
ATOM     34  H   UNL     1       7.927   7.847  17.318  0.00  0.00    +0.000 HD
ENDBRANCH  29  30
ENDBRANCH  21  23
ENDBRANCH   3  19
TORSDOF 4
ENDMDL
MODEL 8
REMARK VINA RESULT:      -7.9      1.464      1.879
REMARK  Name = 
REMARK  8 active torsions:
REMARK  status: ('A' for Active; 'I' for Inactive)
REMARK    1  A    between atoms: C_1  and  C_2
REMARK    2  A    between atoms: C_5  and  C_6
REMARK    3  A    between atoms: C_7  and  C_8
REMARK    4  A    between atoms: C_10  and  C_11
REMARK    5  A    between atoms: N_13  and  C_14
REMARK    6  A    between atoms: C_16  and  C_17
REMARK    7  A    between atoms: C_18  and  C_19
REMARK    8  A    between atoms: C_20  and  C_21
REMARK                            x       y       z     vdW  Elec       q    Type
REMARK                         _______ _______ _______ _____ _____    ______ ____
ROOT
ATOM      1  C   UNL     1       4.260   5.392  17.225  0.00  0.00    +0.000 A 
ATOM      2  C   UNL     1       3.687   6.623  17.489  0.00  0.00    +0.000 A 
ATOM      3  C   UNL     1       2.730   6.760  18.513  0.00  0.00    +0.000 A 
ATOM      4  C   UNL     1       2.328   5.610  19.252  0.00  0.00    +0.000 A 
ATOM      5  C   UNL     1       1.347   5.535  20.282  0.00  0.00    +0.000 A 
ATOM      6  C   UNL     1       1.068   4.331  20.944  0.00  0.00    +0.000 A 
ATOM      7  C   UNL     1       1.719   3.163  20.572  0.00  0.00    +0.000 A 
ATOM      8  C   UNL     1       2.651   3.215  19.539  0.00  0.00    +0.000 A 
ATOM      9  C   UNL     1       2.968   4.402  18.897  0.00  0.00    +0.000 A 
ATOM     10  N   UNL     1       3.898   4.309  17.939  0.00  0.00    +0.000 NA
ENDROOT
BRANCH   1  17
ATOM     11  C   UNL     1       5.571   3.503  12.759  0.00  0.00    +0.000 C 
ATOM     12  C   UNL     1       5.950   4.270  13.991  0.00  0.00    +0.000 A 
ATOM     13  C   UNL     1       7.232   4.791  14.140  0.00  0.00    +0.000 A 
ATOM     14  C   UNL     1       7.570   5.492  15.296  0.00  0.00    +0.000 A 
ATOM     15  C   UNL     1       6.636   5.691  16.329  0.00  0.00    +0.000 A 
ATOM     16  C   UNL     1       7.106   6.423  17.563  0.00  0.00    +0.000 C 
ATOM     17  C   UNL     1       5.315   5.188  16.198  0.00  0.00    +0.000 A 
ATOM     18  C   UNL     1       5.011   4.475  15.012  0.00  0.00    +0.000 A 
ENDBRANCH   1  17
BRANCH   3  19
ATOM     19  C   UNL     1       2.225   8.170  18.662  0.00  0.00    +0.000 C 
ATOM     20  O   UNL     1       2.873   9.049  18.100  0.00  0.00    +0.000 OA
ATOM     21  N   UNL     1       1.154   8.375  19.510  0.00  0.00    +0.000 N 
ATOM     22  H   UNL     1       0.843   7.595  20.090  0.00  0.00    +0.000 HD
BRANCH  21  23
ATOM     23  C   UNL     1       0.582   9.606  19.853  0.00  0.00    +0.000 A 
ATOM     24  S   UNL     1       1.100  10.476  21.210  0.00  0.00    +0.000 S 
ATOM     25  C   UNL     1      -0.027  11.726  20.957  0.00  0.00    +0.000 A 
ATOM     26  C   UNL     1      -0.076  12.883  21.910  0.00  0.00    +0.000 C 
ATOM     27  C   UNL     1      -0.810  11.504  19.831  0.00  0.00    +0.000 A 
ATOM     28  C   UNL     1      -1.906  12.442  19.426  0.00  0.00    +0.000 C 
ATOM     29  C   UNL     1      -0.416  10.274  19.140  0.00  0.00    +0.000 A 
BRANCH  29  30
ATOM     30  C   UNL     1      -0.924   9.683  17.889  0.00  0.00    +0.000 C 
ATOM     31  N   UNL     1      -2.265   9.644  17.665  0.00  0.00    +0.000 N 
ATOM     32  O   UNL     1      -0.177   9.223  17.028  0.00  0.00    +0.000 OA
ATOM     33  H   UNL     1      -2.972   9.881  18.332  0.00  0.00    +0.000 HD
ATOM     34  H   UNL     1      -2.560   9.190  16.809  0.00  0.00    +0.000 HD
ENDBRANCH  29  30
ENDBRANCH  21  23
ENDBRANCH   3  19
TORSDOF 4
ENDMDL
MODEL 9
REMARK VINA RESULT:      -7.8      3.143     10.688
REMARK  Name = 
REMARK  8 active torsions:
REMARK  status: ('A' for Active; 'I' for Inactive)
REMARK    1  A    between atoms: C_1  and  C_2
REMARK    2  A    between atoms: C_5  and  C_6
REMARK    3  A    between atoms: C_7  and  C_8
REMARK    4  A    between atoms: C_10  and  C_11
REMARK    5  A    between atoms: N_13  and  C_14
REMARK    6  A    between atoms: C_16  and  C_17
REMARK    7  A    between atoms: C_18  and  C_19
REMARK    8  A    between atoms: C_20  and  C_21
REMARK                            x       y       z     vdW  Elec       q    Type
REMARK                         _______ _______ _______ _____ _____    ______ ____
ROOT
ATOM      1  C   UNL     1      -2.503  13.601  21.169  0.00  0.00    +0.000 A 
ATOM      2  C   UNL     1      -1.529  12.626  21.055  0.00  0.00    +0.000 A 
ATOM      3  C   UNL     1      -0.294  12.919  20.448  0.00  0.00    +0.000 A 
ATOM      4  C   UNL     1      -0.067  14.222  19.916  0.00  0.00    +0.000 A 
ATOM      5  C   UNL     1       1.086  14.694  19.228  0.00  0.00    +0.000 A 
ATOM      6  C   UNL     1       1.182  16.017  18.777  0.00  0.00    +0.000 A 
ATOM      7  C   UNL     1       0.121  16.894  18.956  0.00  0.00    +0.000 A 
ATOM      8  C   UNL     1      -1.029  16.433  19.593  0.00  0.00    +0.000 A 
ATOM      9  C   UNL     1      -1.129  15.139  20.078  0.00  0.00    +0.000 A 
ATOM     10  N   UNL     1      -2.281  14.840  20.689  0.00  0.00    +0.000 NA
ENDROOT
BRANCH   1  17
ATOM     11  C   UNL     1      -7.309  12.179  20.832  0.00  0.00    +0.000 C 
ATOM     12  C   UNL     1      -6.168  12.658  21.679  0.00  0.00    +0.000 A 
ATOM     13  C   UNL     1      -6.327  12.851  23.048  0.00  0.00    +0.000 A 
ATOM     14  C   UNL     1      -5.259  13.308  23.817  0.00  0.00    +0.000 A 
ATOM     15  C   UNL     1      -4.006  13.581  23.238  0.00  0.00    +0.000 A 
ATOM     16  C   UNL     1      -2.922  14.115  24.142  0.00  0.00    +0.000 C 
ATOM     17  C   UNL     1      -3.807  13.376  21.848  0.00  0.00    +0.000 A 
ATOM     18  C   UNL     1      -4.917  12.917  21.098  0.00  0.00    +0.000 A 
ENDBRANCH   1  17
BRANCH   3  19
ATOM     19  C   UNL     1       0.643  11.741  20.421  0.00  0.00    +0.000 C 
ATOM     20  O   UNL     1       1.651  11.824  21.119  0.00  0.00    +0.000 OA
ATOM     21  N   UNL     1       0.361  10.724  19.529  0.00  0.00    +0.000 N 
ATOM     22  H   UNL     1      -0.383  10.875  18.848  0.00  0.00    +0.000 HD
BRANCH  21  23
ATOM     23  C   UNL     1       1.138   9.585  19.286  0.00  0.00    +0.000 A 
ATOM     24  S   UNL     1       1.995   9.391  17.838  0.00  0.00    +0.000 S 
ATOM     25  C   UNL     1       2.595   7.863  18.288  0.00  0.00    +0.000 A 
ATOM     26  C   UNL     1       3.483   7.109  17.344  0.00  0.00    +0.000 C 
ATOM     27  C   UNL     1       2.158   7.481  19.550  0.00  0.00    +0.000 A 
ATOM     28  C   UNL     1       2.514   6.154  20.149  0.00  0.00    +0.000 C 
ATOM     29  C   UNL     1       1.337   8.523  20.171  0.00  0.00    +0.000 A 
BRANCH  29  30
ATOM     30  C   UNL     1       0.718   8.576  21.507  0.00  0.00    +0.000 C 
ATOM     31  N   UNL     1       1.473   8.939  22.579  0.00  0.00    +0.000 N 
ATOM     32  O   UNL     1      -0.466   8.306  21.695  0.00  0.00    +0.000 OA
ATOM     33  H   UNL     1       2.466   9.070  22.572  0.00  0.00    +0.000 HD
ATOM     34  H   UNL     1       1.008   8.918  23.478  0.00  0.00    +0.000 HD
ENDBRANCH  29  30
ENDBRANCH  21  23
ENDBRANCH   3  19
TORSDOF 4
ENDMDL
