MODEL 1
REMARK VINA RESULT:      -5.1      0.000      0.000
REMARK  Name = 
REMARK  4 active torsions:
REMARK  status: ('A' for Active; 'I' for Inactive)
REMARK    1  A    between atoms: C_2  and  C_3
REMARK    2  A    between atoms: C_3  and  N_4
REMARK    3  A    between atoms: C_5  and  C_8
REMARK    4  A    between atoms: N_6  and  C_7
REMARK                            x       y       z     vdW  Elec       q    Type
REMARK                         _______ _______ _______ _____ _____    ______ ____
ROOT
ATOM      1  N   UNL     1       6.029   3.655  13.917  0.00  0.00    +0.000 N 
ATOM      2  C   UNL     1       6.688   4.652  14.634  0.00  0.00    +0.000 C 
ATOM      3  N   UNL     1       7.606   5.466  14.239  0.00  0.00    +0.000 NA
ATOM      4  C   UNL     1       8.180   5.514  12.919  0.00  0.00    +0.000 C 
ATOM      5  H   UNL     1       5.378   3.081  14.453  0.00  0.00    +0.000 HD
ENDROOT
BRANCH   2   6
ATOM      6  C   UNL     1       6.270   4.828  16.165  0.00  0.00    +0.000 C 
ATOM      7 CL   UNL     1       7.666   4.469  17.238  0.00  0.00    +0.000 Cl
ATOM      8 CL   UNL     1       5.760   6.514  16.432  0.00  0.00    +0.000 Cl
ATOM      9 CL   UNL     1       4.954   3.686  16.542  0.00  0.00    +0.000 Cl
ENDBRANCH   2   6
BRANCH   1  10
ATOM     10  C   UNL     1       6.102   3.270  12.537  0.00  0.00    +0.000 C 
BRANCH  10  12
ATOM     11  C   UNL     1       4.043   2.947  11.136  0.00  0.00    +0.000 C 
ATOM     12  C   UNL     1       4.860   3.737  11.848  0.00  0.00    +0.000 C 
ENDBRANCH  10  12
ENDBRANCH   1  10
TORSDOF 3
ENDMDL
MODEL 2
REMARK VINA RESULT:      -5.1      3.085      4.283
REMARK  Name = 
REMARK  4 active torsions:
REMARK  status: ('A' for Active; 'I' for Inactive)
REMARK    1  A    between atoms: C_2  and  C_3
REMARK    2  A    between atoms: C_3  and  N_4
REMARK    3  A    between atoms: C_5  and  C_8
REMARK    4  A    between atoms: N_6  and  C_7
REMARK                            x       y       z     vdW  Elec       q    Type
REMARK                         _______ _______ _______ _____ _____    ______ ____
ROOT
ATOM      1  N   UNL     1       6.127   4.157  17.187  0.00  0.00    +0.000 N 
ATOM      2  C   UNL     1       5.710   4.461  18.482  0.00  0.00    +0.000 C 
ATOM      3  N   UNL     1       6.327   5.120  19.401  0.00  0.00    +0.000 NA
ATOM      4  C   UNL     1       7.642   5.698  19.286  0.00  0.00    +0.000 C 
ATOM      5  H   UNL     1       5.498   3.560  16.649  0.00  0.00    +0.000 HD
ENDROOT
BRANCH   2   6
ATOM      6  C   UNL     1       4.271   3.921  18.916  0.00  0.00    +0.000 C 
ATOM      7 CL   UNL     1       4.436   2.446  19.927  0.00  0.00    +0.000 Cl
ATOM      8 CL   UNL     1       3.449   5.182  19.870  0.00  0.00    +0.000 Cl
ATOM      9 CL   UNL     1       3.341   3.508  17.453  0.00  0.00    +0.000 Cl
ENDBRANCH   2   6
BRANCH   1  10
ATOM     10  C   UNL     1       7.305   4.526  16.456  0.00  0.00    +0.000 C 
BRANCH  10  12
ATOM     11  C   UNL     1       5.997   4.013  14.374  0.00  0.00    +0.000 C 
ATOM     12  C   UNL     1       6.929   4.727  15.023  0.00  0.00    +0.000 C 
ENDBRANCH  10  12
ENDBRANCH   1  10
TORSDOF 3
ENDMDL
MODEL 3
REMARK VINA RESULT:      -5.0      3.629      5.291
REMARK  Name = 
REMARK  4 active torsions:
REMARK  status: ('A' for Active; 'I' for Inactive)
REMARK    1  A    between atoms: C_2  and  C_3
REMARK    2  A    between atoms: C_3  and  N_4
REMARK    3  A    between atoms: C_5  and  C_8
REMARK    4  A    between atoms: N_6  and  C_7
REMARK                            x       y       z     vdW  Elec       q    Type
REMARK                         _______ _______ _______ _____ _____    ______ ____
ROOT
ATOM      1  N   UNL     1       6.163   4.210  18.381  0.00  0.00    +0.000 N 
ATOM      2  C   UNL     1       4.940   3.990  17.749  0.00  0.00    +0.000 C 
ATOM      3  N   UNL     1       4.601   4.228  16.529  0.00  0.00    +0.000 NA
ATOM      4  C   UNL     1       5.445   4.808  15.517  0.00  0.00    +0.000 C 
ATOM      5  H   UNL     1       6.187   4.007  19.381  0.00  0.00    +0.000 HD
ENDROOT
BRANCH   2   6
ATOM      6  C   UNL     1       3.776   3.360  18.643  0.00  0.00    +0.000 C 
ATOM      7 CL   UNL     1       2.777   4.662  19.373  0.00  0.00    +0.000 Cl
ATOM      8 CL   UNL     1       2.735   2.353  17.604  0.00  0.00    +0.000 Cl
ATOM      9 CL   UNL     1       4.505   2.399  19.954  0.00  0.00    +0.000 Cl
ENDBRANCH   2   6
BRANCH   1  10
ATOM     10  C   UNL     1       7.419   4.690  17.881  0.00  0.00    +0.000 C 
BRANCH  10  12
ATOM     11  C   UNL     1       7.509   7.184  17.596  0.00  0.00    +0.000 C 
ATOM     12  C   UNL     1       7.616   6.091  18.366  0.00  0.00    +0.000 C 
ENDBRANCH  10  12
ENDBRANCH   1  10
TORSDOF 3
ENDMDL
MODEL 4
REMARK VINA RESULT:      -5.0      4.680      5.474
REMARK  Name = 
REMARK  4 active torsions:
REMARK  status: ('A' for Active; 'I' for Inactive)
REMARK    1  A    between atoms: C_2  and  C_3
REMARK    2  A    between atoms: C_3  and  N_4
REMARK    3  A    between atoms: C_5  and  C_8
REMARK    4  A    between atoms: N_6  and  C_7
REMARK                            x       y       z     vdW  Elec       q    Type
REMARK                         _______ _______ _______ _____ _____    ______ ____
ROOT
ATOM      1  N   UNL     1       5.291   3.457  18.899  0.00  0.00    +0.000 N 
ATOM      2  C   UNL     1       5.324   4.846  18.794  0.00  0.00    +0.000 C 
ATOM      3  N   UNL     1       4.430   5.709  19.135  0.00  0.00    +0.000 NA
ATOM      4  C   UNL     1       3.145   5.409  19.712  0.00  0.00    +0.000 C 
ATOM      5  H   UNL     1       6.090   2.964  18.500  0.00  0.00    +0.000 HD
ENDROOT
BRANCH   2   6
ATOM      6  C   UNL     1       6.643   5.484  18.157  0.00  0.00    +0.000 C 
ATOM      7 CL   UNL     1       7.873   5.776  19.434  0.00  0.00    +0.000 Cl
ATOM      8 CL   UNL     1       7.314   4.344  16.964  0.00  0.00    +0.000 Cl
ATOM      9 CL   UNL     1       6.227   7.044  17.401  0.00  0.00    +0.000 Cl
ENDBRANCH   2   6
BRANCH   1  10
ATOM     10  C   UNL     1       4.317   2.569  19.465  0.00  0.00    +0.000 C 
BRANCH  10  12
ATOM     11  C   UNL     1       2.418   2.260  17.851  0.00  0.00    +0.000 C 
ATOM     12  C   UNL     1       3.602   1.876  18.349  0.00  0.00    +0.000 C 
ENDBRANCH  10  12
ENDBRANCH   1  10
TORSDOF 3
ENDMDL
MODEL 5
REMARK VINA RESULT:      -5.0      0.384      1.557
REMARK  Name = 
REMARK  4 active torsions:
REMARK  status: ('A' for Active; 'I' for Inactive)
REMARK    1  A    between atoms: C_2  and  C_3
REMARK    2  A    between atoms: C_3  and  N_4
REMARK    3  A    between atoms: C_5  and  C_8
REMARK    4  A    between atoms: N_6  and  C_7
REMARK                            x       y       z     vdW  Elec       q    Type
REMARK                         _______ _______ _______ _____ _____    ______ ____
ROOT
ATOM      1  N   UNL     1       5.848   3.865  13.700  0.00  0.00    +0.000 N 
ATOM      2  C   UNL     1       6.581   4.753  14.486  0.00  0.00    +0.000 C 
ATOM      3  N   UNL     1       7.594   5.479  14.163  0.00  0.00    +0.000 NA
ATOM      4  C   UNL     1       8.222   5.523  12.867  0.00  0.00    +0.000 C 
ATOM      5  H   UNL     1       5.120   3.341  14.186  0.00  0.00    +0.000 HD
ENDROOT
BRANCH   2   6
ATOM      6  C   UNL     1       6.124   4.904  16.009  0.00  0.00    +0.000 C 
ATOM      7 CL   UNL     1       5.614   6.594  16.342  0.00  0.00    +0.000 Cl
ATOM      8 CL   UNL     1       4.742   3.819  16.305  0.00  0.00    +0.000 Cl
ATOM      9 CL   UNL     1       7.499   4.504  17.071  0.00  0.00    +0.000 Cl
ENDBRANCH   2   6
BRANCH   1  10
ATOM     10  C   UNL     1       5.934   3.535  12.307  0.00  0.00    +0.000 C 
BRANCH  10  12
ATOM     11  C   UNL     1       3.941   3.562  10.779  0.00  0.00    +0.000 C 
ATOM     12  C   UNL     1       4.589   3.072  11.846  0.00  0.00    +0.000 C 
ENDBRANCH  10  12
ENDBRANCH   1  10
TORSDOF 3
ENDMDL
MODEL 6
REMARK VINA RESULT:      -5.0      3.439      5.003
REMARK  Name = 
REMARK  4 active torsions:
REMARK  status: ('A' for Active; 'I' for Inactive)
REMARK    1  A    between atoms: C_2  and  C_3
REMARK    2  A    between atoms: C_3  and  N_4
REMARK    3  A    between atoms: C_5  and  C_8
REMARK    4  A    between atoms: N_6  and  C_7
REMARK                            x       y       z     vdW  Elec       q    Type
REMARK                         _______ _______ _______ _____ _____    ______ ____
ROOT
ATOM      1  N   UNL     1       6.090   4.214  18.212  0.00  0.00    +0.000 N 
ATOM      2  C   UNL     1       4.954   4.000  17.434  0.00  0.00    +0.000 C 
ATOM      3  N   UNL     1       4.786   4.190  16.171  0.00  0.00    +0.000 NA
ATOM      4  C   UNL     1       5.775   4.699  15.255  0.00  0.00    +0.000 C 
ATOM      5  H   UNL     1       5.977   4.057  19.214  0.00  0.00    +0.000 HD
ENDROOT
BRANCH   2   6
ATOM      6  C   UNL     1       3.661   3.446  18.192  0.00  0.00    +0.000 C 
ATOM      7 CL   UNL     1       3.778   3.785  19.952  0.00  0.00    +0.000 Cl
ATOM      8 CL   UNL     1       2.219   4.269  17.545  0.00  0.00    +0.000 Cl
ATOM      9 CL   UNL     1       3.561   1.683  17.956  0.00  0.00    +0.000 Cl
ENDBRANCH   2   6
BRANCH   1  10
ATOM     10  C   UNL     1       7.417   4.633  17.862  0.00  0.00    +0.000 C 
BRANCH  10  12
ATOM     11  C   UNL     1       7.430   7.129  17.582  0.00  0.00    +0.000 C 
ATOM     12  C   UNL     1       7.610   6.038  18.340  0.00  0.00    +0.000 C 
ENDBRANCH  10  12
ENDBRANCH   1  10
TORSDOF 3
ENDMDL
MODEL 7
REMARK VINA RESULT:      -5.0      4.182      5.360
REMARK  Name = 
REMARK  4 active torsions:
REMARK  status: ('A' for Active; 'I' for Inactive)
REMARK    1  A    between atoms: C_2  and  C_3
REMARK    2  A    between atoms: C_3  and  N_4
REMARK    3  A    between atoms: C_5  and  C_8
REMARK    4  A    between atoms: N_6  and  C_7
REMARK                            x       y       z     vdW  Elec       q    Type
REMARK                         _______ _______ _______ _____ _____    ______ ____
ROOT
ATOM      1  N   UNL     1       6.144   4.078  18.378  0.00  0.00    +0.000 N 
ATOM      2  C   UNL     1       4.820   4.199  17.958  0.00  0.00    +0.000 C 
ATOM      3  N   UNL     1       4.332   4.919  17.007  0.00  0.00    +0.000 NA
ATOM      4  C   UNL     1       5.079   5.800  16.147  0.00  0.00    +0.000 C 
ATOM      5  H   UNL     1       6.294   3.496  19.203  0.00  0.00    +0.000 HD
ENDROOT
BRANCH   2   6
ATOM      6  C   UNL     1       3.734   3.340  18.754  0.00  0.00    +0.000 C 
ATOM      7 CL   UNL     1       4.530   2.362  20.034  0.00  0.00    +0.000 Cl
ATOM      8 CL   UNL     1       2.573   4.452  19.522  0.00  0.00    +0.000 Cl
ATOM      9 CL   UNL     1       2.919   2.237  17.617  0.00  0.00    +0.000 Cl
ENDBRANCH   2   6
BRANCH   1  10
ATOM     10  C   UNL     1       7.360   4.639  17.865  0.00  0.00    +0.000 C 
BRANCH  10  12
ATOM     11  C   UNL     1       7.882   7.067  18.238  0.00  0.00    +0.000 C 
ATOM     12  C   UNL     1       7.729   5.819  18.706  0.00  0.00    +0.000 C 
ENDBRANCH  10  12
ENDBRANCH   1  10
TORSDOF 3
ENDMDL
MODEL 8
REMARK VINA RESULT:      -4.9      3.189      4.470
REMARK  Name = 
REMARK  4 active torsions:
REMARK  status: ('A' for Active; 'I' for Inactive)
REMARK    1  A    between atoms: C_2  and  C_3
REMARK    2  A    between atoms: C_3  and  N_4
REMARK    3  A    between atoms: C_5  and  C_8
REMARK    4  A    between atoms: N_6  and  C_7
REMARK                            x       y       z     vdW  Elec       q    Type
REMARK                         _______ _______ _______ _____ _____    ______ ____
ROOT
ATOM      1  N   UNL     1       5.227   3.709  16.901  0.00  0.00    +0.000 N 
ATOM      2  C   UNL     1       4.738   3.946  18.185  0.00  0.00    +0.000 C 
ATOM      3  N   UNL     1       5.237   4.674  19.124  0.00  0.00    +0.000 NA
ATOM      4  C   UNL     1       6.466   5.421  19.049  0.00  0.00    +0.000 C 
ATOM      5  H   UNL     1       4.698   3.039  16.343  0.00  0.00    +0.000 HD
ENDROOT
BRANCH   2   6
ATOM      6  C   UNL     1       3.370   3.219  18.575  0.00  0.00    +0.000 C 
ATOM      7 CL   UNL     1       3.498   1.452  18.283  0.00  0.00    +0.000 Cl
ATOM      8 CL   UNL     1       3.048   3.493  20.306  0.00  0.00    +0.000 Cl
ATOM      9 CL   UNL     1       2.057   3.871  17.561  0.00  0.00    +0.000 Cl
ENDBRANCH   2   6
BRANCH   1  10
ATOM     10  C   UNL     1       6.367   4.234  16.206  0.00  0.00    +0.000 C 
BRANCH  10  12
ATOM     11  C   UNL     1       6.172   3.892  13.726  0.00  0.00    +0.000 C 
ATOM     12  C   UNL     1       5.941   4.623  14.826  0.00  0.00    +0.000 C 
ENDBRANCH  10  12
ENDBRANCH   1  10
TORSDOF 3
ENDMDL
MODEL 9
REMARK VINA RESULT:      -4.9      3.163      4.424
REMARK  Name = 
REMARK  4 active torsions:
REMARK  status: ('A' for Active; 'I' for Inactive)
REMARK    1  A    between atoms: C_2  and  C_3
REMARK    2  A    between atoms: C_3  and  N_4
REMARK    3  A    between atoms: C_5  and  C_8
REMARK    4  A    between atoms: N_6  and  C_7
REMARK                            x       y       z     vdW  Elec       q    Type
REMARK                         _______ _______ _______ _____ _____    ______ ____
ROOT
ATOM      1  N   UNL     1       5.307   3.744  16.926  0.00  0.00    +0.000 N 
ATOM      2  C   UNL     1       4.779   3.988  18.193  0.00  0.00    +0.000 C 
ATOM      3  N   UNL     1       5.257   4.710  19.148  0.00  0.00    +0.000 NA
ATOM      4  C   UNL     1       6.498   5.439  19.114  0.00  0.00    +0.000 C 
ATOM      5  H   UNL     1       4.788   3.080  16.351  0.00  0.00    +0.000 HD
ENDROOT
BRANCH   2   6
ATOM      6  C   UNL     1       3.389   3.281  18.537  0.00  0.00    +0.000 C 
ATOM      7 CL   UNL     1       2.997   3.491  20.278  0.00  0.00    +0.000 Cl
ATOM      8 CL   UNL     1       2.103   4.038  17.564  0.00  0.00    +0.000 Cl
ATOM      9 CL   UNL     1       3.523   1.538  18.190  0.00  0.00    +0.000 Cl
ENDBRANCH   2   6
BRANCH   1  10
ATOM     10  C   UNL     1       6.477   4.253  16.269  0.00  0.00    +0.000 C 
BRANCH  10  12
ATOM     11  C   UNL     1       6.102   3.926  13.808  0.00  0.00    +0.000 C 
ATOM     12  C   UNL     1       6.089   4.706  14.898  0.00  0.00    +0.000 C 
ENDBRANCH  10  12
ENDBRANCH   1  10
TORSDOF 3
ENDMDL
