MODEL 1
REMARK VINA RESULT:      -7.7      0.000      0.000
REMARK  Name = 
REMARK  7 active torsions:
REMARK  status: ('A' for Active; 'I' for Inactive)
REMARK    1  A    between atoms: C_1  and  O_2
REMARK    2  A    between atoms: O_2  and  C_3
REMARK    3  A    between atoms: C_3  and  C_4
REMARK    4  A    between atoms: C_8  and  C_9
REMARK    5  A    between atoms: C_9  and  C_10
REMARK    6  A    between atoms: C_16  and  O_17
REMARK    7  A    between atoms: C_16  and  C_18
REMARK                            x       y       z     vdW  Elec       q    Type
REMARK                         _______ _______ _______ _____ _____    ______ ____
ROOT
ATOM      1  C   UNL     1       5.106   6.159  16.148  0.00  0.00    +0.000 C 
ATOM      2  O   UNL     1       5.233   7.074  15.328  0.00  0.00    +0.000 OA
ATOM      3  N   UNL     1       4.302   6.295  17.279  0.00  0.00    +0.000 N 
ATOM      4  C   UNL     1       3.524   7.521  17.420  0.00  0.00    +0.000 C 
ATOM      5  C   UNL     1       2.256   7.315  18.246  0.00  0.00    +0.000 C 
ATOM      6  C   UNL     1       2.553   6.635  19.580  0.00  0.00    +0.000 C 
ATOM      7  C   UNL     1       3.355   5.326  19.419  0.00  0.00    +0.000 C 
ATOM      8  C   UNL     1       4.594   5.576  18.523  0.00  0.00    +0.000 C 
ENDROOT
BRANCH   7   9
ATOM      9  C   UNL     1       2.501   4.216  18.863  0.00  0.00    +0.000 A 
ATOM     10  C   UNL     1       1.293   3.723  19.312  0.00  0.00    +0.000 A 
ATOM     11  N   UNL     1       0.987   2.734  18.430  0.00  0.00    +0.000 N 
ATOM     12  N   UNL     1       1.936   2.600  17.494  0.00  0.00    +0.000 NA
ATOM     13  N   UNL     1       2.869   3.505  17.746  0.00  0.00    +0.000 NA
ATOM     14  H   UNL     1       0.181   2.122  18.396  0.00  0.00    +0.000 HD
ENDBRANCH   7   9
BRANCH   7  15
ATOM     15  O   UNL     1       3.820   4.958  20.737  0.00  0.00    +0.000 OA
ATOM     16  H   UNL     1       4.575   4.355  20.629  0.00  0.00    +0.000 HD
ENDBRANCH   7  15
BRANCH   1  17
ATOM     17  C   UNL     1       5.800   4.818  15.914  0.00  0.00    +0.000 C 
BRANCH  17  22
ATOM     18  C   UNL     1       6.094   3.375  12.372  0.00  0.00    +0.000 A 
ATOM     19  C   UNL     1       7.199   4.084  11.887  0.00  0.00    +0.000 A 
ATOM     20  C   UNL     1       7.847   5.012  12.701  0.00  0.00    +0.000 A 
ATOM     21  C   UNL     1       7.393   5.245  14.000  0.00  0.00    +0.000 A 
ATOM     22  C   UNL     1       6.270   4.563  14.498  0.00  0.00    +0.000 A 
ATOM     23  C   UNL     1       5.650   3.614  13.679  0.00  0.00    +0.000 A 
BRANCH  18  24
ATOM     24  C   UNL     1       5.403   2.329  11.533  0.00  0.00    +0.000 C 
BRANCH  24  26
ATOM     25  C   UNL     1       6.106   0.099  11.296  0.00  0.00    +0.000 C 
ATOM     26  O   UNL     1       6.380   1.455  10.969  0.00  0.00    +0.000 OA
ENDBRANCH  24  26
ENDBRANCH  18  24
ENDBRANCH  17  22
ENDBRANCH   1  17
TORSDOF 6
ENDMDL
MODEL 2
REMARK VINA RESULT:      -7.5      1.074      1.396
REMARK  Name = 
REMARK  7 active torsions:
REMARK  status: ('A' for Active; 'I' for Inactive)
REMARK    1  A    between atoms: C_1  and  O_2
REMARK    2  A    between atoms: O_2  and  C_3
REMARK    3  A    between atoms: C_3  and  C_4
REMARK    4  A    between atoms: C_8  and  C_9
REMARK    5  A    between atoms: C_9  and  C_10
REMARK    6  A    between atoms: C_16  and  O_17
REMARK    7  A    between atoms: C_16  and  C_18
REMARK                            x       y       z     vdW  Elec       q    Type
REMARK                         _______ _______ _______ _____ _____    ______ ____
ROOT
ATOM      1  C   UNL     1       5.135   6.198  16.275  0.00  0.00    +0.000 C 
ATOM      2  O   UNL     1       5.190   7.148  15.487  0.00  0.00    +0.000 OA
ATOM      3  N   UNL     1       4.291   6.212  17.384  0.00  0.00    +0.000 N 
ATOM      4  C   UNL     1       3.386   7.347  17.538  0.00  0.00    +0.000 C 
ATOM      5  C   UNL     1       2.124   6.984  18.317  0.00  0.00    +0.000 C 
ATOM      6  C   UNL     1       2.452   6.294  19.638  0.00  0.00    +0.000 C 
ATOM      7  C   UNL     1       3.389   5.080  19.463  0.00  0.00    +0.000 C 
ATOM      8  C   UNL     1       4.620   5.485  18.614  0.00  0.00    +0.000 C 
ENDROOT
BRANCH   7   9
ATOM      9  C   UNL     1       2.670   3.908  18.846  0.00  0.00    +0.000 A 
ATOM     10  C   UNL     1       3.165   2.873  18.079  0.00  0.00    +0.000 A 
ATOM     11  N   UNL     1       2.073   2.110  17.803  0.00  0.00    +0.000 N 
ATOM     12  N   UNL     1       0.963   2.626  18.347  0.00  0.00    +0.000 NA
ATOM     13  N   UNL     1       1.315   3.728  18.991  0.00  0.00    +0.000 NA
ATOM     14  H   UNL     1       1.999   1.252  17.270  0.00  0.00    +0.000 HD
ENDBRANCH   7   9
BRANCH   7  15
ATOM     15  O   UNL     1       3.851   4.717  20.782  0.00  0.00    +0.000 OA
ATOM     16  H   UNL     1       3.229   4.065  21.147  0.00  0.00    +0.000 HD
ENDBRANCH   7  15
BRANCH   1  17
ATOM     17  C   UNL     1       5.971   4.943  16.022  0.00  0.00    +0.000 C 
BRANCH  17  22
ATOM     18  C   UNL     1       5.759   3.675  12.408  0.00  0.00    +0.000 A 
ATOM     19  C   UNL     1       6.983   4.120  11.898  0.00  0.00    +0.000 A 
ATOM     20  C   UNL     1       7.873   4.814  12.718  0.00  0.00    +0.000 A 
ATOM     21  C   UNL     1       7.541   5.077  14.048  0.00  0.00    +0.000 A 
ATOM     22  C   UNL     1       6.306   4.662  14.573  0.00  0.00    +0.000 A 
ATOM     23  C   UNL     1       5.439   3.940  13.747  0.00  0.00    +0.000 A 
BRANCH  18  24
ATOM     24  C   UNL     1       4.798   2.878  11.560  0.00  0.00    +0.000 C 
BRANCH  24  26
ATOM     25  C   UNL     1       2.923   3.078  10.158  0.00  0.00    +0.000 C 
ATOM     26  O   UNL     1       3.978   3.773  10.810  0.00  0.00    +0.000 OA
ENDBRANCH  24  26
ENDBRANCH  18  24
ENDBRANCH  17  22
ENDBRANCH   1  17
TORSDOF 6
ENDMDL
MODEL 3
REMARK VINA RESULT:      -7.5      3.387      8.090
REMARK  Name = 
REMARK  7 active torsions:
REMARK  status: ('A' for Active; 'I' for Inactive)
REMARK    1  A    between atoms: C_1  and  O_2
REMARK    2  A    between atoms: O_2  and  C_3
REMARK    3  A    between atoms: C_3  and  C_4
REMARK    4  A    between atoms: C_8  and  C_9
REMARK    5  A    between atoms: C_9  and  C_10
REMARK    6  A    between atoms: C_16  and  O_17
REMARK    7  A    between atoms: C_16  and  C_18
REMARK                            x       y       z     vdW  Elec       q    Type
REMARK                         _______ _______ _______ _____ _____    ______ ____
ROOT
ATOM      1  C   UNL     1       3.295   5.141  18.193  0.00  0.00    +0.000 C 
ATOM      2  O   UNL     1       2.296   4.717  17.603  0.00  0.00    +0.000 OA
ATOM      3  N   UNL     1       4.584   4.876  17.735  0.00  0.00    +0.000 N 
ATOM      4  C   UNL     1       4.727   4.164  16.469  0.00  0.00    +0.000 C 
ATOM      5  C   UNL     1       6.034   4.499  15.756  0.00  0.00    +0.000 C 
ATOM      6  C   UNL     1       7.240   4.334  16.676  0.00  0.00    +0.000 C 
ATOM      7  C   UNL     1       7.092   5.111  18.001  0.00  0.00    +0.000 C 
ATOM      8  C   UNL     1       5.725   4.784  18.652  0.00  0.00    +0.000 C 
ENDROOT
BRANCH   7   9
ATOM      9  C   UNL     1       7.252   6.595  17.796  0.00  0.00    +0.000 A 
ATOM     10  C   UNL     1       8.172   7.468  18.342  0.00  0.00    +0.000 A 
ATOM     11  N   UNL     1       7.847   8.675  17.805  0.00  0.00    +0.000 N 
ATOM     12  N   UNL     1       6.792   8.579  16.986  0.00  0.00    +0.000 NA
ATOM     13  N   UNL     1       6.418   7.309  16.969  0.00  0.00    +0.000 NA
ATOM     14  H   UNL     1       8.276   9.581  17.940  0.00  0.00    +0.000 HD
ENDBRANCH   7   9
BRANCH   7  15
ATOM     15  O   UNL     1       8.135   4.635  18.881  0.00  0.00    +0.000 OA
ATOM     16  H   UNL     1       8.367   3.731  18.607  0.00  0.00    +0.000 HD
ENDBRANCH   7  15
BRANCH   1  17
ATOM     17  C   UNL     1       3.137   6.020  19.433  0.00  0.00    +0.000 C 
BRANCH  17  22
ATOM     18  C   UNL     1       1.045   9.194  19.952  0.00  0.00    +0.000 A 
ATOM     19  C   UNL     1       1.230   9.838  18.724  0.00  0.00    +0.000 A 
ATOM     20  C   UNL     1       2.015   9.246  17.734  0.00  0.00    +0.000 A 
ATOM     21  C   UNL     1       2.628   8.014  17.968  0.00  0.00    +0.000 A 
ATOM     22  C   UNL     1       2.476   7.363  19.204  0.00  0.00    +0.000 A 
ATOM     23  C   UNL     1       1.662   7.954  20.173  0.00  0.00    +0.000 A 
BRANCH  18  24
ATOM     24  C   UNL     1       0.161   9.784  21.023  0.00  0.00    +0.000 C 
BRANCH  24  26
ATOM     25  C   UNL     1      -0.077   9.496  23.343  0.00  0.00    +0.000 C 
ATOM     26  O   UNL     1       0.014   8.841  22.085  0.00  0.00    +0.000 OA
ENDBRANCH  24  26
ENDBRANCH  18  24
ENDBRANCH  17  22
ENDBRANCH   1  17
TORSDOF 6
ENDMDL
MODEL 4
REMARK VINA RESULT:      -7.5      3.332      8.297
REMARK  Name = 
REMARK  7 active torsions:
REMARK  status: ('A' for Active; 'I' for Inactive)
REMARK    1  A    between atoms: C_1  and  O_2
REMARK    2  A    between atoms: O_2  and  C_3
REMARK    3  A    between atoms: C_3  and  C_4
REMARK    4  A    between atoms: C_8  and  C_9
REMARK    5  A    between atoms: C_9  and  C_10
REMARK    6  A    between atoms: C_16  and  O_17
REMARK    7  A    between atoms: C_16  and  C_18
REMARK                            x       y       z     vdW  Elec       q    Type
REMARK                         _______ _______ _______ _____ _____    ______ ____
ROOT
ATOM      1  C   UNL     1       3.316   4.995  18.224  0.00  0.00    +0.000 C 
ATOM      2  O   UNL     1       2.282   4.638  17.651  0.00  0.00    +0.000 OA
ATOM      3  N   UNL     1       4.576   4.764  17.674  0.00  0.00    +0.000 N 
ATOM      4  C   UNL     1       4.641   4.176  16.339  0.00  0.00    +0.000 C 
ATOM      5  C   UNL     1       5.913   4.566  15.592  0.00  0.00    +0.000 C 
ATOM      6  C   UNL     1       7.164   4.304  16.425  0.00  0.00    +0.000 C 
ATOM      7  C   UNL     1       7.097   4.951  17.825  0.00  0.00    +0.000 C 
ATOM      8  C   UNL     1       5.762   4.575  18.514  0.00  0.00    +0.000 C 
ENDROOT
BRANCH   7   9
ATOM      9  C   UNL     1       7.266   6.447  17.754  0.00  0.00    +0.000 A 
ATOM     10  C   UNL     1       6.540   7.384  17.047  0.00  0.00    +0.000 A 
ATOM     11  N   UNL     1       7.132   8.569  17.358  0.00  0.00    +0.000 N 
ATOM     12  N   UNL     1       8.165   8.397  18.193  0.00  0.00    +0.000 NA
ATOM     13  N   UNL     1       8.257   7.101  18.447  0.00  0.00    +0.000 NA
ATOM     14  H   UNL     1       6.904   9.507  17.054  0.00  0.00    +0.000 HD
ENDBRANCH   7   9
BRANCH   7  15
ATOM     15  O   UNL     1       8.179   4.384  18.597  0.00  0.00    +0.000 OA
ATOM     16  H   UNL     1       7.822   3.633  19.102  0.00  0.00    +0.000 HD
ENDBRANCH   7  15
BRANCH   1  17
ATOM     17  C   UNL     1       3.236   5.752  19.549  0.00  0.00    +0.000 C 
BRANCH  17  22
ATOM     18  C   UNL     1       1.017   8.712  20.565  0.00  0.00    +0.000 A 
ATOM     19  C   UNL     1       1.027   9.468  19.388  0.00  0.00    +0.000 A 
ATOM     20  C   UNL     1       1.736   9.019  18.273  0.00  0.00    +0.000 A 
ATOM     21  C   UNL     1       2.446   7.819  18.330  0.00  0.00    +0.000 A 
ATOM     22  C   UNL     1       2.471   7.058  19.511  0.00  0.00    +0.000 A 
ATOM     23  C   UNL     1       1.731   7.506  20.609  0.00  0.00    +0.000 A 
BRANCH  18  24
ATOM     24  C   UNL     1       0.219   9.145  21.770  0.00  0.00    +0.000 C 
BRANCH  24  26
ATOM     25  C   UNL     1      -0.921  10.991  22.673  0.00  0.00    +0.000 C 
ATOM     26  O   UNL     1      -0.428  10.385  21.485  0.00  0.00    +0.000 OA
ENDBRANCH  24  26
ENDBRANCH  18  24
ENDBRANCH  17  22
ENDBRANCH   1  17
TORSDOF 6
ENDMDL
MODEL 5
REMARK VINA RESULT:      -7.4      3.798      8.237
REMARK  Name = 
REMARK  7 active torsions:
REMARK  status: ('A' for Active; 'I' for Inactive)
REMARK    1  A    between atoms: C_1  and  O_2
REMARK    2  A    between atoms: O_2  and  C_3
REMARK    3  A    between atoms: C_3  and  C_4
REMARK    4  A    between atoms: C_8  and  C_9
REMARK    5  A    between atoms: C_9  and  C_10
REMARK    6  A    between atoms: C_16  and  O_17
REMARK    7  A    between atoms: C_16  and  C_18
REMARK                            x       y       z     vdW  Elec       q    Type
REMARK                         _______ _______ _______ _____ _____    ______ ____
ROOT
ATOM      1  C   UNL     1       1.880   5.399  19.968  0.00  0.00    +0.000 C 
ATOM      2  O   UNL     1       0.704   5.118  20.219  0.00  0.00    +0.000 OA
ATOM      3  N   UNL     1       2.693   4.549  19.221  0.00  0.00    +0.000 N 
ATOM      4  C   UNL     1       2.086   3.351  18.648  0.00  0.00    +0.000 C 
ATOM      5  C   UNL     1       2.801   2.884  17.383  0.00  0.00    +0.000 C 
ATOM      6  C   UNL     1       4.305   2.749  17.599  0.00  0.00    +0.000 C 
ATOM      7  C   UNL     1       4.944   4.028  18.181  0.00  0.00    +0.000 C 
ATOM      8  C   UNL     1       4.145   4.494  19.423  0.00  0.00    +0.000 C 
ENDROOT
BRANCH   7   9
ATOM      9  C   UNL     1       5.030   5.124  17.151  0.00  0.00    +0.000 A 
ATOM     10  C   UNL     1       4.791   6.477  17.280  0.00  0.00    +0.000 A 
ATOM     11  N   UNL     1       5.023   6.978  16.036  0.00  0.00    +0.000 N 
ATOM     12  N   UNL     1       5.374   6.013  15.177  0.00  0.00    +0.000 NA
ATOM     13  N   UNL     1       5.384   4.871  15.847  0.00  0.00    +0.000 NA
ATOM     14  H   UNL     1       4.966   7.931  15.700  0.00  0.00    +0.000 HD
ENDBRANCH   7   9
BRANCH   7  15
ATOM     15  O   UNL     1       6.276   3.670  18.611  0.00  0.00    +0.000 OA
ATOM     16  H   UNL     1       6.851   4.441  18.469  0.00  0.00    +0.000 HD
ENDBRANCH   7  15
BRANCH   1  17
ATOM     17  C   UNL     1       2.467   6.730  20.438  0.00  0.00    +0.000 C 
BRANCH  17  22
ATOM     18  C   UNL     1       0.511  10.006  20.048  0.00  0.00    +0.000 A 
ATOM     19  C   UNL     1       0.655  10.240  18.676  0.00  0.00    +0.000 A 
ATOM     20  C   UNL     1       1.369   9.342  17.884  0.00  0.00    +0.000 A 
ATOM     21  C   UNL     1       1.951   8.210  18.457  0.00  0.00    +0.000 A 
ATOM     22  C   UNL     1       1.841   7.970  19.837  0.00  0.00    +0.000 A 
ATOM     23  C   UNL     1       1.097   8.864  20.612  0.00  0.00    +0.000 A 
BRANCH  18  24
ATOM     24  C   UNL     1      -0.297  10.933  20.922  0.00  0.00    +0.000 C 
BRANCH  24  26
ATOM     25  C   UNL     1      -1.009  10.550  23.129  0.00  0.00    +0.000 C 
ATOM     26  O   UNL     1       0.110  10.773  22.281  0.00  0.00    +0.000 OA
ENDBRANCH  24  26
ENDBRANCH  18  24
ENDBRANCH  17  22
ENDBRANCH   1  17
TORSDOF 6
ENDMDL
MODEL 6
REMARK VINA RESULT:      -7.4      3.175      7.802
REMARK  Name = 
REMARK  7 active torsions:
REMARK  status: ('A' for Active; 'I' for Inactive)
REMARK    1  A    between atoms: C_1  and  O_2
REMARK    2  A    between atoms: O_2  and  C_3
REMARK    3  A    between atoms: C_3  and  C_4
REMARK    4  A    between atoms: C_8  and  C_9
REMARK    5  A    between atoms: C_9  and  C_10
REMARK    6  A    between atoms: C_16  and  O_17
REMARK    7  A    between atoms: C_16  and  C_18
REMARK                            x       y       z     vdW  Elec       q    Type
REMARK                         _______ _______ _______ _____ _____    ______ ____
ROOT
ATOM      1  C   UNL     1       3.338   4.816  17.955  0.00  0.00    +0.000 C 
ATOM      2  O   UNL     1       2.262   4.597  17.391  0.00  0.00    +0.000 OA
ATOM      3  N   UNL     1       4.557   4.631  17.305  0.00  0.00    +0.000 N 
ATOM      4  C   UNL     1       4.529   4.266  15.892  0.00  0.00    +0.000 C 
ATOM      5  C   UNL     1       5.780   4.725  15.146  0.00  0.00    +0.000 C 
ATOM      6  C   UNL     1       7.057   4.283  15.855  0.00  0.00    +0.000 C 
ATOM      7  C   UNL     1       7.089   4.694  17.342  0.00  0.00    +0.000 C 
ATOM      8  C   UNL     1       5.774   4.262  18.036  0.00  0.00    +0.000 C 
ENDROOT
BRANCH   7   9
ATOM      9  C   UNL     1       7.324   6.174  17.504  0.00  0.00    +0.000 A 
ATOM     10  C   UNL     1       8.020   6.856  18.482  0.00  0.00    +0.000 A 
ATOM     11  N   UNL     1       7.904   8.163  18.124  0.00  0.00    +0.000 N 
ATOM     12  N   UNL     1       7.181   8.304  17.006  0.00  0.00    +0.000 NA
ATOM     13  N   UNL     1       6.820   7.092  16.613  0.00  0.00    +0.000 NA
ATOM     14  H   UNL     1       8.274   8.993  18.571  0.00  0.00    +0.000 HD
ENDBRANCH   7   9
BRANCH   7  15
ATOM     15  O   UNL     1       8.180   3.968  17.951  0.00  0.00    +0.000 OA
ATOM     16  H   UNL     1       7.900   3.042  18.054  0.00  0.00    +0.000 HD
ENDBRANCH   7  15
BRANCH   1  17
ATOM     17  C   UNL     1       3.360   5.349  19.387  0.00  0.00    +0.000 C 
BRANCH  17  22
ATOM     18  C   UNL     1       1.784   8.821  18.964  0.00  0.00    +0.000 A 
ATOM     19  C   UNL     1       1.038   8.920  20.144  0.00  0.00    +0.000 A 
ATOM     20  C   UNL     1       1.053   7.879  21.071  0.00  0.00    +0.000 A 
ATOM     21  C   UNL     1       1.805   6.729  20.823  0.00  0.00    +0.000 A 
ATOM     22  C   UNL     1       2.540   6.598  19.632  0.00  0.00    +0.000 A 
ATOM     23  C   UNL     1       2.538   7.664  18.728  0.00  0.00    +0.000 A 
BRANCH  18  24
ATOM     24  C   UNL     1       1.828   9.951  17.966  0.00  0.00    +0.000 C 
BRANCH  24  26
ATOM     25  C   UNL     1       1.917  12.211  18.607  0.00  0.00    +0.000 C 
ATOM     26  O   UNL     1       1.091  11.062  18.478  0.00  0.00    +0.000 OA
ENDBRANCH  24  26
ENDBRANCH  18  24
ENDBRANCH  17  22
ENDBRANCH   1  17
TORSDOF 6
ENDMDL
MODEL 7
REMARK VINA RESULT:      -7.2      2.427      4.160
REMARK  Name = 
REMARK  7 active torsions:
REMARK  status: ('A' for Active; 'I' for Inactive)
REMARK    1  A    between atoms: C_1  and  O_2
REMARK    2  A    between atoms: O_2  and  C_3
REMARK    3  A    between atoms: C_3  and  C_4
REMARK    4  A    between atoms: C_8  and  C_9
REMARK    5  A    between atoms: C_9  and  C_10
REMARK    6  A    between atoms: C_16  and  O_17
REMARK    7  A    between atoms: C_16  and  C_18
REMARK                            x       y       z     vdW  Elec       q    Type
REMARK                         _______ _______ _______ _____ _____    ______ ____
ROOT
ATOM      1  C   UNL     1       2.716   5.865  18.282  0.00  0.00    +0.000 C 
ATOM      2  O   UNL     1       2.173   6.281  17.254  0.00  0.00    +0.000 OA
ATOM      3  N   UNL     1       2.184   4.804  19.014  0.00  0.00    +0.000 N 
ATOM      4  C   UNL     1       1.012   4.122  18.475  0.00  0.00    +0.000 C 
ATOM      5  C   UNL     1       0.922   2.668  18.933  0.00  0.00    +0.000 C 
ATOM      6  C   UNL     1       1.045   2.542  20.449  0.00  0.00    +0.000 C 
ATOM      7  C   UNL     1       2.300   3.245  21.008  0.00  0.00    +0.000 C 
ATOM      8  C   UNL     1       2.377   4.694  20.464  0.00  0.00    +0.000 C 
ENDROOT
BRANCH   7   9
ATOM      9  C   UNL     1       3.557   2.479  20.683  0.00  0.00    +0.000 A 
ATOM     10  C   UNL     1       4.199   2.308  19.473  0.00  0.00    +0.000 A 
ATOM     11  N   UNL     1       5.275   1.532  19.773  0.00  0.00    +0.000 N 
ATOM     12  N   UNL     1       5.310   1.223  21.076  0.00  0.00    +0.000 NA
ATOM     13  N   UNL     1       4.264   1.800  21.647  0.00  0.00    +0.000 NA
ATOM     14  H   UNL     1       6.008   1.179  19.171  0.00  0.00    +0.000 HD
ENDBRANCH   7   9
BRANCH   7  15
ATOM     15  O   UNL     1       2.137   3.311  22.442  0.00  0.00    +0.000 OA
ATOM     16  H   UNL     1       1.311   3.790  22.626  0.00  0.00    +0.000 HD
ENDBRANCH   7  15
BRANCH   1  17
ATOM     17  C   UNL     1       4.031   6.481  18.758  0.00  0.00    +0.000 C 
BRANCH  17  22
ATOM     18  C   UNL     1       6.640   5.093  16.312  0.00  0.00    +0.000 A 
ATOM     19  C   UNL     1       7.620   4.636  17.200  0.00  0.00    +0.000 A 
ATOM     20  C   UNL     1       7.434   4.766  18.576  0.00  0.00    +0.000 A 
ATOM     21  C   UNL     1       6.273   5.361  19.074  0.00  0.00    +0.000 A 
ATOM     22  C   UNL     1       5.289   5.851  18.199  0.00  0.00    +0.000 A 
ATOM     23  C   UNL     1       5.477   5.685  16.824  0.00  0.00    +0.000 A 
BRANCH  18  24
ATOM     24  C   UNL     1       6.789   4.921  14.821  0.00  0.00    +0.000 C 
BRANCH  24  26
ATOM     25  C   UNL     1       6.002   3.600  13.044  0.00  0.00    +0.000 C 
ATOM     26  O   UNL     1       5.704   4.137  14.325  0.00  0.00    +0.000 OA
ENDBRANCH  24  26
ENDBRANCH  18  24
ENDBRANCH  17  22
ENDBRANCH   1  17
TORSDOF 6
ENDMDL
MODEL 8
REMARK VINA RESULT:      -7.1      3.748      8.185
REMARK  Name = 
REMARK  7 active torsions:
REMARK  status: ('A' for Active; 'I' for Inactive)
REMARK    1  A    between atoms: C_1  and  O_2
REMARK    2  A    between atoms: O_2  and  C_3
REMARK    3  A    between atoms: C_3  and  C_4
REMARK    4  A    between atoms: C_8  and  C_9
REMARK    5  A    between atoms: C_9  and  C_10
REMARK    6  A    between atoms: C_16  and  O_17
REMARK    7  A    between atoms: C_16  and  C_18
REMARK                            x       y       z     vdW  Elec       q    Type
REMARK                         _______ _______ _______ _____ _____    ______ ____
ROOT
ATOM      1  C   UNL     1       1.362   5.188  20.343  0.00  0.00    +0.000 C 
ATOM      2  O   UNL     1       0.138   5.189  20.512  0.00  0.00    +0.000 OA
ATOM      3  N   UNL     1       2.018   4.110  19.750  0.00  0.00    +0.000 N 
ATOM      4  C   UNL     1       1.204   3.014  19.234  0.00  0.00    +0.000 C 
ATOM      5  C   UNL     1       1.884   2.275  18.084  0.00  0.00    +0.000 C 
ATOM      6  C   UNL     1       3.304   1.849  18.443  0.00  0.00    +0.000 C 
ATOM      7  C   UNL     1       4.165   3.019  18.964  0.00  0.00    +0.000 C 
ATOM      8  C   UNL     1       3.406   3.773  20.084  0.00  0.00    +0.000 C 
ENDROOT
BRANCH   7   9
ATOM      9  C   UNL     1       4.559   3.957  17.852  0.00  0.00    +0.000 A 
ATOM     10  C   UNL     1       4.916   3.680  16.548  0.00  0.00    +0.000 A 
ATOM     11  N   UNL     1       5.164   4.901  16.003  0.00  0.00    +0.000 N 
ATOM     12  N   UNL     1       4.987   5.883  16.896  0.00  0.00    +0.000 NA
ATOM     13  N   UNL     1       4.613   5.319  18.034  0.00  0.00    +0.000 NA
ATOM     14  H   UNL     1       5.450   5.145  15.063  0.00  0.00    +0.000 HD
ENDBRANCH   7   9
BRANCH   7  15
ATOM     15  O   UNL     1       5.355   2.436  19.541  0.00  0.00    +0.000 OA
ATOM     16  H   UNL     1       5.707   3.064  20.195  0.00  0.00    +0.000 HD
ENDBRANCH   7  15
BRANCH   1  17
ATOM     17  C   UNL     1       2.193   6.406  20.742  0.00  0.00    +0.000 C 
BRANCH  17  22
ATOM     18  C   UNL     1       0.746   9.885  20.022  0.00  0.00    +0.000 A 
ATOM     19  C   UNL     1       1.152  10.072  18.695  0.00  0.00    +0.000 A 
ATOM     20  C   UNL     1       1.877   9.079  18.039  0.00  0.00    +0.000 A 
ATOM     21  C   UNL     1       2.210   7.897  18.703  0.00  0.00    +0.000 A 
ATOM     22  C   UNL     1       1.835   7.700  20.043  0.00  0.00    +0.000 A 
ATOM     23  C   UNL     1       1.082   8.693  20.677  0.00  0.00    +0.000 A 
BRANCH  18  24
ATOM     24  C   UNL     1      -0.082  10.920  20.742  0.00  0.00    +0.000 C 
BRANCH  24  26
ATOM     25  C   UNL     1      -0.852  10.813  22.960  0.00  0.00    +0.000 C 
ATOM     26  O   UNL     1       0.287  10.942  22.121  0.00  0.00    +0.000 OA
ENDBRANCH  24  26
ENDBRANCH  18  24
ENDBRANCH  17  22
ENDBRANCH   1  17
TORSDOF 6
ENDMDL
MODEL 9
REMARK VINA RESULT:      -7.1      3.525      8.194
REMARK  Name = 
REMARK  7 active torsions:
REMARK  status: ('A' for Active; 'I' for Inactive)
REMARK    1  A    between atoms: C_1  and  O_2
REMARK    2  A    between atoms: O_2  and  C_3
REMARK    3  A    between atoms: C_3  and  C_4
REMARK    4  A    between atoms: C_8  and  C_9
REMARK    5  A    between atoms: C_9  and  C_10
REMARK    6  A    between atoms: C_16  and  O_17
REMARK    7  A    between atoms: C_16  and  C_18
REMARK                            x       y       z     vdW  Elec       q    Type
REMARK                         _______ _______ _______ _____ _____    ______ ____
ROOT
ATOM      1  C   UNL     1       3.676   5.600  19.071  0.00  0.00    +0.000 C 
ATOM      2  O   UNL     1       3.290   4.955  20.051  0.00  0.00    +0.000 OA
ATOM      3  N   UNL     1       5.028   5.696  18.744  0.00  0.00    +0.000 N 
ATOM      4  C   UNL     1       5.979   4.923  19.535  0.00  0.00    +0.000 C 
ATOM      5  C   UNL     1       7.238   4.565  18.749  0.00  0.00    +0.000 C 
ATOM      6  C   UNL     1       7.862   5.792  18.090  0.00  0.00    +0.000 C 
ATOM      7  C   UNL     1       6.856   6.590  17.235  0.00  0.00    +0.000 C 
ATOM      8  C   UNL     1       5.574   6.872  18.058  0.00  0.00    +0.000 C 
ENDROOT
BRANCH   7   9
ATOM      9  C   UNL     1       6.527   5.873  15.951  0.00  0.00    +0.000 A 
ATOM     10  C   UNL     1       5.315   5.397  15.491  0.00  0.00    +0.000 A 
ATOM     11  N   UNL     1       5.610   4.845  14.283  0.00  0.00    +0.000 N 
ATOM     12  N   UNL     1       6.914   4.952  14.000  0.00  0.00    +0.000 NA
ATOM     13  N   UNL     1       7.489   5.583  15.013  0.00  0.00    +0.000 NA
ATOM     14  H   UNL     1       5.003   4.390  13.613  0.00  0.00    +0.000 HD
ENDBRANCH   7   9
BRANCH   7  15
ATOM     15  O   UNL     1       7.481   7.856  16.928  0.00  0.00    +0.000 OA
ATOM     16  H   UNL     1       8.436   7.762  17.085  0.00  0.00    +0.000 HD
ENDBRANCH   7  15
BRANCH   1  17
ATOM     17  C   UNL     1       2.662   6.280  18.152  0.00  0.00    +0.000 C 
BRANCH  17  22
ATOM     18  C   UNL     1       1.239   8.968  20.491  0.00  0.00    +0.000 A 
ATOM     19  C   UNL     1       0.962   9.993  19.580  0.00  0.00    +0.000 A 
ATOM     20  C   UNL     1       1.224   9.813  18.222  0.00  0.00    +0.000 A 
ATOM     21  C   UNL     1       1.772   8.612  17.766  0.00  0.00    +0.000 A 
ATOM     22  C   UNL     1       2.082   7.580  18.667  0.00  0.00    +0.000 A 
ATOM     23  C   UNL     1       1.785   7.765  20.021  0.00  0.00    +0.000 A 
BRANCH  18  24
ATOM     24  C   UNL     1       0.921   9.114  21.958  0.00  0.00    +0.000 C 
BRANCH  24  26
ATOM     25  C   UNL     1      -0.742  10.441  22.955  0.00  0.00    +0.000 C 
ATOM     26  O   UNL     1       0.469  10.444  22.212  0.00  0.00    +0.000 OA
ENDBRANCH  24  26
ENDBRANCH  18  24
ENDBRANCH  17  22
ENDBRANCH   1  17
TORSDOF 6
ENDMDL
