MODEL 1
REMARK VINA RESULT:      -8.1      0.000      0.000
REMARK  Name = 
REMARK  13 active torsions:
REMARK  status: ('A' for Active; 'I' for Inactive)
REMARK    1  A    between atoms: C_1  and  C_2
REMARK    2  A    between atoms: C_2  and  C_3
REMARK    3  A    between atoms: C_3  and  C_4
REMARK    4  A    between atoms: C_4  and  C_5
REMARK    5  A    between atoms: C_5  and  C_6
REMARK    6  A    between atoms: C_6  and  N_7
REMARK    7  A    between atoms: C_8  and  C_10
REMARK    8  A    between atoms: C_12  and  N_13
REMARK    9  A    between atoms: N_13  and  C_14
REMARK   10  A    between atoms: C_14  and  C_15
REMARK   11  A    between atoms: C_17  and  O_18
REMARK   12  A    between atoms: C_21  and  O_22
REMARK   13  A    between atoms: C_25  and  O_26
REMARK                            x       y       z     vdW  Elec       q    Type
REMARK                         _______ _______ _______ _____ _____    ______ ____
ROOT
ATOM      1  C   UNL     1       6.345   5.124  16.230  0.00  0.00    +0.000 A 
ATOM      2  C   UNL     1       5.085   5.734  16.358  0.00  0.00    +0.000 A 
ATOM      3  C   UNL     1       4.472   5.896  17.603  0.00  0.00    +0.000 A 
ATOM      4  C   UNL     1       5.161   5.438  18.733  0.00  0.00    +0.000 A 
ATOM      5  C   UNL     1       6.430   4.864  18.631  0.00  0.00    +0.000 A 
ATOM      6  C   UNL     1       7.026   4.710  17.382  0.00  0.00    +0.000 A 
ENDROOT
BRANCH   1   8
ATOM      7  N   UNL     1       6.157   4.113  14.035  0.00  0.00    +0.000 N 
ATOM      8  C   UNL     1       6.908   4.926  14.867  0.00  0.00    +0.000 C 
ATOM      9  O   UNL     1       7.954   5.464  14.509  0.00  0.00    +0.000 OA
ATOM     10  H   UNL     1       5.427   3.548  14.442  0.00  0.00    +0.000 HD
BRANCH   7  11
ATOM     11  C   UNL     1       6.534   3.858  12.660  0.00  0.00    +0.000 C 
BRANCH  11  12
ATOM     12  C   UNL     1       6.115   2.463  12.205  0.00  0.00    +0.000 C 
BRANCH  12  13
ATOM     13  C   UNL     1       5.161   2.527  11.010  0.00  0.00    +0.000 C 
BRANCH  13  14
ATOM     14  C   UNL     1       3.814   3.138  11.399  0.00  0.00    +0.000 C 
BRANCH  14  16
ATOM     15  C   UNL     1       2.875   3.786   9.156  0.00  0.00    +0.000 C 
ATOM     16  C   UNL     1       3.438   4.296  10.474  0.00  0.00    +0.000 C 
ENDBRANCH  14  16
ENDBRANCH  13  14
ENDBRANCH  12  13
ENDBRANCH  11  12
ENDBRANCH   7  11
ENDBRANCH   1   8
BRANCH   3  17
ATOM     17  N   UNL     1       3.159   6.370  17.662  0.00  0.00    +0.000 N 
ATOM     18  H   UNL     1       2.984   7.200  17.109  0.00  0.00    +0.000 HD
BRANCH  17  19
ATOM     19  C   UNL     1       2.425   6.352  18.935  0.00  0.00    +0.000 C 
BRANCH  19  20
ATOM     20  C   UNL     1       2.059   4.950  19.360  0.00  0.00    +0.000 A 
ATOM     21  C   UNL     1       2.255   4.530  20.687  0.00  0.00    +0.000 A 
ATOM     22  C   UNL     1       1.886   3.257  21.087  0.00  0.00    +0.000 A 
ATOM     23  C   UNL     1       1.278   2.374  20.199  0.00  0.00    +0.000 A 
ATOM     24  C   UNL     1       1.038   2.785  18.886  0.00  0.00    +0.000 A 
ATOM     25  C   UNL     1       1.422   4.059  18.476  0.00  0.00    +0.000 A 
BRANCH  22  26
ATOM     26  O   UNL     1       2.107   2.834  22.367  0.00  0.00    +0.000 OA
ATOM     27  H   UNL     1       2.533   3.558  22.856  0.00  0.00    +0.000 HD
ENDBRANCH  22  26
BRANCH  25  28
ATOM     28  O   UNL     1       1.168   4.468  17.193  0.00  0.00    +0.000 OA
ATOM     29  H   UNL     1       0.858   3.704  16.680  0.00  0.00    +0.000 HD
ENDBRANCH  25  28
ENDBRANCH  19  20
ENDBRANCH  17  19
ENDBRANCH   3  17
BRANCH   6  30
ATOM     30  O   UNL     1       8.251   4.118  17.309  0.00  0.00    +0.000 OA
ATOM     31  H   UNL     1       8.916   4.778  17.070  0.00  0.00    +0.000 HD
ENDBRANCH   6  30
TORSDOF 12
ENDMDL
MODEL 2
REMARK VINA RESULT:      -8.1      1.002      1.648
REMARK  Name = 
REMARK  13 active torsions:
REMARK  status: ('A' for Active; 'I' for Inactive)
REMARK    1  A    between atoms: C_1  and  C_2
REMARK    2  A    between atoms: C_2  and  C_3
REMARK    3  A    between atoms: C_3  and  C_4
REMARK    4  A    between atoms: C_4  and  C_5
REMARK    5  A    between atoms: C_5  and  C_6
REMARK    6  A    between atoms: C_6  and  N_7
REMARK    7  A    between atoms: C_8  and  C_10
REMARK    8  A    between atoms: C_12  and  N_13
REMARK    9  A    between atoms: N_13  and  C_14
REMARK   10  A    between atoms: C_14  and  C_15
REMARK   11  A    between atoms: C_17  and  O_18
REMARK   12  A    between atoms: C_21  and  O_22
REMARK   13  A    between atoms: C_25  and  O_26
REMARK                            x       y       z     vdW  Elec       q    Type
REMARK                         _______ _______ _______ _____ _____    ______ ____
ROOT
ATOM      1  C   UNL     1       6.403   5.066  15.912  0.00  0.00    +0.000 A 
ATOM      2  C   UNL     1       5.111   5.612  15.997  0.00  0.00    +0.000 A 
ATOM      3  C   UNL     1       4.420   5.673  17.210  0.00  0.00    +0.000 A 
ATOM      4  C   UNL     1       5.063   5.179  18.351  0.00  0.00    +0.000 A 
ATOM      5  C   UNL     1       6.361   4.668  18.295  0.00  0.00    +0.000 A 
ATOM      6  C   UNL     1       7.034   4.614  17.078  0.00  0.00    +0.000 A 
ENDROOT
BRANCH   1   8
ATOM      7  N   UNL     1       6.418   4.140  13.672  0.00  0.00    +0.000 N 
ATOM      8  C   UNL     1       7.054   4.973  14.577  0.00  0.00    +0.000 C 
ATOM      9  O   UNL     1       8.069   5.608  14.301  0.00  0.00    +0.000 OA
ATOM     10  H   UNL     1       5.716   3.501  14.014  0.00  0.00    +0.000 HD
BRANCH   7  11
ATOM     11  C   UNL     1       6.888   3.976  12.311  0.00  0.00    +0.000 C 
BRANCH  11  12
ATOM     12  C   UNL     1       6.287   2.740  11.647  0.00  0.00    +0.000 C 
BRANCH  12  13
ATOM     13  C   UNL     1       4.771   2.680  11.843  0.00  0.00    +0.000 C 
BRANCH  13  14
ATOM     14  C   UNL     1       4.073   3.870  11.182  0.00  0.00    +0.000 C 
BRANCH  14  16
ATOM     15  C   UNL     1       2.717   4.562   9.179  0.00  0.00    +0.000 C 
ATOM     16  C   UNL     1       3.094   3.413  10.101  0.00  0.00    +0.000 C 
ENDBRANCH  14  16
ENDBRANCH  13  14
ENDBRANCH  12  13
ENDBRANCH  11  12
ENDBRANCH   7  11
ENDBRANCH   1   8
BRANCH   3  17
ATOM     17  N   UNL     1       3.084   6.086  17.215  0.00  0.00    +0.000 N 
ATOM     18  H   UNL     1       2.844   6.747  16.487  0.00  0.00    +0.000 HD
BRANCH  17  19
ATOM     19  C   UNL     1       2.398   6.344  18.488  0.00  0.00    +0.000 C 
BRANCH  19  20
ATOM     20  C   UNL     1       1.888   5.073  19.126  0.00  0.00    +0.000 A 
ATOM     21  C   UNL     1       1.504   3.979  18.332  0.00  0.00    +0.000 A 
ATOM     22  C   UNL     1       1.071   2.800  18.914  0.00  0.00    +0.000 A 
ATOM     23  C   UNL     1       1.042   2.654  20.299  0.00  0.00    +0.000 A 
ATOM     24  C   UNL     1       1.457   3.715  21.106  0.00  0.00    +0.000 A 
ATOM     25  C   UNL     1       1.878   4.907  20.523  0.00  0.00    +0.000 A 
BRANCH  22  26
ATOM     26  O   UNL     1       0.664   1.747  18.146  0.00  0.00    +0.000 OA
ATOM     27  H   UNL     1       1.057   0.936  18.511  0.00  0.00    +0.000 HD
ENDBRANCH  22  26
BRANCH  25  28
ATOM     28  O   UNL     1       2.303   5.940  21.316  0.00  0.00    +0.000 OA
ATOM     29  H   UNL     1       2.231   5.669  22.245  0.00  0.00    +0.000 HD
ENDBRANCH  25  28
ENDBRANCH  19  20
ENDBRANCH  17  19
ENDBRANCH   3  17
BRANCH   6  30
ATOM     30  O   UNL     1       8.288   4.081  17.047  0.00  0.00    +0.000 OA
ATOM     31  H   UNL     1       8.243   3.136  17.248  0.00  0.00    +0.000 HD
ENDBRANCH   6  30
TORSDOF 12
ENDMDL
MODEL 3
REMARK VINA RESULT:      -7.8      1.600      2.164
REMARK  Name = 
REMARK  13 active torsions:
REMARK  status: ('A' for Active; 'I' for Inactive)
REMARK    1  A    between atoms: C_1  and  C_2
REMARK    2  A    between atoms: C_2  and  C_3
REMARK    3  A    between atoms: C_3  and  C_4
REMARK    4  A    between atoms: C_4  and  C_5
REMARK    5  A    between atoms: C_5  and  C_6
REMARK    6  A    between atoms: C_6  and  N_7
REMARK    7  A    between atoms: C_8  and  C_10
REMARK    8  A    between atoms: C_12  and  N_13
REMARK    9  A    between atoms: N_13  and  C_14
REMARK   10  A    between atoms: C_14  and  C_15
REMARK   11  A    between atoms: C_17  and  O_18
REMARK   12  A    between atoms: C_21  and  O_22
REMARK   13  A    between atoms: C_25  and  O_26
REMARK                            x       y       z     vdW  Elec       q    Type
REMARK                         _______ _______ _______ _____ _____    ______ ____
ROOT
ATOM      1  C   UNL     1       5.739   4.984  15.890  0.00  0.00    +0.000 A 
ATOM      2  C   UNL     1       5.795   4.015  16.906  0.00  0.00    +0.000 A 
ATOM      3  C   UNL     1       5.224   4.236  18.163  0.00  0.00    +0.000 A 
ATOM      4  C   UNL     1       4.579   5.460  18.378  0.00  0.00    +0.000 A 
ATOM      5  C   UNL     1       4.480   6.420  17.369  0.00  0.00    +0.000 A 
ATOM      6  C   UNL     1       5.055   6.183  16.124  0.00  0.00    +0.000 A 
ENDROOT
BRANCH   1   8
ATOM      7  N   UNL     1       5.651   4.057  13.653  0.00  0.00    +0.000 N 
ATOM      8  C   UNL     1       6.425   4.706  14.599  0.00  0.00    +0.000 C 
ATOM      9  O   UNL     1       7.587   5.050  14.391  0.00  0.00    +0.000 OA
ATOM     10  H   UNL     1       4.786   3.629  13.947  0.00  0.00    +0.000 HD
BRANCH   7  11
ATOM     11  C   UNL     1       6.147   3.758  12.324  0.00  0.00    +0.000 C 
BRANCH  11  12
ATOM     12  C   UNL     1       5.502   2.501  11.747  0.00  0.00    +0.000 C 
BRANCH  12  13
ATOM     13  C   UNL     1       4.069   2.769  11.283  0.00  0.00    +0.000 C 
BRANCH  13  14
ATOM     14  C   UNL     1       4.001   3.968  10.336  0.00  0.00    +0.000 C 
BRANCH  14  16
ATOM     15  C   UNL     1       2.650   4.989   8.475  0.00  0.00    +0.000 C 
ATOM     16  C   UNL     1       2.610   4.113   9.717  0.00  0.00    +0.000 C 
ENDBRANCH  14  16
ENDBRANCH  13  14
ENDBRANCH  12  13
ENDBRANCH  11  12
ENDBRANCH   7  11
ENDBRANCH   1   8
BRANCH   3  17
ATOM     17  N   UNL     1       5.436   3.305  19.183  0.00  0.00    +0.000 N 
ATOM     18  H   UNL     1       6.406   3.179  19.445  0.00  0.00    +0.000 HD
BRANCH  17  19
ATOM     19  C   UNL     1       4.654   2.061  19.221  0.00  0.00    +0.000 C 
BRANCH  19  20
ATOM     20  C   UNL     1       3.208   2.311  19.578  0.00  0.00    +0.000 A 
ATOM     21  C   UNL     1       2.817   2.452  20.921  0.00  0.00    +0.000 A 
ATOM     22  C   UNL     1       1.498   2.718  21.248  0.00  0.00    +0.000 A 
ATOM     23  C   UNL     1       0.535   2.890  20.258  0.00  0.00    +0.000 A 
ATOM     24  C   UNL     1       0.910   2.795  18.916  0.00  0.00    +0.000 A 
ATOM     25  C   UNL     1       2.232   2.512  18.584  0.00  0.00    +0.000 A 
BRANCH  22  26
ATOM     26  O   UNL     1       1.107   2.820  22.553  0.00  0.00    +0.000 OA
ATOM     27  H   UNL     1       1.850   2.542  23.115  0.00  0.00    +0.000 HD
ENDBRANCH  22  26
BRANCH  25  28
ATOM     28  O   UNL     1       2.603   2.437  17.268  0.00  0.00    +0.000 OA
ATOM     29  H   UNL     1       3.404   1.892  17.202  0.00  0.00    +0.000 HD
ENDBRANCH  25  28
ENDBRANCH  19  20
ENDBRANCH  17  19
ENDBRANCH   3  17
BRANCH   6  30
ATOM     30  O   UNL     1       4.970   7.151  15.168  0.00  0.00    +0.000 OA
ATOM     31  H   UNL     1       4.982   6.743  14.292  0.00  0.00    +0.000 HD
ENDBRANCH   6  30
TORSDOF 12
ENDMDL
MODEL 4
REMARK VINA RESULT:      -7.8      1.416      1.810
REMARK  Name = 
REMARK  13 active torsions:
REMARK  status: ('A' for Active; 'I' for Inactive)
REMARK    1  A    between atoms: C_1  and  C_2
REMARK    2  A    between atoms: C_2  and  C_3
REMARK    3  A    between atoms: C_3  and  C_4
REMARK    4  A    between atoms: C_4  and  C_5
REMARK    5  A    between atoms: C_5  and  C_6
REMARK    6  A    between atoms: C_6  and  N_7
REMARK    7  A    between atoms: C_8  and  C_10
REMARK    8  A    between atoms: C_12  and  N_13
REMARK    9  A    between atoms: N_13  and  C_14
REMARK   10  A    between atoms: C_14  and  C_15
REMARK   11  A    between atoms: C_17  and  O_18
REMARK   12  A    between atoms: C_21  and  O_22
REMARK   13  A    between atoms: C_25  and  O_26
REMARK                            x       y       z     vdW  Elec       q    Type
REMARK                         _______ _______ _______ _____ _____    ______ ____
ROOT
ATOM      1  C   UNL     1       6.523   4.812  15.695  0.00  0.00    +0.000 A 
ATOM      2  C   UNL     1       5.628   3.780  16.028  0.00  0.00    +0.000 A 
ATOM      3  C   UNL     1       5.114   3.644  17.320  0.00  0.00    +0.000 A 
ATOM      4  C   UNL     1       5.512   4.581  18.281  0.00  0.00    +0.000 A 
ATOM      5  C   UNL     1       6.370   5.635  17.962  0.00  0.00    +0.000 A 
ATOM      6  C   UNL     1       6.873   5.755  16.670  0.00  0.00    +0.000 A 
ENDROOT
BRANCH   1   8
ATOM      7  N   UNL     1       6.442   4.042  13.398  0.00  0.00    +0.000 N 
ATOM      8  C   UNL     1       7.081   4.857  14.317  0.00  0.00    +0.000 C 
ATOM      9  O   UNL     1       8.028   5.583  14.020  0.00  0.00    +0.000 OA
ATOM     10  H   UNL     1       5.811   3.331  13.739  0.00  0.00    +0.000 HD
BRANCH   7  11
ATOM     11  C   UNL     1       6.823   4.006  12.001  0.00  0.00    +0.000 C 
BRANCH  11  12
ATOM     12  C   UNL     1       5.847   3.181  11.167  0.00  0.00    +0.000 C 
BRANCH  12  13
ATOM     13  C   UNL     1       4.514   2.987  11.893  0.00  0.00    +0.000 C 
BRANCH  13  14
ATOM     14  C   UNL     1       3.328   3.159  10.943  0.00  0.00    +0.000 C 
BRANCH  14  16
ATOM     15  C   UNL     1       2.431   4.705   9.172  0.00  0.00    +0.000 C 
ATOM     16  C   UNL     1       3.679   4.075   9.771  0.00  0.00    +0.000 C 
ENDBRANCH  14  16
ENDBRANCH  13  14
ENDBRANCH  12  13
ENDBRANCH  11  12
ENDBRANCH   7  11
ENDBRANCH   1   8
BRANCH   3  17
ATOM     17  N   UNL     1       4.348   2.518  17.636  0.00  0.00    +0.000 N 
ATOM     18  H   UNL     1       4.716   1.644  17.280  0.00  0.00    +0.000 HD
BRANCH  17  19
ATOM     19  C   UNL     1       2.881   2.591  17.603  0.00  0.00    +0.000 C 
BRANCH  19  20
ATOM     20  C   UNL     1       2.318   3.243  18.844  0.00  0.00    +0.000 A 
ATOM     21  C   UNL     1       2.207   2.520  20.044  0.00  0.00    +0.000 A 
ATOM     22  C   UNL     1       1.726   3.125  21.193  0.00  0.00    +0.000 A 
ATOM     23  C   UNL     1       1.377   4.474  21.200  0.00  0.00    +0.000 A 
ATOM     24  C   UNL     1       1.518   5.221  20.029  0.00  0.00    +0.000 A 
ATOM     25  C   UNL     1       1.986   4.610  18.868  0.00  0.00    +0.000 A 
BRANCH  22  26
ATOM     26  O   UNL     1       1.583   2.417  22.351  0.00  0.00    +0.000 OA
ATOM     27  H   UNL     1       0.634   2.356  22.555  0.00  0.00    +0.000 HD
ENDBRANCH  22  26
BRANCH  25  28
ATOM     28  O   UNL     1       2.142   5.349  17.725  0.00  0.00    +0.000 OA
ATOM     29  H   UNL     1       1.737   4.866  16.986  0.00  0.00    +0.000 HD
ENDBRANCH  25  28
ENDBRANCH  19  20
ENDBRANCH  17  19
ENDBRANCH   3  17
BRANCH   6  30
ATOM     30  O   UNL     1       7.734   6.776  16.394  0.00  0.00    +0.000 OA
ATOM     31  H   UNL     1       7.663   7.453  17.080  0.00  0.00    +0.000 HD
ENDBRANCH   6  30
TORSDOF 12
ENDMDL
MODEL 5
REMARK VINA RESULT:      -7.6      1.605      2.698
REMARK  Name = 
REMARK  13 active torsions:
REMARK  status: ('A' for Active; 'I' for Inactive)
REMARK    1  A    between atoms: C_1  and  C_2
REMARK    2  A    between atoms: C_2  and  C_3
REMARK    3  A    between atoms: C_3  and  C_4
REMARK    4  A    between atoms: C_4  and  C_5
REMARK    5  A    between atoms: C_5  and  C_6
REMARK    6  A    between atoms: C_6  and  N_7
REMARK    7  A    between atoms: C_8  and  C_10
REMARK    8  A    between atoms: C_12  and  N_13
REMARK    9  A    between atoms: N_13  and  C_14
REMARK   10  A    between atoms: C_14  and  C_15
REMARK   11  A    between atoms: C_17  and  O_18
REMARK   12  A    between atoms: C_21  and  O_22
REMARK   13  A    between atoms: C_25  and  O_26
REMARK                            x       y       z     vdW  Elec       q    Type
REMARK                         _______ _______ _______ _____ _____    ______ ____
ROOT
ATOM      1  C   UNL     1       5.979   4.370  16.110  0.00  0.00    +0.000 A 
ATOM      2  C   UNL     1       4.736   3.770  16.372  0.00  0.00    +0.000 A 
ATOM      3  C   UNL     1       4.277   3.573  17.678  0.00  0.00    +0.000 A 
ATOM      4  C   UNL     1       5.097   4.006  18.727  0.00  0.00    +0.000 A 
ATOM      5  C   UNL     1       6.318   4.639  18.487  0.00  0.00    +0.000 A 
ATOM      6  C   UNL     1       6.759   4.826  17.180  0.00  0.00    +0.000 A 
ENDROOT
BRANCH   1   8
ATOM      7  N   UNL     1       6.128   3.404  13.892  0.00  0.00    +0.000 N 
ATOM      8  C   UNL     1       6.432   4.489  14.698  0.00  0.00    +0.000 C 
ATOM      9  O   UNL     1       7.015   5.487  14.281  0.00  0.00    +0.000 OA
ATOM     10  H   UNL     1       5.833   2.544  14.330  0.00  0.00    +0.000 HD
BRANCH   7  11
ATOM     11  C   UNL     1       6.450   3.378  12.480  0.00  0.00    +0.000 C 
BRANCH  11  12
ATOM     12  C   UNL     1       5.308   3.922  11.626  0.00  0.00    +0.000 C 
BRANCH  12  13
ATOM     13  C   UNL     1       4.379   2.801  11.154  0.00  0.00    +0.000 C 
BRANCH  13  14
ATOM     14  C   UNL     1       3.059   3.356  10.616  0.00  0.00    +0.000 C 
BRANCH  14  16
ATOM     15  C   UNL     1       2.096   5.062   9.037  0.00  0.00    +0.000 C 
ATOM     16  C   UNL     1       3.269   4.137   9.318  0.00  0.00    +0.000 C 
ENDBRANCH  14  16
ENDBRANCH  13  14
ENDBRANCH  12  13
ENDBRANCH  11  12
ENDBRANCH   7  11
ENDBRANCH   1   8
BRANCH   3  17
ATOM     17  N   UNL     1       3.107   2.838  17.888  0.00  0.00    +0.000 N 
ATOM     18  H   UNL     1       3.054   1.971  17.369  0.00  0.00    +0.000 HD
BRANCH  17  19
ATOM     19  C   UNL     1       1.815   3.528  18.007  0.00  0.00    +0.000 C 
BRANCH  19  20
ATOM     20  C   UNL     1       1.947   4.867  18.693  0.00  0.00    +0.000 A 
ATOM     21  C   UNL     1       2.263   6.020  17.954  0.00  0.00    +0.000 A 
ATOM     22  C   UNL     1       2.348   7.255  18.575  0.00  0.00    +0.000 A 
ATOM     23  C   UNL     1       2.087   7.393  19.936  0.00  0.00    +0.000 A 
ATOM     24  C   UNL     1       1.732   6.266  20.680  0.00  0.00    +0.000 A 
ATOM     25  C   UNL     1       1.661   5.021  20.062  0.00  0.00    +0.000 A 
BRANCH  22  26
ATOM     26  O   UNL     1       2.689   8.373  17.867  0.00  0.00    +0.000 OA
ATOM     27  H   UNL     1       1.887   8.909  17.742  0.00  0.00    +0.000 HD
ENDBRANCH  22  26
BRANCH  25  28
ATOM     28  O   UNL     1       1.295   3.919  20.789  0.00  0.00    +0.000 OA
ATOM     29  H   UNL     1       0.384   4.043  21.102  0.00  0.00    +0.000 HD
ENDBRANCH  25  28
ENDBRANCH  19  20
ENDBRANCH  17  19
ENDBRANCH   3  17
BRANCH   6  30
ATOM     30  O   UNL     1       7.969   5.419  16.976  0.00  0.00    +0.000 OA
ATOM     31  H   UNL     1       8.675   4.802  17.210  0.00  0.00    +0.000 HD
ENDBRANCH   6  30
TORSDOF 12
ENDMDL
MODEL 6
REMARK VINA RESULT:      -7.6      1.719      2.122
REMARK  Name = 
REMARK  13 active torsions:
REMARK  status: ('A' for Active; 'I' for Inactive)
REMARK    1  A    between atoms: C_1  and  C_2
REMARK    2  A    between atoms: C_2  and  C_3
REMARK    3  A    between atoms: C_3  and  C_4
REMARK    4  A    between atoms: C_4  and  C_5
REMARK    5  A    between atoms: C_5  and  C_6
REMARK    6  A    between atoms: C_6  and  N_7
REMARK    7  A    between atoms: C_8  and  C_10
REMARK    8  A    between atoms: C_12  and  N_13
REMARK    9  A    between atoms: N_13  and  C_14
REMARK   10  A    between atoms: C_14  and  C_15
REMARK   11  A    between atoms: C_17  and  O_18
REMARK   12  A    between atoms: C_21  and  O_22
REMARK   13  A    between atoms: C_25  and  O_26
REMARK                            x       y       z     vdW  Elec       q    Type
REMARK                         _______ _______ _______ _____ _____    ______ ____
ROOT
ATOM      1  C   UNL     1       6.477   4.693  15.495  0.00  0.00    +0.000 A 
ATOM      2  C   UNL     1       5.513   3.753  15.895  0.00  0.00    +0.000 A 
ATOM      3  C   UNL     1       5.070   3.674  17.219  0.00  0.00    +0.000 A 
ATOM      4  C   UNL     1       5.614   4.576  18.141  0.00  0.00    +0.000 A 
ATOM      5  C   UNL     1       6.544   5.543  17.756  0.00  0.00    +0.000 A 
ATOM      6  C   UNL     1       6.974   5.606  16.433  0.00  0.00    +0.000 A 
ENDROOT
BRANCH   1   8
ATOM      7  N   UNL     1       6.424   3.661  13.302  0.00  0.00    +0.000 N 
ATOM      8  C   UNL     1       6.949   4.677  14.084  0.00  0.00    +0.000 C 
ATOM      9  O   UNL     1       7.731   5.518  13.648  0.00  0.00    +0.000 OA
ATOM     10  H   UNL     1       5.952   2.895  13.759  0.00  0.00    +0.000 HD
BRANCH   7  11
ATOM     11  C   UNL     1       6.737   3.531  11.894  0.00  0.00    +0.000 C 
BRANCH  11  12
ATOM     12  C   UNL     1       5.625   2.820  11.128  0.00  0.00    +0.000 C 
BRANCH  12  13
ATOM     13  C   UNL     1       4.241   3.278  11.595  0.00  0.00    +0.000 C 
BRANCH  13  14
ATOM     14  C   UNL     1       3.189   3.086  10.502  0.00  0.00    +0.000 C 
BRANCH  14  16
ATOM     15  C   UNL     1       2.150   4.944   9.159  0.00  0.00    +0.000 C 
ATOM     16  C   UNL     1       3.386   4.079   9.356  0.00  0.00    +0.000 C 
ENDBRANCH  14  16
ENDBRANCH  13  14
ENDBRANCH  12  13
ENDBRANCH  11  12
ENDBRANCH   7  11
ENDBRANCH   1   8
BRANCH   3  17
ATOM     17  N   UNL     1       4.225   2.627  17.596  0.00  0.00    +0.000 N 
ATOM     18  H   UNL     1       4.518   1.712  17.278  0.00  0.00    +0.000 HD
BRANCH  17  19
ATOM     19  C   UNL     1       2.767   2.812  17.576  0.00  0.00    +0.000 C 
BRANCH  19  20
ATOM     20  C   UNL     1       2.236   3.278  18.912  0.00  0.00    +0.000 A 
ATOM     21  C   UNL     1       2.262   4.640  19.256  0.00  0.00    +0.000 A 
ATOM     22  C   UNL     1       1.742   5.073  20.464  0.00  0.00    +0.000 A 
ATOM     23  C   UNL     1       1.147   4.179  21.350  0.00  0.00    +0.000 A 
ATOM     24  C   UNL     1       1.074   2.827  21.010  0.00  0.00    +0.000 A 
ATOM     25  C   UNL     1       1.611   2.386  19.803  0.00  0.00    +0.000 A 
BRANCH  22  26
ATOM     26  O   UNL     1       1.797   6.391  20.818  0.00  0.00    +0.000 OA
ATOM     27  H   UNL     1       2.152   6.893  20.064  0.00  0.00    +0.000 HD
ENDBRANCH  22  26
BRANCH  25  28
ATOM     28  O   UNL     1       1.522   1.062  19.461  0.00  0.00    +0.000 OA
ATOM     29  H   UNL     1       1.107   0.580  20.194  0.00  0.00    +0.000 HD
ENDBRANCH  25  28
ENDBRANCH  19  20
ENDBRANCH  17  19
ENDBRANCH   3  17
BRANCH   6  30
ATOM     30  O   UNL     1       7.906   6.540  16.092  0.00  0.00    +0.000 OA
ATOM     31  H   UNL     1       8.608   6.555  16.757  0.00  0.00    +0.000 HD
ENDBRANCH   6  30
TORSDOF 12
ENDMDL
MODEL 7
REMARK VINA RESULT:      -7.6      1.978      2.327
REMARK  Name = 
REMARK  13 active torsions:
REMARK  status: ('A' for Active; 'I' for Inactive)
REMARK    1  A    between atoms: C_1  and  C_2
REMARK    2  A    between atoms: C_2  and  C_3
REMARK    3  A    between atoms: C_3  and  C_4
REMARK    4  A    between atoms: C_4  and  C_5
REMARK    5  A    between atoms: C_5  and  C_6
REMARK    6  A    between atoms: C_6  and  N_7
REMARK    7  A    between atoms: C_8  and  C_10
REMARK    8  A    between atoms: C_12  and  N_13
REMARK    9  A    between atoms: N_13  and  C_14
REMARK   10  A    between atoms: C_14  and  C_15
REMARK   11  A    between atoms: C_17  and  O_18
REMARK   12  A    between atoms: C_21  and  O_22
REMARK   13  A    between atoms: C_25  and  O_26
REMARK                            x       y       z     vdW  Elec       q    Type
REMARK                         _______ _______ _______ _____ _____    ______ ____
ROOT
ATOM      1  C   UNL     1       6.588   5.638  16.617  0.00  0.00    +0.000 A 
ATOM      2  C   UNL     1       5.903   4.610  17.287  0.00  0.00    +0.000 A 
ATOM      3  C   UNL     1       6.069   4.390  18.658  0.00  0.00    +0.000 A 
ATOM      4  C   UNL     1       6.940   5.239  19.352  0.00  0.00    +0.000 A 
ATOM      5  C   UNL     1       7.600   6.290  18.712  0.00  0.00    +0.000 A 
ATOM      6  C   UNL     1       7.423   6.494  17.347  0.00  0.00    +0.000 A 
ENDROOT
BRANCH   1   8
ATOM      7  N   UNL     1       7.468   5.303  14.384  0.00  0.00    +0.000 N 
ATOM      8  C   UNL     1       6.412   5.773  15.146  0.00  0.00    +0.000 C 
ATOM      9  O   UNL     1       5.393   6.250  14.652  0.00  0.00    +0.000 OA
ATOM     10  H   UNL     1       8.347   5.111  14.842  0.00  0.00    +0.000 HD
BRANCH   7  11
ATOM     11  C   UNL     1       7.439   5.309  12.936  0.00  0.00    +0.000 C 
BRANCH  11  12
ATOM     12  C   UNL     1       7.246   3.907  12.365  0.00  0.00    +0.000 C 
BRANCH  12  13
ATOM     13  C   UNL     1       5.941   3.277  12.856  0.00  0.00    +0.000 C 
BRANCH  13  14
ATOM     14  C   UNL     1       4.727   3.870  12.140  0.00  0.00    +0.000 C 
BRANCH  14  16
ATOM     15  C   UNL     1       3.163   3.635  10.183  0.00  0.00    +0.000 C 
ATOM     16  C   UNL     1       4.241   2.956  11.015  0.00  0.00    +0.000 C 
ENDBRANCH  14  16
ENDBRANCH  13  14
ENDBRANCH  12  13
ENDBRANCH  11  12
ENDBRANCH   7  11
ENDBRANCH   1   8
BRANCH   3  17
ATOM     17  N   UNL     1       5.484   3.266  19.246  0.00  0.00    +0.000 N 
ATOM     18  H   UNL     1       6.140   2.554  19.541  0.00  0.00    +0.000 HD
BRANCH  17  19
ATOM     19  C   UNL     1       4.233   2.717  18.703  0.00  0.00    +0.000 C 
BRANCH  19  20
ATOM     20  C   UNL     1       3.016   3.315  19.369  0.00  0.00    +0.000 A 
ATOM     21  C   UNL     1       3.040   4.636  19.849  0.00  0.00    +0.000 A 
ATOM     22  C   UNL     1       1.914   5.199  20.426  0.00  0.00    +0.000 A 
ATOM     23  C   UNL     1       0.720   4.486  20.512  0.00  0.00    +0.000 A 
ATOM     24  C   UNL     1       0.663   3.186  20.005  0.00  0.00    +0.000 A 
ATOM     25  C   UNL     1       1.798   2.613  19.438  0.00  0.00    +0.000 A 
BRANCH  22  26
ATOM     26  O   UNL     1       1.943   6.470  20.926  0.00  0.00    +0.000 OA
ATOM     27  H   UNL     1       2.854   6.802  20.854  0.00  0.00    +0.000 HD
ENDBRANCH  22  26
BRANCH  25  28
ATOM     28  O   UNL     1       1.736   1.344  18.924  0.00  0.00    +0.000 OA
ATOM     29  H   UNL     1       1.971   0.714  19.624  0.00  0.00    +0.000 HD
ENDBRANCH  25  28
ENDBRANCH  19  20
ENDBRANCH  17  19
ENDBRANCH   3  17
BRANCH   6  30
ATOM     30  O   UNL     1       8.104   7.508  16.742  0.00  0.00    +0.000 OA
ATOM     31  H   UNL     1       8.383   8.152  17.407  0.00  0.00    +0.000 HD
ENDBRANCH   6  30
TORSDOF 12
ENDMDL
MODEL 8
REMARK VINA RESULT:      -7.5      3.489      6.113
REMARK  Name = 
REMARK  13 active torsions:
REMARK  status: ('A' for Active; 'I' for Inactive)
REMARK    1  A    between atoms: C_1  and  C_2
REMARK    2  A    between atoms: C_2  and  C_3
REMARK    3  A    between atoms: C_3  and  C_4
REMARK    4  A    between atoms: C_4  and  C_5
REMARK    5  A    between atoms: C_5  and  C_6
REMARK    6  A    between atoms: C_6  and  N_7
REMARK    7  A    between atoms: C_8  and  C_10
REMARK    8  A    between atoms: C_12  and  N_13
REMARK    9  A    between atoms: N_13  and  C_14
REMARK   10  A    between atoms: C_14  and  C_15
REMARK   11  A    between atoms: C_17  and  O_18
REMARK   12  A    between atoms: C_21  and  O_22
REMARK   13  A    between atoms: C_25  and  O_26
REMARK                            x       y       z     vdW  Elec       q    Type
REMARK                         _______ _______ _______ _____ _____    ______ ____
ROOT
ATOM      1  C   UNL     1       3.291   3.846  19.051  0.00  0.00    +0.000 A 
ATOM      2  C   UNL     1       3.050   5.061  19.716  0.00  0.00    +0.000 A 
ATOM      3  C   UNL     1       1.881   5.275  20.451  0.00  0.00    +0.000 A 
ATOM      4  C   UNL     1       0.952   4.229  20.515  0.00  0.00    +0.000 A 
ATOM      5  C   UNL     1       1.190   3.001  19.894  0.00  0.00    +0.000 A 
ATOM      6  C   UNL     1       2.360   2.806  19.166  0.00  0.00    +0.000 A 
ENDROOT
BRANCH   1   8
ATOM      7  N   UNL     1       4.342   3.837  16.867  0.00  0.00    +0.000 N 
ATOM      8  C   UNL     1       4.527   3.712  18.234  0.00  0.00    +0.000 C 
ATOM      9  O   UNL     1       5.629   3.523  18.744  0.00  0.00    +0.000 OA
ATOM     10  H   UNL     1       3.403   3.791  16.500  0.00  0.00    +0.000 HD
BRANCH   7  11
ATOM     11  C   UNL     1       5.447   3.786  15.931  0.00  0.00    +0.000 C 
BRANCH  11  12
ATOM     12  C   UNL     1       5.935   5.181  15.550  0.00  0.00    +0.000 C 
BRANCH  12  13
ATOM     13  C   UNL     1       7.141   5.602  16.392  0.00  0.00    +0.000 C 
BRANCH  13  14
ATOM     14  C   UNL     1       6.868   6.901  17.152  0.00  0.00    +0.000 C 
BRANCH  14  16
ATOM     15  C   UNL     1       7.976   5.850  19.152  0.00  0.00    +0.000 C 
ATOM     16  C   UNL     1       7.866   7.100  18.294  0.00  0.00    +0.000 C 
ENDBRANCH  14  16
ENDBRANCH  13  14
ENDBRANCH  12  13
ENDBRANCH  11  12
ENDBRANCH   7  11
ENDBRANCH   1   8
BRANCH   3  17
ATOM     17  N   UNL     1       1.620   6.548  20.966  0.00  0.00    +0.000 N 
ATOM     18  H   UNL     1       0.763   6.620  21.500  0.00  0.00    +0.000 HD
BRANCH  17  19
ATOM     19  C   UNL     1       1.908   7.742  20.160  0.00  0.00    +0.000 C 
BRANCH  19  20
ATOM     20  C   UNL     1       1.006   8.900  20.518  0.00  0.00    +0.000 A 
ATOM     21  C   UNL     1       0.714   9.188  21.862  0.00  0.00    +0.000 A 
ATOM     22  C   UNL     1      -0.082  10.271  22.196  0.00  0.00    +0.000 A 
ATOM     23  C   UNL     1      -0.581  11.123  21.214  0.00  0.00    +0.000 A 
ATOM     24  C   UNL     1      -0.269  10.878  19.875  0.00  0.00    +0.000 A 
ATOM     25  C   UNL     1       0.518   9.781  19.536  0.00  0.00    +0.000 A 
BRANCH  22  26
ATOM     26  O   UNL     1      -0.398  10.534  23.498  0.00  0.00    +0.000 OA
ATOM     27  H   UNL     1       0.143  11.285  23.796  0.00  0.00    +0.000 HD
ENDBRANCH  22  26
BRANCH  25  28
ATOM     28  O   UNL     1       0.839   9.552  18.224  0.00  0.00    +0.000 OA
ATOM     29  H   UNL     1       0.274   8.838  17.886  0.00  0.00    +0.000 HD
ENDBRANCH  25  28
ENDBRANCH  19  20
ENDBRANCH  17  19
ENDBRANCH   3  17
BRANCH   6  30
ATOM     30  O   UNL     1       2.553   1.609  18.544  0.00  0.00    +0.000 OA
ATOM     31  H   UNL     1       3.483   1.517  18.299  0.00  0.00    +0.000 HD
ENDBRANCH   6  30
TORSDOF 12
ENDMDL
MODEL 9
REMARK VINA RESULT:      -7.5      3.629      6.386
REMARK  Name = 
REMARK  13 active torsions:
REMARK  status: ('A' for Active; 'I' for Inactive)
REMARK    1  A    between atoms: C_1  and  C_2
REMARK    2  A    between atoms: C_2  and  C_3
REMARK    3  A    between atoms: C_3  and  C_4
REMARK    4  A    between atoms: C_4  and  C_5
REMARK    5  A    between atoms: C_5  and  C_6
REMARK    6  A    between atoms: C_6  and  N_7
REMARK    7  A    between atoms: C_8  and  C_10
REMARK    8  A    between atoms: C_12  and  N_13
REMARK    9  A    between atoms: N_13  and  C_14
REMARK   10  A    between atoms: C_14  and  C_15
REMARK   11  A    between atoms: C_17  and  O_18
REMARK   12  A    between atoms: C_21  and  O_22
REMARK   13  A    between atoms: C_25  and  O_26
REMARK                            x       y       z     vdW  Elec       q    Type
REMARK                         _______ _______ _______ _____ _____    ______ ____
ROOT
ATOM      1  C   UNL     1       6.577   5.811  17.797  0.00  0.00    +0.000 A 
ATOM      2  C   UNL     1       5.254   6.261  17.943  0.00  0.00    +0.000 A 
ATOM      3  C   UNL     1       4.183   5.601  17.335  0.00  0.00    +0.000 A 
ATOM      4  C   UNL     1       4.469   4.459  16.577  0.00  0.00    +0.000 A 
ATOM      5  C   UNL     1       5.772   3.973  16.451  0.00  0.00    +0.000 A 
ATOM      6  C   UNL     1       6.826   4.644  17.063  0.00  0.00    +0.000 A 
ENDROOT
BRANCH   1   8
ATOM      7  N   UNL     1       7.818   7.888  17.931  0.00  0.00    +0.000 N 
ATOM      8  C   UNL     1       7.674   6.601  18.419  0.00  0.00    +0.000 C 
ATOM      9  O   UNL     1       8.383   6.142  19.312  0.00  0.00    +0.000 OA
ATOM     10  H   UNL     1       7.347   8.136  17.073  0.00  0.00    +0.000 HD
BRANCH   7  11
ATOM     11  C   UNL     1       8.802   8.810  18.462  0.00  0.00    +0.000 C 
BRANCH  11  12
ATOM     12  C   UNL     1       8.474  10.258  18.109  0.00  0.00    +0.000 C 
BRANCH  12  13
ATOM     13  C   UNL     1       9.586  11.209  18.556  0.00  0.00    +0.000 C 
BRANCH  13  14
ATOM     14  C   UNL     1      10.053  10.895  19.978  0.00  0.00    +0.000 C 
BRANCH  14  16
ATOM     15  C   UNL     1       9.787  12.877  21.506  0.00  0.00    +0.000 C 
ATOM     16  C   UNL     1       9.166  11.576  21.021  0.00  0.00    +0.000 C 
ENDBRANCH  14  16
ENDBRANCH  13  14
ENDBRANCH  12  13
ENDBRANCH  11  12
ENDBRANCH   7  11
ENDBRANCH   1   8
BRANCH   3  17
ATOM     17  N   UNL     1       2.909   6.173  17.387  0.00  0.00    +0.000 N 
ATOM     18  H   UNL     1       2.795   7.002  16.818  0.00  0.00    +0.000 HD
BRANCH  17  19
ATOM     19  C   UNL     1       2.179   6.233  18.661  0.00  0.00    +0.000 C 
BRANCH  19  20
ATOM     20  C   UNL     1       1.934   4.860  19.240  0.00  0.00    +0.000 A 
ATOM     21  C   UNL     1       2.234   4.587  20.586  0.00  0.00    +0.000 A 
ATOM     22  C   UNL     1       1.976   3.340  21.129  0.00  0.00    +0.000 A 
ATOM     23  C   UNL     1       1.377   2.338  20.369  0.00  0.00    +0.000 A 
ATOM     24  C   UNL     1       1.034   2.601  19.042  0.00  0.00    +0.000 A 
ATOM     25  C   UNL     1       1.307   3.849  18.488  0.00  0.00    +0.000 A 
BRANCH  22  26
ATOM     26  O   UNL     1       2.299   3.060  22.426  0.00  0.00    +0.000 OA
ATOM     27  H   UNL     1       3.172   3.445  22.611  0.00  0.00    +0.000 HD
ENDBRANCH  22  26
BRANCH  25  28
ATOM     28  O   UNL     1       0.952   4.112  17.192  0.00  0.00    +0.000 OA
ATOM     29  H   UNL     1       1.296   4.986  16.947  0.00  0.00    +0.000 HD
ENDBRANCH  25  28
ENDBRANCH  19  20
ENDBRANCH  17  19
ENDBRANCH   3  17
BRANCH   6  30
ATOM     30  O   UNL     1       8.092   4.165  16.897  0.00  0.00    +0.000 OA
ATOM     31  H   UNL     1       8.393   3.757  17.720  0.00  0.00    +0.000 HD
ENDBRANCH   6  30
TORSDOF 12
ENDMDL
