MODEL 1
REMARK VINA RESULT:      -7.4      0.000      0.000
REMARK  Name = 
REMARK  8 active torsions:
REMARK  status: ('A' for Active; 'I' for Inactive)
REMARK    1  A    between atoms: C_1  and  C_2
REMARK    2  A    between atoms: C_2  and  C_3
REMARK    3  A    between atoms: C_2  and  C_4
REMARK    4  A    between atoms: N_6  and  C_7
REMARK    5  A    between atoms: C_10  and  C_11
REMARK    6  A    between atoms: C_11  and  N_12
REMARK    7  A    between atoms: N_12  and  C_13
REMARK    8  A    between atoms: C_13  and  C_14
REMARK                            x       y       z     vdW  Elec       q    Type
REMARK                         _______ _______ _______ _____ _____    ______ ____
ROOT
ATOM      1  N   UNL     1       4.595   3.496  17.547  0.00  0.00    +0.000 NA
ATOM      2  H   UNL     1       4.582   2.478  17.508  0.00  0.00    +0.000 HD
ENDROOT
BRANCH   1   3
ATOM      3  C   UNL     1       3.284   4.003  17.148  0.00  0.00    +0.000 C 
BRANCH   3  10
ATOM      4  C   UNL     1       2.057   4.305  19.457  0.00  0.00    +0.000 A 
ATOM      5  N   UNL     1       1.731   5.310  20.289  0.00  0.00    +0.000 NA
ATOM      6  N   UNL     1       2.139   6.423  19.643  0.00  0.00    +0.000 N 
ATOM      7  C   UNL     1       1.946   7.715  20.256  0.00  0.00    +0.000 C 
ATOM      8  C   UNL     1       2.736   6.145  18.455  0.00  0.00    +0.000 A 
ATOM      9 CL   UNL     1       3.376   7.388  17.479  0.00  0.00    +0.000 Cl
ATOM     10  C   UNL     1       2.713   4.784  18.278  0.00  0.00    +0.000 A 
BRANCH   4  12
ATOM     11  C   UNL     1       1.395   2.753  21.308  0.00  0.00    +0.000 C 
ATOM     12  C   UNL     1       1.778   2.870  19.832  0.00  0.00    +0.000 C 
ATOM     13  C   UNL     1       0.710   2.204  18.960  0.00  0.00    +0.000 C 
ENDBRANCH   4  12
ENDBRANCH   3  10
ENDBRANCH   1   3
BRANCH   1  14
ATOM     14  C   UNL     1       5.632   3.982  16.635  0.00  0.00    +0.000 C 
BRANCH  14  15
ATOM     15  C   UNL     1       6.484   5.050  17.284  0.00  0.00    +0.000 A 
ATOM     16  C   UNL     1       7.252   4.751  18.434  0.00  0.00    +0.000 A 
ATOM     17  C   UNL     1       8.029   5.728  19.063  0.00  0.00    +0.000 A 
ATOM     18  C   UNL     1       8.014   6.998  18.529  0.00  0.00    +0.000 A 
ATOM     19  C   UNL     1       7.268   7.304  17.416  0.00  0.00    +0.000 A 
ATOM     20  C   UNL     1       6.495   6.359  16.772  0.00  0.00    +0.000 A 
ATOM     21  O   UNL     1       7.387   8.611  17.056  0.00  0.00    +0.000 OA
ATOM     22  C   UNL     1       8.283   9.092  18.079  0.00  0.00    +0.000 C 
ATOM     23  O   UNL     1       8.699   8.070  19.008  0.00  0.00    +0.000 OA
ENDBRANCH  14  15
ENDBRANCH   1  14
TORSDOF 5
ENDMDL
MODEL 2
REMARK VINA RESULT:      -6.9      3.077      6.159
REMARK  Name = 
REMARK  8 active torsions:
REMARK  status: ('A' for Active; 'I' for Inactive)
REMARK    1  A    between atoms: C_1  and  C_2
REMARK    2  A    between atoms: C_2  and  C_3
REMARK    3  A    between atoms: C_2  and  C_4
REMARK    4  A    between atoms: N_6  and  C_7
REMARK    5  A    between atoms: C_10  and  C_11
REMARK    6  A    between atoms: C_11  and  N_12
REMARK    7  A    between atoms: N_12  and  C_13
REMARK    8  A    between atoms: C_13  and  C_14
REMARK                            x       y       z     vdW  Elec       q    Type
REMARK                         _______ _______ _______ _____ _____    ______ ____
ROOT
ATOM      1  N   UNL     1       4.875   3.188  17.326  0.00  0.00    +0.000 NA
ATOM      2  H   UNL     1       5.476   3.683  17.983  0.00  0.00    +0.000 HD
ENDROOT
BRANCH   1   3
ATOM      3  C   UNL     1       4.426   4.122  16.297  0.00  0.00    +0.000 C 
BRANCH   3  10
ATOM      4  C   UNL     1       6.689   5.450  16.075  0.00  0.00    +0.000 A 
ATOM      5  N   UNL     1       7.628   5.669  15.138  0.00  0.00    +0.000 NA
ATOM      6  N   UNL     1       7.156   5.042  14.040  0.00  0.00    +0.000 N 
ATOM      7  C   UNL     1       7.923   5.069  12.818  0.00  0.00    +0.000 C 
ATOM      8  C   UNL     1       5.974   4.413  14.268  0.00  0.00    +0.000 A 
ATOM      9 CL   UNL     1       5.204   3.513  13.041  0.00  0.00    +0.000 Cl
ATOM     10  C   UNL     1       5.618   4.641  15.574  0.00  0.00    +0.000 A 
BRANCH   4  12
ATOM     11  C   UNL     1       7.655   5.005  18.342  0.00  0.00    +0.000 C 
ATOM     12  C   UNL     1       6.856   5.981  17.477  0.00  0.00    +0.000 C 
ATOM     13  C   UNL     1       7.493   7.373  17.535  0.00  0.00    +0.000 C 
ENDBRANCH   4  12
ENDBRANCH   3  10
ENDBRANCH   1   3
BRANCH   1  14
ATOM     14  C   UNL     1       3.731   2.646  18.061  0.00  0.00    +0.000 C 
BRANCH  14  15
ATOM     15  C   UNL     1       3.073   3.704  18.918  0.00  0.00    +0.000 A 
ATOM     16  C   UNL     1       2.267   3.332  20.020  0.00  0.00    +0.000 A 
ATOM     17  C   UNL     1       1.631   4.292  20.812  0.00  0.00    +0.000 A 
ATOM     18  C   UNL     1       1.807   5.617  20.476  0.00  0.00    +0.000 A 
ATOM     19  C   UNL     1       2.582   5.992  19.405  0.00  0.00    +0.000 A 
ATOM     20  C   UNL     1       3.226   5.066  18.608  0.00  0.00    +0.000 A 
ATOM     21  O   UNL     1       2.621   7.343  19.242  0.00  0.00    +0.000 OA
ATOM     22  C   UNL     1       1.772   7.770  20.326  0.00  0.00    +0.000 C 
ATOM     23  O   UNL     1       1.265   6.681  21.124  0.00  0.00    +0.000 OA
ENDBRANCH  14  15
ENDBRANCH   1  14
TORSDOF 5
ENDMDL
MODEL 3
REMARK VINA RESULT:      -6.8      3.413      6.534
REMARK  Name = 
REMARK  8 active torsions:
REMARK  status: ('A' for Active; 'I' for Inactive)
REMARK    1  A    between atoms: C_1  and  C_2
REMARK    2  A    between atoms: C_2  and  C_3
REMARK    3  A    between atoms: C_2  and  C_4
REMARK    4  A    between atoms: N_6  and  C_7
REMARK    5  A    between atoms: C_10  and  C_11
REMARK    6  A    between atoms: C_11  and  N_12
REMARK    7  A    between atoms: N_12  and  C_13
REMARK    8  A    between atoms: C_13  and  C_14
REMARK                            x       y       z     vdW  Elec       q    Type
REMARK                         _______ _______ _______ _____ _____    ______ ____
ROOT
ATOM      1  N   UNL     1       3.698   5.279  17.249  0.00  0.00    +0.000 NA
ATOM      2  H   UNL     1       2.785   4.924  16.969  0.00  0.00    +0.000 HD
ENDROOT
BRANCH   1   3
ATOM      3  C   UNL     1       4.699   4.239  17.025  0.00  0.00    +0.000 C 
BRANCH   3  10
ATOM      4  C   UNL     1       6.793   5.737  16.476  0.00  0.00    +0.000 A 
ATOM      5  N   UNL     1       7.624   5.947  15.440  0.00  0.00    +0.000 NA
ATOM      6  N   UNL     1       7.125   5.175  14.451  0.00  0.00    +0.000 N 
ATOM      7  C   UNL     1       7.781   5.151  13.166  0.00  0.00    +0.000 C 
ATOM      8  C   UNL     1       6.035   4.467  14.844  0.00  0.00    +0.000 A 
ATOM      9 CL   UNL     1       5.257   3.385  13.780  0.00  0.00    +0.000 Cl
ATOM     10  C   UNL     1       5.769   4.789  16.151  0.00  0.00    +0.000 A 
BRANCH   4  12
ATOM     11  C   UNL     1       7.848   5.528  18.738  0.00  0.00    +0.000 C 
ATOM     12  C   UNL     1       7.024   6.416  17.803  0.00  0.00    +0.000 C 
ATOM     13  C   UNL     1       7.678   7.796  17.681  0.00  0.00    +0.000 C 
ENDBRANCH   4  12
ENDBRANCH   3  10
ENDBRANCH   1   3
BRANCH   1  14
ATOM     14  C   UNL     1       3.641   5.640  18.666  0.00  0.00    +0.000 C 
BRANCH  14  15
ATOM     15  C   UNL     1       2.810   6.885  18.886  0.00  0.00    +0.000 A 
ATOM     16  C   UNL     1       2.717   7.870  17.875  0.00  0.00    +0.000 A 
ATOM     17  C   UNL     1       1.974   9.039  18.066  0.00  0.00    +0.000 A 
ATOM     18  C   UNL     1       1.341   9.204  19.279  0.00  0.00    +0.000 A 
ATOM     19  C   UNL     1       1.427   8.257  20.271  0.00  0.00    +0.000 A 
ATOM     20  C   UNL     1       2.150   7.092  20.110  0.00  0.00    +0.000 A 
ATOM     21  O   UNL     1       0.737   8.614  21.389  0.00  0.00    +0.000 OA
ATOM     22  C   UNL     1       0.218   9.898  20.987  0.00  0.00    +0.000 C 
ATOM     23  O   UNL     1       0.584  10.272  19.643  0.00  0.00    +0.000 OA
ENDBRANCH  14  15
ENDBRANCH   1  14
TORSDOF 5
ENDMDL
MODEL 4
REMARK VINA RESULT:      -6.8      3.386      5.775
REMARK  Name = 
REMARK  8 active torsions:
REMARK  status: ('A' for Active; 'I' for Inactive)
REMARK    1  A    between atoms: C_1  and  C_2
REMARK    2  A    between atoms: C_2  and  C_3
REMARK    3  A    between atoms: C_2  and  C_4
REMARK    4  A    between atoms: N_6  and  C_7
REMARK    5  A    between atoms: C_10  and  C_11
REMARK    6  A    between atoms: C_11  and  N_12
REMARK    7  A    between atoms: N_12  and  C_13
REMARK    8  A    between atoms: C_13  and  C_14
REMARK                            x       y       z     vdW  Elec       q    Type
REMARK                         _______ _______ _______ _____ _____    ______ ____
ROOT
ATOM      1  N   UNL     1       4.088   6.021  19.678  0.00  0.00    +0.000 NA
ATOM      2  H   UNL     1       4.290   6.537  18.823  0.00  0.00    +0.000 HD
ENDROOT
BRANCH   1   3
ATOM      3  C   UNL     1       4.498   4.630  19.500  0.00  0.00    +0.000 C 
BRANCH   3  10
ATOM      4  C   UNL     1       4.208   3.814  17.015  0.00  0.00    +0.000 A 
ATOM      5  N   UNL     1       4.889   3.882  15.856  0.00  0.00    +0.000 NA
ATOM      6  N   UNL     1       6.039   4.510  16.183  0.00  0.00    +0.000 N 
ATOM      7  C   UNL     1       7.028   4.760  15.163  0.00  0.00    +0.000 C 
ATOM      8  C   UNL     1       6.085   4.863  17.494  0.00  0.00    +0.000 A 
ATOM      9 CL   UNL     1       7.420   5.709  18.132  0.00  0.00    +0.000 Cl
ATOM     10  C   UNL     1       4.922   4.437  18.088  0.00  0.00    +0.000 A 
BRANCH   4  12
ATOM     11  C   UNL     1       2.838   1.939  17.954  0.00  0.00    +0.000 C 
ATOM     12  C   UNL     1       2.836   3.188  17.069  0.00  0.00    +0.000 C 
ATOM     13  C   UNL     1       1.739   4.152  17.528  0.00  0.00    +0.000 C 
ENDBRANCH   4  12
ENDBRANCH   3  10
ENDBRANCH   1   3
BRANCH   1  14
ATOM     14  C   UNL     1       2.651   6.103  19.940  0.00  0.00    +0.000 C 
BRANCH  14  15
ATOM     15  C   UNL     1       2.094   7.455  19.553  0.00  0.00    +0.000 A 
ATOM     16  C   UNL     1       2.270   7.952  18.241  0.00  0.00    +0.000 A 
ATOM     17  C   UNL     1       1.783   9.208  17.867  0.00  0.00    +0.000 A 
ATOM     18  C   UNL     1       1.133   9.952  18.827  0.00  0.00    +0.000 A 
ATOM     19  C   UNL     1       0.958   9.484  20.107  0.00  0.00    +0.000 A 
ATOM     20  C   UNL     1       1.424   8.246  20.503  0.00  0.00    +0.000 A 
ATOM     21  O   UNL     1       0.297  10.373  20.898  0.00  0.00    +0.000 OA
ATOM     22  C   UNL     1       0.088  11.457  19.969  0.00  0.00    +0.000 C 
ATOM     23  O   UNL     1       0.601  11.190  18.648  0.00  0.00    +0.000 OA
ENDBRANCH  14  15
ENDBRANCH   1  14
TORSDOF 5
ENDMDL
MODEL 5
REMARK VINA RESULT:      -6.8      2.842      5.896
REMARK  Name = 
REMARK  8 active torsions:
REMARK  status: ('A' for Active; 'I' for Inactive)
REMARK    1  A    between atoms: C_1  and  C_2
REMARK    2  A    between atoms: C_2  and  C_3
REMARK    3  A    between atoms: C_2  and  C_4
REMARK    4  A    between atoms: N_6  and  C_7
REMARK    5  A    between atoms: C_10  and  C_11
REMARK    6  A    between atoms: C_11  and  N_12
REMARK    7  A    between atoms: N_12  and  C_13
REMARK    8  A    between atoms: C_13  and  C_14
REMARK                            x       y       z     vdW  Elec       q    Type
REMARK                         _______ _______ _______ _____ _____    ______ ____
ROOT
ATOM      1  N   UNL     1       3.806   3.717  16.727  0.00  0.00    +0.000 NA
ATOM      2  H   UNL     1       3.412   3.337  15.866  0.00  0.00    +0.000 HD
ENDROOT
BRANCH   1   3
ATOM      3  C   UNL     1       5.188   3.262  16.856  0.00  0.00    +0.000 C 
BRANCH   3  10
ATOM      4  C   UNL     1       6.792   4.920  15.587  0.00  0.00    +0.000 A 
ATOM      5  N   UNL     1       7.462   6.056  15.849  0.00  0.00    +0.000 NA
ATOM      6  N   UNL     1       7.224   6.288  17.158  0.00  0.00    +0.000 N 
ATOM      7  C   UNL     1       7.797   7.451  17.791  0.00  0.00    +0.000 C 
ATOM      8  C   UNL     1       6.403   5.357  17.711  0.00  0.00    +0.000 A 
ATOM      9 CL   UNL     1       5.922   5.466  19.342  0.00  0.00    +0.000 Cl
ATOM     10  C   UNL     1       6.088   4.440  16.739  0.00  0.00    +0.000 A 
BRANCH   4  12
ATOM     11  C   UNL     1       5.365   4.201  13.658  0.00  0.00    +0.000 C 
ATOM     12  C   UNL     1       6.790   4.325  14.200  0.00  0.00    +0.000 C 
ATOM     13  C   UNL     1       7.664   5.091  13.203  0.00  0.00    +0.000 C 
ENDBRANCH   4  12
ENDBRANCH   3  10
ENDBRANCH   1   3
BRANCH   1  14
ATOM     14  C   UNL     1       3.001   3.242  17.853  0.00  0.00    +0.000 C 
BRANCH  14  15
ATOM     15  C   UNL     1       2.574   4.384  18.748  0.00  0.00    +0.000 A 
ATOM     16  C   UNL     1       2.105   4.129  20.058  0.00  0.00    +0.000 A 
ATOM     17  C   UNL     1       1.684   5.167  20.894  0.00  0.00    +0.000 A 
ATOM     18  C   UNL     1       1.732   6.450  20.394  0.00  0.00    +0.000 A 
ATOM     19  C   UNL     1       2.180   6.712  19.122  0.00  0.00    +0.000 A 
ATOM     20  C   UNL     1       2.606   5.708  18.276  0.00  0.00    +0.000 A 
ATOM     21  O   UNL     1       2.142   8.039  18.822  0.00  0.00    +0.000 OA
ATOM     22  C   UNL     1       1.607   8.578  20.048  0.00  0.00    +0.000 C 
ATOM     23  O   UNL     1       1.359   7.577  21.057  0.00  0.00    +0.000 OA
ENDBRANCH  14  15
ENDBRANCH   1  14
TORSDOF 5
ENDMDL
MODEL 6
REMARK VINA RESULT:      -6.6      3.606      6.296
REMARK  Name = 
REMARK  8 active torsions:
REMARK  status: ('A' for Active; 'I' for Inactive)
REMARK    1  A    between atoms: C_1  and  C_2
REMARK    2  A    between atoms: C_2  and  C_3
REMARK    3  A    between atoms: C_2  and  C_4
REMARK    4  A    between atoms: N_6  and  C_7
REMARK    5  A    between atoms: C_10  and  C_11
REMARK    6  A    between atoms: C_11  and  N_12
REMARK    7  A    between atoms: N_12  and  C_13
REMARK    8  A    between atoms: C_13  and  C_14
REMARK                            x       y       z     vdW  Elec       q    Type
REMARK                         _______ _______ _______ _____ _____    ______ ____
ROOT
ATOM      1  N   UNL     1       2.232   6.924  18.299  0.00  0.00    +0.000 NA
ATOM      2  H   UNL     1       1.320   7.286  18.022  0.00  0.00    +0.000 HD
ENDROOT
BRANCH   1   3
ATOM      3  C   UNL     1       2.276   5.490  18.024  0.00  0.00    +0.000 C 
BRANCH   3  10
ATOM      4  C   UNL     1       4.058   3.942  19.190  0.00  0.00    +0.000 A 
ATOM      5  N   UNL     1       5.386   3.735  19.138  0.00  0.00    +0.000 NA
ATOM      6  N   UNL     1       5.833   4.662  18.263  0.00  0.00    +0.000 N 
ATOM      7  C   UNL     1       7.241   4.731  17.956  0.00  0.00    +0.000 C 
ATOM      8  C   UNL     1       4.828   5.415  17.744  0.00  0.00    +0.000 A 
ATOM      9 CL   UNL     1       5.143   6.621  16.581  0.00  0.00    +0.000 Cl
ATOM     10  C   UNL     1       3.650   4.995  18.309  0.00  0.00    +0.000 A 
BRANCH   4  12
ATOM     11  C   UNL     1       2.414   3.929  21.079  0.00  0.00    +0.000 C 
ATOM     12  C   UNL     1       3.175   3.080  20.058  0.00  0.00    +0.000 C 
ATOM     13  C   UNL     1       2.195   2.211  19.266  0.00  0.00    +0.000 C 
ENDBRANCH   4  12
ENDBRANCH   3  10
ENDBRANCH   1   3
BRANCH   1  14
ATOM     14  C   UNL     1       2.418   7.179  19.728  0.00  0.00    +0.000 C 
BRANCH  14  15
ATOM     15  C   UNL     1       1.505   8.282  20.216  0.00  0.00    +0.000 A 
ATOM     16  C   UNL     1       1.133   9.338  19.352  0.00  0.00    +0.000 A 
ATOM     17  C   UNL     1       0.308  10.378  19.789  0.00  0.00    +0.000 A 
ATOM     18  C   UNL     1      -0.123  10.346  21.097  0.00  0.00    +0.000 A 
ATOM     19  C   UNL     1       0.235   9.329  21.949  0.00  0.00    +0.000 A 
ATOM     20  C   UNL     1       1.044   8.287  21.544  0.00  0.00    +0.000 A 
ATOM     21  O   UNL     1      -0.291   9.489  23.195  0.00  0.00    +0.000 OA
ATOM     22  C   UNL     1      -1.009  10.728  23.029  0.00  0.00    +0.000 C 
ATOM     23  O   UNL     1      -0.921  11.270  21.695  0.00  0.00    +0.000 OA
ENDBRANCH  14  15
ENDBRANCH   1  14
TORSDOF 5
ENDMDL
MODEL 7
REMARK VINA RESULT:      -6.6      3.343      6.211
REMARK  Name = 
REMARK  8 active torsions:
REMARK  status: ('A' for Active; 'I' for Inactive)
REMARK    1  A    between atoms: C_1  and  C_2
REMARK    2  A    between atoms: C_2  and  C_3
REMARK    3  A    between atoms: C_2  and  C_4
REMARK    4  A    between atoms: N_6  and  C_7
REMARK    5  A    between atoms: C_10  and  C_11
REMARK    6  A    between atoms: C_11  and  N_12
REMARK    7  A    between atoms: N_12  and  C_13
REMARK    8  A    between atoms: C_13  and  C_14
REMARK                            x       y       z     vdW  Elec       q    Type
REMARK                         _______ _______ _______ _____ _____    ______ ____
ROOT
ATOM      1  N   UNL     1       3.793   7.444  17.925  0.00  0.00    +0.000 NA
ATOM      2  H   UNL     1       4.395   8.208  17.623  0.00  0.00    +0.000 HD
ENDROOT
BRANCH   1   3
ATOM      3  C   UNL     1       4.099   6.257  17.130  0.00  0.00    +0.000 C 
BRANCH   3  10
ATOM      4  C   UNL     1       5.609   4.532  18.425  0.00  0.00    +0.000 A 
ATOM      5  N   UNL     1       5.453   3.558  19.339  0.00  0.00    +0.000 NA
ATOM      6  N   UNL     1       4.118   3.494  19.531  0.00  0.00    +0.000 N 
ATOM      7  C   UNL     1       3.578   2.540  20.468  0.00  0.00    +0.000 C 
ATOM      8  C   UNL     1       3.441   4.415  18.795  0.00  0.00    +0.000 A 
ATOM      9 CL   UNL     1       1.746   4.556  18.905  0.00  0.00    +0.000 Cl
ATOM     10  C   UNL     1       4.357   5.120  18.055  0.00  0.00    +0.000 A 
BRANCH   4  12
ATOM     11  C   UNL     1       7.164   4.610  16.462  0.00  0.00    +0.000 C 
ATOM     12  C   UNL     1       6.985   4.931  17.948  0.00  0.00    +0.000 C 
ATOM     13  C   UNL     1       7.324   6.401  18.210  0.00  0.00    +0.000 C 
ENDBRANCH   4  12
ENDBRANCH   3  10
ENDBRANCH   1   3
BRANCH   1  14
ATOM     14  C   UNL     1       2.399   7.846  17.730  0.00  0.00    +0.000 C 
BRANCH  14  15
ATOM     15  C   UNL     1       1.851   8.553  18.950  0.00  0.00    +0.000 A 
ATOM     16  C   UNL     1       1.816   7.895  20.202  0.00  0.00    +0.000 A 
ATOM     17  C   UNL     1       1.294   8.521  21.337  0.00  0.00    +0.000 A 
ATOM     18  C   UNL     1       0.804   9.800  21.194  0.00  0.00    +0.000 A 
ATOM     19  C   UNL     1       0.827  10.450  19.983  0.00  0.00    +0.000 A 
ATOM     20  C   UNL     1       1.341   9.858  18.846  0.00  0.00    +0.000 A 
ATOM     21  O   UNL     1       0.292  11.699  20.055  0.00  0.00    +0.000 OA
ATOM     22  C   UNL     1      -0.080  11.754  21.447  0.00  0.00    +0.000 C 
ATOM     23  O   UNL     1       0.257  10.558  22.181  0.00  0.00    +0.000 OA
ENDBRANCH  14  15
ENDBRANCH   1  14
TORSDOF 5
ENDMDL
MODEL 8
REMARK VINA RESULT:      -6.5      3.414      5.923
REMARK  Name = 
REMARK  8 active torsions:
REMARK  status: ('A' for Active; 'I' for Inactive)
REMARK    1  A    between atoms: C_1  and  C_2
REMARK    2  A    between atoms: C_2  and  C_3
REMARK    3  A    between atoms: C_2  and  C_4
REMARK    4  A    between atoms: N_6  and  C_7
REMARK    5  A    between atoms: C_10  and  C_11
REMARK    6  A    between atoms: C_11  and  N_12
REMARK    7  A    between atoms: N_12  and  C_13
REMARK    8  A    between atoms: C_13  and  C_14
REMARK                            x       y       z     vdW  Elec       q    Type
REMARK                         _______ _______ _______ _____ _____    ______ ____
ROOT
ATOM      1  N   UNL     1       3.692   5.884  19.616  0.00  0.00    +0.000 NA
ATOM      2  H   UNL     1       3.612   6.463  20.450  0.00  0.00    +0.000 HD
ENDROOT
BRANCH   1   3
ATOM      3  C   UNL     1       5.084   5.469  19.458  0.00  0.00    +0.000 C 
BRANCH   3  10
ATOM      4  C   UNL     1       4.493   3.697  17.603  0.00  0.00    +0.000 A 
ATOM      5  N   UNL     1       4.870   3.406  16.346  0.00  0.00    +0.000 NA
ATOM      6  N   UNL     1       5.862   4.284  16.084  0.00  0.00    +0.000 N 
ATOM      7  C   UNL     1       6.513   4.261  14.797  0.00  0.00    +0.000 C 
ATOM      8  C   UNL     1       6.093   5.131  17.121  0.00  0.00    +0.000 A 
ATOM      9 CL   UNL     1       7.270   6.359  17.008  0.00  0.00    +0.000 Cl
ATOM     10  C   UNL     1       5.233   4.800  18.138  0.00  0.00    +0.000 A 
BRANCH   4  12
ATOM     11  C   UNL     1       2.025   3.268  17.624  0.00  0.00    +0.000 C 
ATOM     12  C   UNL     1       3.372   2.937  18.269  0.00  0.00    +0.000 C 
ATOM     13  C   UNL     1       3.584   1.421  18.289  0.00  0.00    +0.000 C 
ENDBRANCH   4  12
ENDBRANCH   3  10
ENDBRANCH   1   3
BRANCH   1  14
ATOM     14  C   UNL     1       3.258   6.671  18.461  0.00  0.00    +0.000 C 
BRANCH  14  15
ATOM     15  C   UNL     1       2.298   7.767  18.869  0.00  0.00    +0.000 A 
ATOM     16  C   UNL     1       1.874   8.733  17.927  0.00  0.00    +0.000 A 
ATOM     17  C   UNL     1       1.005   9.767  18.287  0.00  0.00    +0.000 A 
ATOM     18  C   UNL     1       0.582   9.819  19.597  0.00  0.00    +0.000 A 
ATOM     19  C   UNL     1       0.990   8.891  20.524  0.00  0.00    +0.000 A 
ATOM     20  C   UNL     1       1.843   7.857  20.196  0.00  0.00    +0.000 A 
ATOM     21  O   UNL     1       0.464   9.124  21.758  0.00  0.00    +0.000 OA
ATOM     22  C   UNL     1      -0.311  10.313  21.500  0.00  0.00    +0.000 C 
ATOM     23  O   UNL     1      -0.254  10.751  20.126  0.00  0.00    +0.000 OA
ENDBRANCH  14  15
ENDBRANCH   1  14
TORSDOF 5
ENDMDL
MODEL 9
REMARK VINA RESULT:      -6.5      2.957      5.968
REMARK  Name = 
REMARK  8 active torsions:
REMARK  status: ('A' for Active; 'I' for Inactive)
REMARK    1  A    between atoms: C_1  and  C_2
REMARK    2  A    between atoms: C_2  and  C_3
REMARK    3  A    between atoms: C_2  and  C_4
REMARK    4  A    between atoms: N_6  and  C_7
REMARK    5  A    between atoms: C_10  and  C_11
REMARK    6  A    between atoms: C_11  and  N_12
REMARK    7  A    between atoms: N_12  and  C_13
REMARK    8  A    between atoms: C_13  and  C_14
REMARK                            x       y       z     vdW  Elec       q    Type
REMARK                         _______ _______ _______ _____ _____    ______ ____
ROOT
ATOM      1  N   UNL     1       3.701   3.891  16.987  0.00  0.00    +0.000 NA
ATOM      2  H   UNL     1       3.148   3.261  16.407  0.00  0.00    +0.000 HD
ENDROOT
BRANCH   1   3
ATOM      3  C   UNL     1       5.067   3.378  17.072  0.00  0.00    +0.000 C 
BRANCH   3  10
ATOM      4  C   UNL     1       6.702   4.930  15.712  0.00  0.00    +0.000 A 
ATOM      5  N   UNL     1       7.426   6.044  15.922  0.00  0.00    +0.000 NA
ATOM      6  N   UNL     1       7.234   6.323  17.229  0.00  0.00    +0.000 N 
ATOM      7  C   UNL     1       7.873   7.478  17.812  0.00  0.00    +0.000 C 
ATOM      8  C   UNL     1       6.391   5.443  17.831  0.00  0.00    +0.000 A 
ATOM      9 CL   UNL     1       5.961   5.618  19.471  0.00  0.00    +0.000 Cl
ATOM     10  C   UNL     1       6.012   4.514  16.896  0.00  0.00    +0.000 A 
BRANCH   4  12
ATOM     11  C   UNL     1       5.200   4.276  13.817  0.00  0.00    +0.000 C 
ATOM     12  C   UNL     1       6.637   4.297  14.343  0.00  0.00    +0.000 C 
ATOM     13  C   UNL     1       7.561   4.958  13.316  0.00  0.00    +0.000 C 
ENDBRANCH   4  12
ENDBRANCH   3  10
ENDBRANCH   1   3
BRANCH   1  14
ATOM     14  C   UNL     1       3.093   3.952  18.316  0.00  0.00    +0.000 C 
BRANCH  14  15
ATOM     15  C   UNL     1       2.668   5.361  18.666  0.00  0.00    +0.000 A 
ATOM     16  C   UNL     1       2.846   6.413  17.737  0.00  0.00    +0.000 A 
ATOM     17  C   UNL     1       2.481   7.726  18.048  0.00  0.00    +0.000 A 
ATOM     18  C   UNL     1       1.950   7.964  19.296  0.00  0.00    +0.000 A 
ATOM     19  C   UNL     1       1.776   6.953  20.210  0.00  0.00    +0.000 A 
ATOM     20  C   UNL     1       2.123   5.646  19.930  0.00  0.00    +0.000 A 
ATOM     21  O   UNL     1       1.244   7.399  21.381  0.00  0.00    +0.000 OA
ATOM     22  C   UNL     1       1.116   8.808  21.100  0.00  0.00    +0.000 C 
ATOM     23  O   UNL     1       1.547   9.171  19.772  0.00  0.00    +0.000 OA
ENDBRANCH  14  15
ENDBRANCH   1  14
TORSDOF 5
ENDMDL
