MODEL 1
REMARK VINA RESULT:      -7.4      0.000      0.000
REMARK  Name = 
REMARK  7 active torsions:
REMARK  status: ('A' for Active; 'I' for Inactive)
REMARK    1  A    between atoms: C_1  and  C_2
REMARK    2  A    between atoms: N_4  and  C_5
REMARK    3  A    between atoms: C_5  and  C_6
REMARK    4  A    between atoms: C_5  and  C_7
REMARK    5  A    between atoms: N_9  and  C_10
REMARK    6  A    between atoms: N_17  and  C_18
REMARK    7  A    between atoms: C_24  and  C_25
REMARK                            x       y       z     vdW  Elec       q    Type
REMARK                         _______ _______ _______ _____ _____    ______ ____
ROOT
ATOM      1  C   UNL     1       3.449   8.142  16.911  0.00  0.00    +0.000 C 
ATOM      2  C   UNL     1       2.984   7.302  18.067  0.00  0.00    +0.000 A 
ATOM      3  N   UNL     1       3.378   6.061  18.127  0.00  0.00    +0.000 NA
ATOM      4  N   UNL     1       3.013   5.227  19.191  0.00  0.00    +0.000 N 
ATOM      5  C   UNL     1       2.297   5.657  20.327  0.00  0.00    +0.000 A 
ATOM      6  O   UNL     1       2.108   4.934  21.307  0.00  0.00    +0.000 OA
ATOM      7  C   UNL     1       1.827   7.036  20.221  0.00  0.00    +0.000 A 
ATOM      8  N   UNL     1       1.115   7.713  21.127  0.00  0.00    +0.000 NA
ATOM      9  N   UNL     1       0.840   8.910  20.536  0.00  0.00    +0.000 N 
ATOM     10  C   UNL     1       1.526   9.048  19.324  0.00  0.00    +0.000 A 
ATOM     11  C   UNL     1       1.638  10.303  18.533  0.00  0.00    +0.000 C 
ATOM     12  C   UNL     1       2.136   7.823  19.107  0.00  0.00    +0.000 A 
ENDROOT
BRANCH   9  13
ATOM     13  C   UNL     1      -0.028   9.826  21.201  0.00  0.00    +0.000 A 
ATOM     14  C   UNL     1      -0.282   9.650  22.569  0.00  0.00    +0.000 A 
ATOM     15  C   UNL     1      -1.067  10.575  23.264  0.00  0.00    +0.000 A 
ATOM     16  C   UNL     1      -1.630  11.658  22.593  0.00  0.00    +0.000 A 
ATOM     17  C   UNL     1      -1.431  11.805  21.222  0.00  0.00    +0.000 A 
ATOM     18  C   UNL     1      -0.640  10.888  20.523  0.00  0.00    +0.000 A 
ENDBRANCH   9  13
BRANCH   4  19
ATOM     19  C   UNL     1       3.452   3.821  19.107  0.00  0.00    +0.000 C 
ATOM     20  C   UNL     1       2.409   2.915  18.442  0.00  0.00    +0.000 C 
BRANCH  19  21
ATOM     21  C   UNL     1       4.813   3.681  18.397  0.00  0.00    +0.000 C 
ATOM     22  O   UNL     1       5.887   3.769  18.995  0.00  0.00    +0.000 OA
ATOM     23  N   UNL     1       4.752   3.596  17.016  0.00  0.00    +0.000 N 
ATOM     24  H   UNL     1       3.849   3.735  16.562  0.00  0.00    +0.000 HD
BRANCH  23  25
ATOM     25  C   UNL     1       5.930   3.672  16.213  0.00  0.00    +0.000 C 
ATOM     26  C   UNL     1       5.858   4.103  14.772  0.00  0.00    +0.000 C 
ATOM     27  C   UNL     1       6.493   5.003  15.793  0.00  0.00    +0.000 C 
ENDBRANCH  23  25
ENDBRANCH  19  21
ENDBRANCH   4  19
TORSDOF 4
ENDMDL
MODEL 2
REMARK VINA RESULT:      -7.1      1.967      3.664
REMARK  Name = 
REMARK  7 active torsions:
REMARK  status: ('A' for Active; 'I' for Inactive)
REMARK    1  A    between atoms: C_1  and  C_2
REMARK    2  A    between atoms: N_4  and  C_5
REMARK    3  A    between atoms: C_5  and  C_6
REMARK    4  A    between atoms: C_5  and  C_7
REMARK    5  A    between atoms: N_9  and  C_10
REMARK    6  A    between atoms: N_17  and  C_18
REMARK    7  A    between atoms: C_24  and  C_25
REMARK                            x       y       z     vdW  Elec       q    Type
REMARK                         _______ _______ _______ _____ _____    ______ ____
ROOT
ATOM      1  C   UNL     1       3.402   3.192  19.823  0.00  0.00    +0.000 C 
ATOM      2  C   UNL     1       3.841   4.374  19.006  0.00  0.00    +0.000 A 
ATOM      3  N   UNL     1       4.800   4.206  18.140  0.00  0.00    +0.000 NA
ATOM      4  N   UNL     1       5.239   5.253  17.320  0.00  0.00    +0.000 N 
ATOM      5  C   UNL     1       4.636   6.526  17.267  0.00  0.00    +0.000 A 
ATOM      6  O   UNL     1       4.959   7.381  16.440  0.00  0.00    +0.000 OA
ATOM      7  C   UNL     1       3.595   6.710  18.273  0.00  0.00    +0.000 A 
ATOM      8  N   UNL     1       2.859   7.807  18.477  0.00  0.00    +0.000 NA
ATOM      9  N   UNL     1       2.104   7.527  19.577  0.00  0.00    +0.000 N 
ATOM     10  C   UNL     1       2.243   6.188  19.960  0.00  0.00    +0.000 A 
ATOM     11  C   UNL     1       1.402   5.487  20.967  0.00  0.00    +0.000 C 
ATOM     12  C   UNL     1       3.231   5.672  19.138  0.00  0.00    +0.000 A 
ENDROOT
BRANCH   9  13
ATOM     13  C   UNL     1       1.293   8.557  20.139  0.00  0.00    +0.000 A 
ATOM     14  C   UNL     1       0.773   9.549  19.295  0.00  0.00    +0.000 A 
ATOM     15  C   UNL     1      -0.086  10.527  19.805  0.00  0.00    +0.000 A 
ATOM     16  C   UNL     1      -0.402  10.542  21.161  0.00  0.00    +0.000 A 
ATOM     17  C   UNL     1       0.159   9.594  22.015  0.00  0.00    +0.000 A 
ATOM     18  C   UNL     1       1.012   8.609  21.510  0.00  0.00    +0.000 A 
ENDBRANCH   9  13
BRANCH   4  19
ATOM     19  C   UNL     1       6.386   4.962  16.437  0.00  0.00    +0.000 C 
ATOM     20  C   UNL     1       7.642   4.556  17.217  0.00  0.00    +0.000 C 
BRANCH  19  21
ATOM     21  C   UNL     1       6.045   3.895  15.378  0.00  0.00    +0.000 C 
ATOM     22  O   UNL     1       5.663   2.761  15.675  0.00  0.00    +0.000 OA
ATOM     23  N   UNL     1       6.338   4.247  14.071  0.00  0.00    +0.000 N 
ATOM     24  H   UNL     1       6.843   5.118  13.905  0.00  0.00    +0.000 HD
BRANCH  23  25
ATOM     25  C   UNL     1       6.273   3.293  13.011  0.00  0.00    +0.000 C 
ATOM     26  C   UNL     1       5.294   3.458  11.880  0.00  0.00    +0.000 C 
ATOM     27  C   UNL     1       6.763   3.637  11.631  0.00  0.00    +0.000 C 
ENDBRANCH  23  25
ENDBRANCH  19  21
ENDBRANCH   4  19
TORSDOF 4
ENDMDL
MODEL 3
REMARK VINA RESULT:      -7.1      3.278      8.896
REMARK  Name = 
REMARK  7 active torsions:
REMARK  status: ('A' for Active; 'I' for Inactive)
REMARK    1  A    between atoms: C_1  and  C_2
REMARK    2  A    between atoms: N_4  and  C_5
REMARK    3  A    between atoms: C_5  and  C_6
REMARK    4  A    between atoms: C_5  and  C_7
REMARK    5  A    between atoms: N_9  and  C_10
REMARK    6  A    between atoms: N_17  and  C_18
REMARK    7  A    between atoms: C_24  and  C_25
REMARK                            x       y       z     vdW  Elec       q    Type
REMARK                         _______ _______ _______ _____ _____    ______ ____
ROOT
ATOM      1  C   UNL     1       0.152  12.294  18.510  0.00  0.00    +0.000 C 
ATOM      2  C   UNL     1       0.029  11.594  19.834  0.00  0.00    +0.000 A 
ATOM      3  N   UNL     1      -0.573  12.216  20.808  0.00  0.00    +0.000 NA
ATOM      4  N   UNL     1      -0.755  11.614  22.060  0.00  0.00    +0.000 N 
ATOM      5  C   UNL     1      -0.417  10.277  22.355  0.00  0.00    +0.000 A 
ATOM      6  O   UNL     1      -0.712   9.736  23.422  0.00  0.00    +0.000 OA
ATOM      7  C   UNL     1       0.295   9.612  21.267  0.00  0.00    +0.000 A 
ATOM      8  N   UNL     1       0.753   8.357  21.257  0.00  0.00    +0.000 NA
ATOM      9  N   UNL     1       1.424   8.236  20.076  0.00  0.00    +0.000 N 
ATOM     10  C   UNL     1       1.239   9.364  19.269  0.00  0.00    +0.000 A 
ATOM     11  C   UNL     1       1.633   9.477  17.839  0.00  0.00    +0.000 C 
ATOM     12  C   UNL     1       0.538  10.265  20.054  0.00  0.00    +0.000 A 
ENDROOT
BRANCH   9  13
ATOM     13  C   UNL     1       2.152   7.038  19.814  0.00  0.00    +0.000 A 
ATOM     14  C   UNL     1       1.905   5.906  20.606  0.00  0.00    +0.000 A 
ATOM     15  C   UNL     1       2.548   4.697  20.324  0.00  0.00    +0.000 A 
ATOM     16  C   UNL     1       3.464   4.619  19.277  0.00  0.00    +0.000 A 
ATOM     17  C   UNL     1       3.757   5.755  18.526  0.00  0.00    +0.000 A 
ATOM     18  C   UNL     1       3.113   6.965  18.797  0.00  0.00    +0.000 A 
ENDBRANCH   9  13
BRANCH   4  19
ATOM     19  C   UNL     1      -1.378  12.447  23.107  0.00  0.00    +0.000 C 
ATOM     20  C   UNL     1      -0.884  13.898  23.079  0.00  0.00    +0.000 C 
BRANCH  19  21
ATOM     21  C   UNL     1      -2.917  12.404  23.042  0.00  0.00    +0.000 C 
ATOM     22  O   UNL     1      -3.607  11.899  23.931  0.00  0.00    +0.000 OA
ATOM     23  N   UNL     1      -3.470  12.838  21.848  0.00  0.00    +0.000 N 
ATOM     24  H   UNL     1      -2.842  13.051  21.073  0.00  0.00    +0.000 HD
BRANCH  23  25
ATOM     25  C   UNL     1      -4.858  12.663  21.563  0.00  0.00    +0.000 C 
ATOM     26  C   UNL     1      -5.731  13.838  21.214  0.00  0.00    +0.000 C 
ATOM     27  C   UNL     1      -5.384  12.823  20.164  0.00  0.00    +0.000 C 
ENDBRANCH  23  25
ENDBRANCH  19  21
ENDBRANCH   4  19
TORSDOF 4
ENDMDL
MODEL 4
REMARK VINA RESULT:      -7.1      1.135      1.263
REMARK  Name = 
REMARK  7 active torsions:
REMARK  status: ('A' for Active; 'I' for Inactive)
REMARK    1  A    between atoms: C_1  and  C_2
REMARK    2  A    between atoms: N_4  and  C_5
REMARK    3  A    between atoms: C_5  and  C_6
REMARK    4  A    between atoms: C_5  and  C_7
REMARK    5  A    between atoms: N_9  and  C_10
REMARK    6  A    between atoms: N_17  and  C_18
REMARK    7  A    between atoms: C_24  and  C_25
REMARK                            x       y       z     vdW  Elec       q    Type
REMARK                         _______ _______ _______ _____ _____    ______ ____
ROOT
ATOM      1  C   UNL     1       3.375   8.127  16.989  0.00  0.00    +0.000 C 
ATOM      2  C   UNL     1       2.856   7.294  18.127  0.00  0.00    +0.000 A 
ATOM      3  N   UNL     1       3.198   6.038  18.180  0.00  0.00    +0.000 NA
ATOM      4  N   UNL     1       2.781   5.208  19.229  0.00  0.00    +0.000 N 
ATOM      5  C   UNL     1       2.062   5.656  20.357  0.00  0.00    +0.000 A 
ATOM      6  O   UNL     1       1.827   4.931  21.325  0.00  0.00    +0.000 OA
ATOM      7  C   UNL     1       1.650   7.053  20.257  0.00  0.00    +0.000 A 
ATOM      8  N   UNL     1       0.949   7.749  21.158  0.00  0.00    +0.000 NA
ATOM      9  N   UNL     1       0.733   8.962  20.574  0.00  0.00    +0.000 N 
ATOM     10  C   UNL     1       1.446   9.085  19.377  0.00  0.00    +0.000 A 
ATOM     11  C   UNL     1       1.623  10.342  18.602  0.00  0.00    +0.000 C 
ATOM     12  C   UNL     1       2.010   7.839  19.158  0.00  0.00    +0.000 A 
ENDROOT
BRANCH   9  13
ATOM     13  C   UNL     1      -0.110   9.905  21.234  0.00  0.00    +0.000 A 
ATOM     14  C   UNL     1      -0.368   9.745  22.603  0.00  0.00    +0.000 A 
ATOM     15  C   UNL     1      -1.127  10.695  23.292  0.00  0.00    +0.000 A 
ATOM     16  C   UNL     1      -1.662  11.788  22.614  0.00  0.00    +0.000 A 
ATOM     17  C   UNL     1      -1.459  11.921  21.242  0.00  0.00    +0.000 A 
ATOM     18  C   UNL     1      -0.694  10.979  20.549  0.00  0.00    +0.000 A 
ENDBRANCH   9  13
BRANCH   4  19
ATOM     19  C   UNL     1       3.165   3.786  19.137  0.00  0.00    +0.000 C 
ATOM     20  C   UNL     1       2.552   3.087  17.919  0.00  0.00    +0.000 C 
BRANCH  19  21
ATOM     21  C   UNL     1       4.695   3.598  19.149  0.00  0.00    +0.000 C 
ATOM     22  O   UNL     1       5.258   2.777  19.876  0.00  0.00    +0.000 OA
ATOM     23  N   UNL     1       5.409   4.516  18.396  0.00  0.00    +0.000 N 
ATOM     24  H   UNL     1       4.903   5.299  17.981  0.00  0.00    +0.000 HD
BRANCH  23  25
ATOM     25  C   UNL     1       6.832   4.598  18.475  0.00  0.00    +0.000 C 
ATOM     26  C   UNL     1       7.586   5.685  17.758  0.00  0.00    +0.000 C 
ATOM     27  C   UNL     1       7.499   5.696  19.257  0.00  0.00    +0.000 C 
ENDBRANCH  23  25
ENDBRANCH  19  21
ENDBRANCH   4  19
TORSDOF 4
ENDMDL
MODEL 5
REMARK VINA RESULT:      -7.1      2.375      3.697
REMARK  Name = 
REMARK  7 active torsions:
REMARK  status: ('A' for Active; 'I' for Inactive)
REMARK    1  A    between atoms: C_1  and  C_2
REMARK    2  A    between atoms: N_4  and  C_5
REMARK    3  A    between atoms: C_5  and  C_6
REMARK    4  A    between atoms: C_5  and  C_7
REMARK    5  A    between atoms: N_9  and  C_10
REMARK    6  A    between atoms: N_17  and  C_18
REMARK    7  A    between atoms: C_24  and  C_25
REMARK                            x       y       z     vdW  Elec       q    Type
REMARK                         _______ _______ _______ _____ _____    ______ ____
ROOT
ATOM      1  C   UNL     1       3.469   4.498  20.316  0.00  0.00    +0.000 C 
ATOM      2  C   UNL     1       3.895   5.350  19.154  0.00  0.00    +0.000 A 
ATOM      3  N   UNL     1       4.862   4.921  18.394  0.00  0.00    +0.000 NA
ATOM      4  N   UNL     1       5.290   5.645  17.274  0.00  0.00    +0.000 N 
ATOM      5  C   UNL     1       4.668   6.819  16.803  0.00  0.00    +0.000 A 
ATOM      6  O   UNL     1       4.983   7.358  15.740  0.00  0.00    +0.000 OA
ATOM      7  C   UNL     1       3.618   7.308  17.691  0.00  0.00    +0.000 A 
ATOM      8  N   UNL     1       2.864   8.399  17.520  0.00  0.00    +0.000 NA
ATOM      9  N   UNL     1       2.107   8.486  18.650  0.00  0.00    +0.000 N 
ATOM     10  C   UNL     1       2.264   7.352  19.455  0.00  0.00    +0.000 A 
ATOM     11  C   UNL     1       1.427   7.009  20.636  0.00  0.00    +0.000 C 
ATOM     12  C   UNL     1       3.264   6.609  18.850  0.00  0.00    +0.000 A 
ENDROOT
BRANCH   9  13
ATOM     13  C   UNL     1       1.277   9.630  18.840  0.00  0.00    +0.000 A 
ATOM     14  C   UNL     1       1.773  10.895  18.489  0.00  0.00    +0.000 A 
ATOM     15  C   UNL     1       0.956  12.025  18.592  0.00  0.00    +0.000 A 
ATOM     16  C   UNL     1      -0.344  11.905  19.078  0.00  0.00    +0.000 A 
ATOM     17  C   UNL     1      -0.821  10.661  19.485  0.00  0.00    +0.000 A 
ATOM     18  C   UNL     1      -0.012   9.526  19.376  0.00  0.00    +0.000 A 
ENDBRANCH   9  13
BRANCH   4  19
ATOM     19  C   UNL     1       6.447   5.098  16.538  0.00  0.00    +0.000 C 
ATOM     20  C   UNL     1       7.538   4.560  17.470  0.00  0.00    +0.000 C 
BRANCH  19  21
ATOM     21  C   UNL     1       6.027   4.016  15.523  0.00  0.00    +0.000 C 
ATOM     22  O   UNL     1       5.607   2.909  15.868  0.00  0.00    +0.000 OA
ATOM     23  N   UNL     1       6.293   4.315  14.198  0.00  0.00    +0.000 N 
ATOM     24  H   UNL     1       6.830   5.157  13.990  0.00  0.00    +0.000 HD
BRANCH  23  25
ATOM     25  C   UNL     1       6.155   3.332  13.170  0.00  0.00    +0.000 C 
ATOM     26  C   UNL     1       5.232   3.559  12.003  0.00  0.00    +0.000 C 
ATOM     27  C   UNL     1       6.719   3.568  11.797  0.00  0.00    +0.000 C 
ENDBRANCH  23  25
ENDBRANCH  19  21
ENDBRANCH   4  19
TORSDOF 4
ENDMDL
MODEL 6
REMARK VINA RESULT:      -7.0      3.507      8.095
REMARK  Name = 
REMARK  7 active torsions:
REMARK  status: ('A' for Active; 'I' for Inactive)
REMARK    1  A    between atoms: C_1  and  C_2
REMARK    2  A    between atoms: N_4  and  C_5
REMARK    3  A    between atoms: C_5  and  C_6
REMARK    4  A    between atoms: C_5  and  C_7
REMARK    5  A    between atoms: N_9  and  C_10
REMARK    6  A    between atoms: N_17  and  C_18
REMARK    7  A    between atoms: C_24  and  C_25
REMARK                            x       y       z     vdW  Elec       q    Type
REMARK                         _______ _______ _______ _____ _____    ______ ____
ROOT
ATOM      1  C   UNL     1       0.305   8.727  22.015  0.00  0.00    +0.000 C 
ATOM      2  C   UNL     1       0.796   9.242  20.692  0.00  0.00    +0.000 A 
ATOM      3  N   UNL     1       0.559  10.487  20.387  0.00  0.00    +0.000 NA
ATOM      4  N   UNL     1       1.015  11.047  19.187  0.00  0.00    +0.000 N 
ATOM      5  C   UNL     1       1.843  10.378  18.263  0.00  0.00    +0.000 A 
ATOM      6  O   UNL     1       2.338  10.941  17.284  0.00  0.00    +0.000 OA
ATOM      7  C   UNL     1       2.060   8.974  18.599  0.00  0.00    +0.000 A 
ATOM      8  N   UNL     1       2.784   8.086  17.910  0.00  0.00    +0.000 NA
ATOM      9  N   UNL     1       2.603   6.902  18.562  0.00  0.00    +0.000 N 
ATOM     10  C   UNL     1       1.902   7.083  19.759  0.00  0.00    +0.000 A 
ATOM     11  C   UNL     1       1.727   6.056  20.821  0.00  0.00    +0.000 C 
ATOM     12  C   UNL     1       1.523   8.416  19.764  0.00  0.00    +0.000 A 
ENDROOT
BRANCH   9  13
ATOM     13  C   UNL     1       3.147   5.711  17.995  0.00  0.00    +0.000 A 
ATOM     14  C   UNL     1       4.514   5.670  17.684  0.00  0.00    +0.000 A 
ATOM     15  C   UNL     1       5.090   4.493  17.198  0.00  0.00    +0.000 A 
ATOM     16  C   UNL     1       4.301   3.363  16.989  0.00  0.00    +0.000 A 
ATOM     17  C   UNL     1       2.932   3.417  17.240  0.00  0.00    +0.000 A 
ATOM     18  C   UNL     1       2.351   4.589  17.733  0.00  0.00    +0.000 A 
ENDBRANCH   9  13
BRANCH   4  19
ATOM     19  C   UNL     1       0.616  12.442  18.917  0.00  0.00    +0.000 C 
ATOM     20  C   UNL     1      -0.752  12.791  19.517  0.00  0.00    +0.000 C 
BRANCH  19  21
ATOM     21  C   UNL     1       1.681  13.451  19.391  0.00  0.00    +0.000 C 
ATOM     22  O   UNL     1       1.641  13.990  20.499  0.00  0.00    +0.000 OA
ATOM     23  N   UNL     1       2.608  13.824  18.431  0.00  0.00    +0.000 N 
ATOM     24  H   UNL     1       2.469  13.502  17.473  0.00  0.00    +0.000 HD
BRANCH  23  25
ATOM     25  C   UNL     1       3.522  14.898  18.657  0.00  0.00    +0.000 C 
ATOM     26  C   UNL     1       4.769  15.041  17.827  0.00  0.00    +0.000 C 
ATOM     27  C   UNL     1       3.646  16.025  17.669  0.00  0.00    +0.000 C 
ENDBRANCH  23  25
ENDBRANCH  19  21
ENDBRANCH   4  19
TORSDOF 4
ENDMDL
MODEL 7
REMARK VINA RESULT:      -6.9      3.523      8.213
REMARK  Name = 
REMARK  7 active torsions:
REMARK  status: ('A' for Active; 'I' for Inactive)
REMARK    1  A    between atoms: C_1  and  C_2
REMARK    2  A    between atoms: N_4  and  C_5
REMARK    3  A    between atoms: C_5  and  C_6
REMARK    4  A    between atoms: C_5  and  C_7
REMARK    5  A    between atoms: N_9  and  C_10
REMARK    6  A    between atoms: N_17  and  C_18
REMARK    7  A    between atoms: C_24  and  C_25
REMARK                            x       y       z     vdW  Elec       q    Type
REMARK                         _______ _______ _______ _____ _____    ______ ____
ROOT
ATOM      1  C   UNL     1       0.160   8.592  21.924  0.00  0.00    +0.000 C 
ATOM      2  C   UNL     1       0.675   9.151  20.629  0.00  0.00    +0.000 A 
ATOM      3  N   UNL     1       0.368  10.379  20.318  0.00  0.00    +0.000 NA
ATOM      4  N   UNL     1       0.839  10.978  19.143  0.00  0.00    +0.000 N 
ATOM      5  C   UNL     1       1.755  10.375  18.257  0.00  0.00    +0.000 A 
ATOM      6  O   UNL     1       2.254  10.978  17.305  0.00  0.00    +0.000 OA
ATOM      7  C   UNL     1       2.052   8.986  18.596  0.00  0.00    +0.000 A 
ATOM      8  N   UNL     1       2.868   8.156  17.939  0.00  0.00    +0.000 NA
ATOM      9  N   UNL     1       2.738   6.958  18.575  0.00  0.00    +0.000 N 
ATOM     10  C   UNL     1       1.971   7.081  19.739  0.00  0.00    +0.000 A 
ATOM     11  C   UNL     1       1.819   6.036  20.787  0.00  0.00    +0.000 C 
ATOM     12  C   UNL     1       1.501   8.384  19.732  0.00  0.00    +0.000 A 
ENDROOT
BRANCH   9  13
ATOM     13  C   UNL     1       3.389   5.812  18.030  0.00  0.00    +0.000 A 
ATOM     14  C   UNL     1       2.629   4.666  17.751  0.00  0.00    +0.000 A 
ATOM     15  C   UNL     1       3.225   3.556  17.147  0.00  0.00    +0.000 A 
ATOM     16  C   UNL     1       4.586   3.568  16.849  0.00  0.00    +0.000 A 
ATOM     17  C   UNL     1       5.359   4.680  17.179  0.00  0.00    +0.000 A 
ATOM     18  C   UNL     1       4.767   5.797  17.776  0.00  0.00    +0.000 A 
ENDBRANCH   9  13
BRANCH   4  19
ATOM     19  C   UNL     1       0.358  12.344  18.862  0.00  0.00    +0.000 C 
ATOM     20  C   UNL     1      -1.015  12.626  19.484  0.00  0.00    +0.000 C 
BRANCH  19  21
ATOM     21  C   UNL     1       1.374  13.418  19.298  0.00  0.00    +0.000 C 
ATOM     22  O   UNL     1       1.399  13.885  20.439  0.00  0.00    +0.000 OA
ATOM     23  N   UNL     1       2.164  13.931  18.282  0.00  0.00    +0.000 N 
ATOM     24  H   UNL     1       1.957  13.655  17.323  0.00  0.00    +0.000 HD
BRANCH  23  25
ATOM     25  C   UNL     1       2.999  15.070  18.492  0.00  0.00    +0.000 C 
ATOM     26  C   UNL     1       3.629  15.791  17.331  0.00  0.00    +0.000 C 
ATOM     27  C   UNL     1       2.531  16.449  18.115  0.00  0.00    +0.000 C 
ENDBRANCH  23  25
ENDBRANCH  19  21
ENDBRANCH   4  19
TORSDOF 4
ENDMDL
MODEL 8
REMARK VINA RESULT:      -6.9      2.362      8.542
REMARK  Name = 
REMARK  7 active torsions:
REMARK  status: ('A' for Active; 'I' for Inactive)
REMARK    1  A    between atoms: C_1  and  C_2
REMARK    2  A    between atoms: N_4  and  C_5
REMARK    3  A    between atoms: C_5  and  C_6
REMARK    4  A    between atoms: C_5  and  C_7
REMARK    5  A    between atoms: N_9  and  C_10
REMARK    6  A    between atoms: N_17  and  C_18
REMARK    7  A    between atoms: C_24  and  C_25
REMARK                            x       y       z     vdW  Elec       q    Type
REMARK                         _______ _______ _______ _____ _____    ______ ____
ROOT
ATOM      1  C   UNL     1       1.566   6.117  21.131  0.00  0.00    +0.000 C 
ATOM      2  C   UNL     1       1.772   7.146  20.056  0.00  0.00    +0.000 A 
ATOM      3  N   UNL     1       1.078   8.247  20.112  0.00  0.00    +0.000 NA
ATOM      4  N   UNL     1       1.242   9.265  19.163  0.00  0.00    +0.000 N 
ATOM      5  C   UNL     1       2.218   9.254  18.147  0.00  0.00    +0.000 A 
ATOM      6  O   UNL     1       2.426  10.222  17.413  0.00  0.00    +0.000 OA
ATOM      7  C   UNL     1       2.954   7.995  18.072  0.00  0.00    +0.000 A 
ATOM      8  N   UNL     1       3.925   7.682  17.208  0.00  0.00    +0.000 NA
ATOM      9  N   UNL     1       4.224   6.378  17.471  0.00  0.00    +0.000 N 
ATOM     10  C   UNL     1       3.559   5.925  18.615  0.00  0.00    +0.000 A 
ATOM     11  C   UNL     1       3.823   4.639  19.315  0.00  0.00    +0.000 C 
ATOM     12  C   UNL     1       2.714   6.959  18.982  0.00  0.00    +0.000 A 
ENDROOT
BRANCH   9  13
ATOM     13  C   UNL     1       5.145   5.696  16.622  0.00  0.00    +0.000 A 
ATOM     14  C   UNL     1       4.650   4.797  15.665  0.00  0.00    +0.000 A 
ATOM     15  C   UNL     1       5.523   4.172  14.769  0.00  0.00    +0.000 A 
ATOM     16  C   UNL     1       6.893   4.412  14.845  0.00  0.00    +0.000 A 
ATOM     17  C   UNL     1       7.396   5.257  15.832  0.00  0.00    +0.000 A 
ATOM     18  C   UNL     1       6.528   5.892  16.726  0.00  0.00    +0.000 A 
ENDBRANCH   9  13
BRANCH   4  19
ATOM     19  C   UNL     1       0.343  10.429  19.285  0.00  0.00    +0.000 C 
ATOM     20  C   UNL     1      -1.093  10.115  18.849  0.00  0.00    +0.000 C 
BRANCH  19  21
ATOM     21  C   UNL     1       0.352  11.021  20.709  0.00  0.00    +0.000 C 
ATOM     22  O   UNL     1       1.391  11.199  21.348  0.00  0.00    +0.000 OA
ATOM     23  N   UNL     1      -0.896  11.204  21.280  0.00  0.00    +0.000 N 
ATOM     24  H   UNL     1      -1.713  10.847  20.784  0.00  0.00    +0.000 HD
BRANCH  23  25
ATOM     25  C   UNL     1      -1.041  11.545  22.660  0.00  0.00    +0.000 C 
ATOM     26  C   UNL     1      -1.362  12.954  23.079  0.00  0.00    +0.000 C 
ATOM     27  C   UNL     1      -2.390  11.871  23.236  0.00  0.00    +0.000 C 
ENDBRANCH  23  25
ENDBRANCH  19  21
ENDBRANCH   4  19
TORSDOF 4
ENDMDL
MODEL 9
REMARK VINA RESULT:      -6.9      3.272      8.752
REMARK  Name = 
REMARK  7 active torsions:
REMARK  status: ('A' for Active; 'I' for Inactive)
REMARK    1  A    between atoms: C_1  and  C_2
REMARK    2  A    between atoms: N_4  and  C_5
REMARK    3  A    between atoms: C_5  and  C_6
REMARK    4  A    between atoms: C_5  and  C_7
REMARK    5  A    between atoms: N_9  and  C_10
REMARK    6  A    between atoms: N_17  and  C_18
REMARK    7  A    between atoms: C_24  and  C_25
REMARK                            x       y       z     vdW  Elec       q    Type
REMARK                         _______ _______ _______ _____ _____    ______ ____
ROOT
ATOM      1  C   UNL     1       0.776  11.911  18.450  0.00  0.00    +0.000 C 
ATOM      2  C   UNL     1       0.482  11.278  19.780  0.00  0.00    +0.000 A 
ATOM      3  N   UNL     1      -0.131  11.991  20.682  0.00  0.00    +0.000 NA
ATOM      4  N   UNL     1      -0.468  11.458  21.933  0.00  0.00    +0.000 N 
ATOM      5  C   UNL     1      -0.286  10.108  22.295  0.00  0.00    +0.000 A 
ATOM      6  O   UNL     1      -0.715   9.640  23.351  0.00  0.00    +0.000 OA
ATOM      7  C   UNL     1       0.442   9.337  21.291  0.00  0.00    +0.000 A 
ATOM      8  N   UNL     1       0.775   8.045  21.357  0.00  0.00    +0.000 NA
ATOM      9  N   UNL     1       1.522   7.816  20.239  0.00  0.00    +0.000 N 
ATOM     10  C   UNL     1       1.511   8.924  19.385  0.00  0.00    +0.000 A 
ATOM     11  C   UNL     1       2.024   8.943  17.989  0.00  0.00    +0.000 C 
ATOM     12  C   UNL     1       0.841   9.917  20.082  0.00  0.00    +0.000 A 
ENDROOT
BRANCH   9  13
ATOM     13  C   UNL     1       2.148   6.545  20.075  0.00  0.00    +0.000 A 
ATOM     14  C   UNL     1       3.316   6.458  19.303  0.00  0.00    +0.000 A 
ATOM     15  C   UNL     1       3.993   5.240  19.187  0.00  0.00    +0.000 A 
ATOM     16  C   UNL     1       3.492   4.099  19.810  0.00  0.00    +0.000 A 
ATOM     17  C   UNL     1       2.300   4.167  20.528  0.00  0.00    +0.000 A 
ATOM     18  C   UNL     1       1.622   5.383  20.654  0.00  0.00    +0.000 A 
ENDBRANCH   9  13
BRANCH   4  19
ATOM     19  C   UNL     1      -1.087  12.386  22.899  0.00  0.00    +0.000 C 
ATOM     20  C   UNL     1      -0.583  13.826  22.741  0.00  0.00    +0.000 C 
BRANCH  19  21
ATOM     21  C   UNL     1      -2.627  12.347  22.834  0.00  0.00    +0.000 C 
ATOM     22  O   UNL     1      -3.316  11.821  23.711  0.00  0.00    +0.000 OA
ATOM     23  N   UNL     1      -3.180  12.814  21.653  0.00  0.00    +0.000 N 
ATOM     24  H   UNL     1      -2.552  13.045  20.883  0.00  0.00    +0.000 HD
BRANCH  23  25
ATOM     25  C   UNL     1      -4.569  12.648  21.365  0.00  0.00    +0.000 C 
ATOM     26  C   UNL     1      -5.368  13.759  20.741  0.00  0.00    +0.000 C 
ATOM     27  C   UNL     1      -5.053  12.525  19.947  0.00  0.00    +0.000 C 
ENDBRANCH  23  25
ENDBRANCH  19  21
ENDBRANCH   4  19
TORSDOF 4
ENDMDL
