MODEL 1
REMARK VINA RESULT:      -8.4      0.000      0.000
REMARK  Name = 
REMARK  8 active torsions:
REMARK  status: ('A' for Active; 'I' for Inactive)
REMARK    1  A    between atoms: C_1  and  O_2
REMARK    2  A    between atoms: O_2  and  C_3
REMARK    3  A    between atoms: C_6  and  C_7
REMARK    4  A    between atoms: C_8  and  C_9
REMARK    5  A    between atoms: C_12  and  O_13
REMARK    6  A    between atoms: C_15  and  O_16
REMARK    7  A    between atoms: C_19  and  N_20
REMARK    8  A    between atoms: C_21  and  C_22
REMARK                            x       y       z     vdW  Elec       q    Type
REMARK                         _______ _______ _______ _____ _____    ______ ____
ROOT
ATOM      1  C   UNL     1       3.406   5.200  19.344  0.00  0.00    +0.000 A 
ATOM      2  C   UNL     1       2.389   6.091  19.860  0.00  0.00    +0.000 A 
ATOM      3  N   UNL     1       1.651   5.463  20.782  0.00  0.00    +0.000 NA
ATOM      4  O   UNL     1       2.099   4.163  20.821  0.00  0.00    +0.000 OA
ATOM      5  C   UNL     1       3.117   3.986  19.942  0.00  0.00    +0.000 A 
ENDROOT
BRANCH   1   9
ATOM      6  C   UNL     1       6.533   5.726  16.469  0.00  0.00    +0.000 A 
ATOM      7  C   UNL     1       5.220   5.525  16.044  0.00  0.00    +0.000 A 
ATOM      8  C   UNL     1       4.187   5.360  16.974  0.00  0.00    +0.000 A 
ATOM      9  C   UNL     1       4.453   5.429  18.350  0.00  0.00    +0.000 A 
ATOM     10  C   UNL     1       5.777   5.643  18.760  0.00  0.00    +0.000 A 
ATOM     11  C   UNL     1       6.812   5.750  17.831  0.00  0.00    +0.000 A 
BRANCH   6  13
ATOM     12  C   UNL     1       7.256   5.036  14.336  0.00  0.00    +0.000 C 
ATOM     13  O   UNL     1       7.470   5.859  15.481  0.00  0.00    +0.000 OA
ENDBRANCH   6  13
ENDBRANCH   1   9
BRANCH   2  14
ATOM     14  C   UNL     1       2.134   7.486  19.478  0.00  0.00    +0.000 A 
ATOM     15  C   UNL     1       2.249   7.872  18.131  0.00  0.00    +0.000 A 
ATOM     16  C   UNL     1       1.791   9.119  17.695  0.00  0.00    +0.000 A 
ATOM     17  C   UNL     1       1.271  10.014  18.622  0.00  0.00    +0.000 A 
ATOM     18  C   UNL     1       1.223   9.693  19.974  0.00  0.00    +0.000 A 
ATOM     19  C   UNL     1       1.637   8.427  20.397  0.00  0.00    +0.000 A 
BRANCH  17  20
ATOM     20  O   UNL     1       0.766  11.220  18.239  0.00  0.00    +0.000 OA
ATOM     21  H   UNL     1       0.979  11.882  18.918  0.00  0.00    +0.000 HD
ENDBRANCH  17  20
BRANCH  19  22
ATOM     22  O   UNL     1       1.489   8.096  21.716  0.00  0.00    +0.000 OA
ATOM     23  H   UNL     1       0.582   8.297  22.001  0.00  0.00    +0.000 HD
ENDBRANCH  19  22
ENDBRANCH   2  14
BRANCH   5  24
ATOM     24  N   UNL     1       3.680   2.742  19.776  0.00  0.00    +0.000 N 
ATOM     25  C   UNL     1       3.468   1.828  18.791  0.00  0.00    +0.000 C 
ATOM     26  C   UNL     1       2.610   2.118  17.592  0.00  0.00    +0.000 C 
ATOM     27  O   UNL     1       4.007   0.720  18.911  0.00  0.00    +0.000 OA
ATOM     28  H   UNL     1       4.351   2.439  20.463  0.00  0.00    +0.000 HD
ENDBRANCH   5  24
TORSDOF 6
ENDMDL
MODEL 2
REMARK VINA RESULT:      -8.0      2.266      5.605
REMARK  Name = 
REMARK  8 active torsions:
REMARK  status: ('A' for Active; 'I' for Inactive)
REMARK    1  A    between atoms: C_1  and  O_2
REMARK    2  A    between atoms: O_2  and  C_3
REMARK    3  A    between atoms: C_6  and  C_7
REMARK    4  A    between atoms: C_8  and  C_9
REMARK    5  A    between atoms: C_12  and  O_13
REMARK    6  A    between atoms: C_15  and  O_16
REMARK    7  A    between atoms: C_19  and  N_20
REMARK    8  A    between atoms: C_21  and  C_22
REMARK                            x       y       z     vdW  Elec       q    Type
REMARK                         _______ _______ _______ _____ _____    ______ ____
ROOT
ATOM      1  C   UNL     1       3.741   5.252  17.761  0.00  0.00    +0.000 A 
ATOM      2  C   UNL     1       5.128   5.086  17.382  0.00  0.00    +0.000 A 
ATOM      3  N   UNL     1       5.292   3.930  16.729  0.00  0.00    +0.000 NA
ATOM      4  O   UNL     1       4.072   3.296  16.747  0.00  0.00    +0.000 OA
ATOM      5  C   UNL     1       3.152   4.055  17.392  0.00  0.00    +0.000 A 
ENDROOT
BRANCH   1   9
ATOM      6  C   UNL     1       1.652   8.430  19.726  0.00  0.00    +0.000 A 
ATOM      7  C   UNL     1       1.939   7.252  20.415  0.00  0.00    +0.000 A 
ATOM      8  C   UNL     1       2.629   6.209  19.786  0.00  0.00    +0.000 A 
ATOM      9  C   UNL     1       3.072   6.347  18.462  0.00  0.00    +0.000 A 
ATOM     10  C   UNL     1       2.785   7.542  17.787  0.00  0.00    +0.000 A 
ATOM     11  C   UNL     1       2.048   8.556  18.399  0.00  0.00    +0.000 A 
BRANCH   6  13
ATOM     12  C   UNL     1       1.064   9.278  21.842  0.00  0.00    +0.000 C 
ATOM     13  O   UNL     1       0.960   9.380  20.424  0.00  0.00    +0.000 OA
ENDBRANCH   6  13
ENDBRANCH   1   9
BRANCH   2  14
ATOM     14  C   UNL     1       6.249   5.999  17.641  0.00  0.00    +0.000 A 
ATOM     15  C   UNL     1       6.291   7.251  17.003  0.00  0.00    +0.000 A 
ATOM     16  C   UNL     1       7.205   8.233  17.398  0.00  0.00    +0.000 A 
ATOM     17  C   UNL     1       8.126   7.941  18.396  0.00  0.00    +0.000 A 
ATOM     18  C   UNL     1       8.165   6.683  18.986  0.00  0.00    +0.000 A 
ATOM     19  C   UNL     1       7.217   5.722  18.622  0.00  0.00    +0.000 A 
BRANCH  17  20
ATOM     20  O   UNL     1       9.003   8.881  18.850  0.00  0.00    +0.000 OA
ATOM     21  H   UNL     1       9.214   9.492  18.123  0.00  0.00    +0.000 HD
ENDBRANCH  17  20
BRANCH  19  22
ATOM     22  O   UNL     1       7.210   4.525  19.286  0.00  0.00    +0.000 OA
ATOM     23  H   UNL     1       6.421   4.472  19.850  0.00  0.00    +0.000 HD
ENDBRANCH  19  22
ENDBRANCH   2  14
BRANCH   5  24
ATOM     24  N   UNL     1       1.872   3.585  17.576  0.00  0.00    +0.000 N 
ATOM     25  C   UNL     1       1.379   2.806  18.575  0.00  0.00    +0.000 C 
ATOM     26  C   UNL     1       2.199   2.413  19.772  0.00  0.00    +0.000 C 
ATOM     27  O   UNL     1       0.210   2.410  18.471  0.00  0.00    +0.000 OA
ATOM     28  H   UNL     1       1.180   3.842  16.892  0.00  0.00    +0.000 HD
ENDBRANCH   5  24
TORSDOF 6
ENDMDL
MODEL 3
REMARK VINA RESULT:      -7.8      2.211      5.444
REMARK  Name = 
REMARK  8 active torsions:
REMARK  status: ('A' for Active; 'I' for Inactive)
REMARK    1  A    between atoms: C_1  and  O_2
REMARK    2  A    between atoms: O_2  and  C_3
REMARK    3  A    between atoms: C_6  and  C_7
REMARK    4  A    between atoms: C_8  and  C_9
REMARK    5  A    between atoms: C_12  and  O_13
REMARK    6  A    between atoms: C_15  and  O_16
REMARK    7  A    between atoms: C_19  and  N_20
REMARK    8  A    between atoms: C_21  and  C_22
REMARK                            x       y       z     vdW  Elec       q    Type
REMARK                         _______ _______ _______ _____ _____    ______ ____
ROOT
ATOM      1  C   UNL     1       3.598   5.169  17.785  0.00  0.00    +0.000 A 
ATOM      2  C   UNL     1       4.990   4.997  17.428  0.00  0.00    +0.000 A 
ATOM      3  N   UNL     1       5.186   3.779  16.909  0.00  0.00    +0.000 NA
ATOM      4  O   UNL     1       3.981   3.121  16.997  0.00  0.00    +0.000 OA
ATOM      5  C   UNL     1       3.040   3.924  17.551  0.00  0.00    +0.000 A 
ENDROOT
BRANCH   1   9
ATOM      6  C   UNL     1       1.686   8.570  19.545  0.00  0.00    +0.000 A 
ATOM      7  C   UNL     1       2.043   8.590  18.197  0.00  0.00    +0.000 A 
ATOM      8  C   UNL     1       2.661   7.480  17.608  0.00  0.00    +0.000 A 
ATOM      9  C   UNL     1       2.900   6.319  18.357  0.00  0.00    +0.000 A 
ATOM     10  C   UNL     1       2.525   6.312  19.709  0.00  0.00    +0.000 A 
ATOM     11  C   UNL     1       1.961   7.439  20.306  0.00  0.00    +0.000 A 
BRANCH   6  13
ATOM     12  C   UNL     1      -0.015  10.177  19.278  0.00  0.00    +0.000 C 
ATOM     13  O   UNL     1       1.104   9.710  20.029  0.00  0.00    +0.000 OA
ENDBRANCH   6  13
ENDBRANCH   1   9
BRANCH   2  14
ATOM     14  C   UNL     1       6.087   5.960  17.585  0.00  0.00    +0.000 A 
ATOM     15  C   UNL     1       6.051   7.178  16.882  0.00  0.00    +0.000 A 
ATOM     16  C   UNL     1       6.946   8.211  17.181  0.00  0.00    +0.000 A 
ATOM     17  C   UNL     1       7.925   8.004  18.145  0.00  0.00    +0.000 A 
ATOM     18  C   UNL     1       8.039   6.781  18.796  0.00  0.00    +0.000 A 
ATOM     19  C   UNL     1       7.111   5.770  18.529  0.00  0.00    +0.000 A 
BRANCH  17  20
ATOM     20  O   UNL     1       8.786   8.997  18.507  0.00  0.00    +0.000 OA
ATOM     21  H   UNL     1       9.436   9.125  17.796  0.00  0.00    +0.000 HD
ENDBRANCH  17  20
BRANCH  19  22
ATOM     22  O   UNL     1       7.181   4.610  19.252  0.00  0.00    +0.000 OA
ATOM     23  H   UNL     1       7.912   4.064  18.920  0.00  0.00    +0.000 HD
ENDBRANCH  19  22
ENDBRANCH   2  14
BRANCH   5  24
ATOM     24  N   UNL     1       1.771   3.447  17.786  0.00  0.00    +0.000 N 
ATOM     25  C   UNL     1       1.287   2.796  18.877  0.00  0.00    +0.000 C 
ATOM     26  C   UNL     1       2.101   2.594  20.124  0.00  0.00    +0.000 C 
ATOM     27  O   UNL     1       0.131   2.356  18.817  0.00  0.00    +0.000 OA
ATOM     28  H   UNL     1       1.081   3.588  17.066  0.00  0.00    +0.000 HD
ENDBRANCH   5  24
TORSDOF 6
ENDMDL
MODEL 4
REMARK VINA RESULT:      -7.1      2.004      5.299
REMARK  Name = 
REMARK  8 active torsions:
REMARK  status: ('A' for Active; 'I' for Inactive)
REMARK    1  A    between atoms: C_1  and  O_2
REMARK    2  A    between atoms: O_2  and  C_3
REMARK    3  A    between atoms: C_6  and  C_7
REMARK    4  A    between atoms: C_8  and  C_9
REMARK    5  A    between atoms: C_12  and  O_13
REMARK    6  A    between atoms: C_15  and  O_16
REMARK    7  A    between atoms: C_19  and  N_20
REMARK    8  A    between atoms: C_21  and  C_22
REMARK                            x       y       z     vdW  Elec       q    Type
REMARK                         _______ _______ _______ _____ _____    ______ ____
ROOT
ATOM      1  C   UNL     1       4.043   4.972  19.230  0.00  0.00    +0.000 A 
ATOM      2  C   UNL     1       5.449   4.819  18.918  0.00  0.00    +0.000 A 
ATOM      3  N   UNL     1       5.823   3.546  19.090  0.00  0.00    +0.000 NA
ATOM      4  O   UNL     1       4.726   2.882  19.587  0.00  0.00    +0.000 OA
ATOM      5  C   UNL     1       3.674   3.728  19.711  0.00  0.00    +0.000 A 
ENDROOT
BRANCH   1   9
ATOM      6  C   UNL     1       1.628   8.505  19.151  0.00  0.00    +0.000 A 
ATOM      7  C   UNL     1       2.265   8.068  17.989  0.00  0.00    +0.000 A 
ATOM      8  C   UNL     1       3.050   6.910  18.000  0.00  0.00    +0.000 A 
ATOM      9  C   UNL     1       3.181   6.152  19.173  0.00  0.00    +0.000 A 
ATOM     10  C   UNL     1       2.526   6.599  20.330  0.00  0.00    +0.000 A 
ATOM     11  C   UNL     1       1.790   7.784  20.329  0.00  0.00    +0.000 A 
BRANCH   6  13
ATOM     12  C   UNL     1       0.717  10.373  20.258  0.00  0.00    +0.000 C 
ATOM     13  O   UNL     1       0.899   9.657  19.038  0.00  0.00    +0.000 OA
ENDBRANCH   6  13
ENDBRANCH   1   9
BRANCH   2  14
ATOM     14  C   UNL     1       6.393   5.855  18.480  0.00  0.00    +0.000 A 
ATOM     15  C   UNL     1       6.078   6.662  17.372  0.00  0.00    +0.000 A 
ATOM     16  C   UNL     1       6.831   7.801  17.071  0.00  0.00    +0.000 A 
ATOM     17  C   UNL     1       7.946   8.102  17.844  0.00  0.00    +0.000 A 
ATOM     18  C   UNL     1       8.332   7.275  18.893  0.00  0.00    +0.000 A 
ATOM     19  C   UNL     1       7.547   6.166  19.220  0.00  0.00    +0.000 A 
BRANCH  17  20
ATOM     20  O   UNL     1       8.681   9.228  17.621  0.00  0.00    +0.000 OA
ATOM     21  H   UNL     1       8.394   9.632  16.784  0.00  0.00    +0.000 HD
ENDBRANCH  17  20
BRANCH  19  22
ATOM     22  O   UNL     1       7.890   5.423  20.317  0.00  0.00    +0.000 OA
ATOM     23  H   UNL     1       8.216   6.010  21.018  0.00  0.00    +0.000 HD
ENDBRANCH  19  22
ENDBRANCH   2  14
BRANCH   5  24
ATOM     24  N   UNL     1       2.486   3.285  20.244  0.00  0.00    +0.000 N 
ATOM     25  C   UNL     1       1.288   3.094  19.630  0.00  0.00    +0.000 C 
ATOM     26  C   UNL     1       1.109   3.239  18.145  0.00  0.00    +0.000 C 
ATOM     27  O   UNL     1       0.320   2.794  20.342  0.00  0.00    +0.000 OA
ATOM     28  H   UNL     1       2.472   3.059  21.225  0.00  0.00    +0.000 HD
ENDBRANCH   5  24
TORSDOF 6
ENDMDL
MODEL 5
REMARK VINA RESULT:      -6.8      0.993      1.461
REMARK  Name = 
REMARK  8 active torsions:
REMARK  status: ('A' for Active; 'I' for Inactive)
REMARK    1  A    between atoms: C_1  and  O_2
REMARK    2  A    between atoms: O_2  and  C_3
REMARK    3  A    between atoms: C_6  and  C_7
REMARK    4  A    between atoms: C_8  and  C_9
REMARK    5  A    between atoms: C_12  and  O_13
REMARK    6  A    between atoms: C_15  and  O_16
REMARK    7  A    between atoms: C_19  and  N_20
REMARK    8  A    between atoms: C_21  and  C_22
REMARK                            x       y       z     vdW  Elec       q    Type
REMARK                         _______ _______ _______ _____ _____    ______ ____
ROOT
ATOM      1  C   UNL     1       3.156   5.322  19.536  0.00  0.00    +0.000 A 
ATOM      2  C   UNL     1       2.030   6.127  19.964  0.00  0.00    +0.000 A 
ATOM      3  N   UNL     1       1.160   5.374  20.647  0.00  0.00    +0.000 NA
ATOM      4  O   UNL     1       1.640   4.086  20.603  0.00  0.00    +0.000 OA
ATOM      5  C   UNL     1       2.806   4.037  19.912  0.00  0.00    +0.000 A 
ENDROOT
BRANCH   1   9
ATOM      6  C   UNL     1       6.637   6.557  17.373  0.00  0.00    +0.000 A 
ATOM      7  C   UNL     1       6.767   5.988  18.640  0.00  0.00    +0.000 A 
ATOM      8  C   UNL     1       5.637   5.572  19.353  0.00  0.00    +0.000 A 
ATOM      9  C   UNL     1       4.358   5.692  18.790  0.00  0.00    +0.000 A 
ATOM     10  C   UNL     1       4.245   6.256  17.511  0.00  0.00    +0.000 A 
ATOM     11  C   UNL     1       5.369   6.721  16.827  0.00  0.00    +0.000 A 
BRANCH   6  13
ATOM     12  C   UNL     1       8.335   8.183  17.234  0.00  0.00    +0.000 C 
ATOM     13  O   UNL     1       7.800   6.946  16.768  0.00  0.00    +0.000 OA
ENDBRANCH   6  13
ENDBRANCH   1   9
BRANCH   2  14
ATOM     14  C   UNL     1       1.800   7.556  19.720  0.00  0.00    +0.000 A 
ATOM     15  C   UNL     1       1.804   8.048  18.403  0.00  0.00    +0.000 A 
ATOM     16  C   UNL     1       1.360   9.343  18.115  0.00  0.00    +0.000 A 
ATOM     17  C   UNL     1       0.968  10.175  19.157  0.00  0.00    +0.000 A 
ATOM     18  C   UNL     1       1.034   9.744  20.477  0.00  0.00    +0.000 A 
ATOM     19  C   UNL     1       1.431   8.433  20.755  0.00  0.00    +0.000 A 
BRANCH  17  20
ATOM     20  O   UNL     1       0.480  11.426  18.921  0.00  0.00    +0.000 OA
ATOM     21  H   UNL     1       0.745  11.704  18.029  0.00  0.00    +0.000 HD
ENDBRANCH  17  20
BRANCH  19  22
ATOM     22  O   UNL     1       1.394   7.999  22.053  0.00  0.00    +0.000 OA
ATOM     23  H   UNL     1       1.615   8.735  22.647  0.00  0.00    +0.000 HD
ENDBRANCH  19  22
ENDBRANCH   2  14
BRANCH   5  24
ATOM     24  N   UNL     1       3.435   2.832  19.697  0.00  0.00    +0.000 N 
ATOM     25  C   UNL     1       3.364   2.008  18.618  0.00  0.00    +0.000 C 
ATOM     26  C   UNL     1       2.625   2.381  17.364  0.00  0.00    +0.000 C 
ATOM     27  O   UNL     1       3.932   0.911  18.696  0.00  0.00    +0.000 OA
ATOM     28  H   UNL     1       4.042   2.488  20.423  0.00  0.00    +0.000 HD
ENDBRANCH   5  24
TORSDOF 6
ENDMDL
MODEL 6
REMARK VINA RESULT:      -6.8      0.796      1.344
REMARK  Name = 
REMARK  8 active torsions:
REMARK  status: ('A' for Active; 'I' for Inactive)
REMARK    1  A    between atoms: C_1  and  O_2
REMARK    2  A    between atoms: O_2  and  C_3
REMARK    3  A    between atoms: C_6  and  C_7
REMARK    4  A    between atoms: C_8  and  C_9
REMARK    5  A    between atoms: C_12  and  O_13
REMARK    6  A    between atoms: C_15  and  O_16
REMARK    7  A    between atoms: C_19  and  N_20
REMARK    8  A    between atoms: C_21  and  C_22
REMARK                            x       y       z     vdW  Elec       q    Type
REMARK                         _______ _______ _______ _____ _____    ______ ____
ROOT
ATOM      1  C   UNL     1       3.001   4.796  18.819  0.00  0.00    +0.000 A 
ATOM      2  C   UNL     1       2.090   5.764  19.392  0.00  0.00    +0.000 A 
ATOM      3  N   UNL     1       1.199   5.148  20.178  0.00  0.00    +0.000 NA
ATOM      4  O   UNL     1       1.447   3.800  20.066  0.00  0.00    +0.000 OA
ATOM      5  C   UNL     1       2.491   3.577  19.231  0.00  0.00    +0.000 A 
ENDROOT
BRANCH   1   9
ATOM      6  C   UNL     1       6.260   5.441  16.119  0.00  0.00    +0.000 A 
ATOM      7  C   UNL     1       6.322   5.939  17.421  0.00  0.00    +0.000 A 
ATOM      8  C   UNL     1       5.266   5.727  18.316  0.00  0.00    +0.000 A 
ATOM      9  C   UNL     1       4.144   4.981  17.926  0.00  0.00    +0.000 A 
ATOM     10  C   UNL     1       4.102   4.478  16.618  0.00  0.00    +0.000 A 
ATOM     11  C   UNL     1       5.131   4.739  15.712  0.00  0.00    +0.000 A 
BRANCH   6  13
ATOM     12  C   UNL     1       7.333   5.047  14.061  0.00  0.00    +0.000 C 
ATOM     13  O   UNL     1       7.334   5.717  15.319  0.00  0.00    +0.000 OA
ENDBRANCH   6  13
ENDBRANCH   1   9
BRANCH   2  14
ATOM     14  C   UNL     1       2.073   7.218  19.188  0.00  0.00    +0.000 A 
ATOM     15  C   UNL     1       2.297   7.744  17.904  0.00  0.00    +0.000 A 
ATOM     16  C   UNL     1       2.058   9.094  17.625  0.00  0.00    +0.000 A 
ATOM     17  C   UNL     1       1.654   9.939  18.651  0.00  0.00    +0.000 A 
ATOM     18  C   UNL     1       1.507   9.465  19.950  0.00  0.00    +0.000 A 
ATOM     19  C   UNL     1       1.699   8.105  20.212  0.00  0.00    +0.000 A 
BRANCH  17  20
ATOM     20  O   UNL     1       1.360  11.249  18.417  0.00  0.00    +0.000 OA
ATOM     21  H   UNL     1       0.424  11.323  18.168  0.00  0.00    +0.000 HD
ENDBRANCH  17  20
BRANCH  19  22
ATOM     22  O   UNL     1       1.452   7.642  21.476  0.00  0.00    +0.000 OA
ATOM     23  H   UNL     1       1.992   6.852  21.643  0.00  0.00    +0.000 HD
ENDBRANCH  19  22
ENDBRANCH   2  14
BRANCH   5  24
ATOM     24  N   UNL     1       2.876   2.291  18.930  0.00  0.00    +0.000 N 
ATOM     25  C   UNL     1       3.946   1.587  19.386  0.00  0.00    +0.000 C 
ATOM     26  C   UNL     1       4.863   2.113  20.454  0.00  0.00    +0.000 C 
ATOM     27  O   UNL     1       4.158   0.475  18.885  0.00  0.00    +0.000 OA
ATOM     28  H   UNL     1       2.302   1.772  18.286  0.00  0.00    +0.000 HD
ENDBRANCH   5  24
TORSDOF 6
ENDMDL
MODEL 7
REMARK VINA RESULT:      -6.7      3.465      8.126
REMARK  Name = 
REMARK  8 active torsions:
REMARK  status: ('A' for Active; 'I' for Inactive)
REMARK    1  A    between atoms: C_1  and  O_2
REMARK    2  A    between atoms: O_2  and  C_3
REMARK    3  A    between atoms: C_6  and  C_7
REMARK    4  A    between atoms: C_8  and  C_9
REMARK    5  A    between atoms: C_12  and  O_13
REMARK    6  A    between atoms: C_15  and  O_16
REMARK    7  A    between atoms: C_19  and  N_20
REMARK    8  A    between atoms: C_21  and  C_22
REMARK                            x       y       z     vdW  Elec       q    Type
REMARK                         _______ _______ _______ _____ _____    ______ ____
ROOT
ATOM      1  C   UNL     1      -0.222  10.129  20.594  0.00  0.00    +0.000 A 
ATOM      2  C   UNL     1       0.897   9.228  20.766  0.00  0.00    +0.000 A 
ATOM      3  N   UNL     1       1.260   9.184  22.053  0.00  0.00    +0.000 NA
ATOM      4  O   UNL     1       0.468  10.095  22.712  0.00  0.00    +0.000 OA
ATOM      5  C   UNL     1      -0.390  10.691  21.848  0.00  0.00    +0.000 A 
ENDROOT
BRANCH   1   9
ATOM      6  C   UNL     1      -2.293  11.181  16.998  0.00  0.00    +0.000 A 
ATOM      7  C   UNL     1      -2.453   9.910  17.550  0.00  0.00    +0.000 A 
ATOM      8  C   UNL     1      -1.788   9.557  18.731  0.00  0.00    +0.000 A 
ATOM      9  C   UNL     1      -0.976  10.489  19.394  0.00  0.00    +0.000 A 
ATOM     10  C   UNL     1      -0.835  11.766  18.832  0.00  0.00    +0.000 A 
ATOM     11  C   UNL     1      -1.454  12.095  17.626  0.00  0.00    +0.000 A 
BRANCH   6  13
ATOM     12  C   UNL     1      -3.039  10.311  14.941  0.00  0.00    +0.000 C 
ATOM     13  O   UNL     1      -2.972  11.420  15.835  0.00  0.00    +0.000 OA
ENDBRANCH   6  13
ENDBRANCH   1   9
BRANCH   2  14
ATOM     14  C   UNL     1       1.592   8.446  19.735  0.00  0.00    +0.000 A 
ATOM     15  C   UNL     1       1.904   9.043  18.500  0.00  0.00    +0.000 A 
ATOM     16  C   UNL     1       2.763   8.416  17.592  0.00  0.00    +0.000 A 
ATOM     17  C   UNL     1       3.265   7.155  17.890  0.00  0.00    +0.000 A 
ATOM     18  C   UNL     1       2.905   6.503  19.065  0.00  0.00    +0.000 A 
ATOM     19  C   UNL     1       2.086   7.155  19.991  0.00  0.00    +0.000 A 
BRANCH  17  20
ATOM     20  O   UNL     1       4.145   6.526  17.061  0.00  0.00    +0.000 OA
ATOM     21  H   UNL     1       4.388   5.669  17.450  0.00  0.00    +0.000 HD
ENDBRANCH  17  20
BRANCH  19  22
ATOM     22  O   UNL     1       1.826   6.537  21.184  0.00  0.00    +0.000 OA
ATOM     23  H   UNL     1       2.476   6.823  21.846  0.00  0.00    +0.000 HD
ENDBRANCH  19  22
ENDBRANCH   2  14
BRANCH   5  24
ATOM     24  N   UNL     1      -1.240  11.680  22.286  0.00  0.00    +0.000 N 
ATOM     25  C   UNL     1      -1.028  13.021  22.364  0.00  0.00    +0.000 C 
ATOM     26  C   UNL     1       0.217  13.674  21.833  0.00  0.00    +0.000 C 
ATOM     27  O   UNL     1      -1.904  13.710  22.902  0.00  0.00    +0.000 OA
ATOM     28  H   UNL     1      -2.156  11.403  22.596  0.00  0.00    +0.000 HD
ENDBRANCH   5  24
TORSDOF 6
ENDMDL
MODEL 8
REMARK VINA RESULT:      -6.7      3.195      5.676
REMARK  Name = 
REMARK  8 active torsions:
REMARK  status: ('A' for Active; 'I' for Inactive)
REMARK    1  A    between atoms: C_1  and  O_2
REMARK    2  A    between atoms: O_2  and  C_3
REMARK    3  A    between atoms: C_6  and  C_7
REMARK    4  A    between atoms: C_8  and  C_9
REMARK    5  A    between atoms: C_12  and  O_13
REMARK    6  A    between atoms: C_15  and  O_16
REMARK    7  A    between atoms: C_19  and  N_20
REMARK    8  A    between atoms: C_21  and  C_22
REMARK                            x       y       z     vdW  Elec       q    Type
REMARK                         _______ _______ _______ _____ _____    ______ ____
ROOT
ATOM      1  C   UNL     1       6.076   5.019  16.580  0.00  0.00    +0.000 A 
ATOM      2  C   UNL     1       4.998   4.155  17.014  0.00  0.00    +0.000 A 
ATOM      3  N   UNL     1       4.661   3.311  16.033  0.00  0.00    +0.000 NA
ATOM      4  O   UNL     1       5.426   3.655  14.943  0.00  0.00    +0.000 OA
ATOM      5  C   UNL     1       6.242   4.694  15.245  0.00  0.00    +0.000 A 
ENDROOT
BRANCH   1   9
ATOM      6  C   UNL     1       8.310   8.054  18.609  0.00  0.00    +0.000 A 
ATOM      7  C   UNL     1       7.514   8.387  17.513  0.00  0.00    +0.000 A 
ATOM      8  C   UNL     1       6.772   7.405  16.847  0.00  0.00    +0.000 A 
ATOM      9  C   UNL     1       6.792   6.076  17.293  0.00  0.00    +0.000 A 
ATOM     10  C   UNL     1       7.589   5.759  18.402  0.00  0.00    +0.000 A 
ATOM     11  C   UNL     1       8.371   6.730  19.029  0.00  0.00    +0.000 A 
BRANCH   6  13
ATOM     12  C   UNL     1       8.984  10.304  18.444  0.00  0.00    +0.000 C 
ATOM     13  O   UNL     1       9.008   9.083  19.179  0.00  0.00    +0.000 OA
ENDBRANCH   6  13
ENDBRANCH   1   9
BRANCH   2  14
ATOM     14  C   UNL     1       4.318   4.147  18.316  0.00  0.00    +0.000 A 
ATOM     15  C   UNL     1       3.861   5.356  18.871  0.00  0.00    +0.000 A 
ATOM     16  C   UNL     1       3.010   5.364  19.981  0.00  0.00    +0.000 A 
ATOM     17  C   UNL     1       2.664   4.159  20.581  0.00  0.00    +0.000 A 
ATOM     18  C   UNL     1       3.170   2.955  20.106  0.00  0.00    +0.000 A 
ATOM     19  C   UNL     1       3.979   2.948  18.967  0.00  0.00    +0.000 A 
BRANCH  17  20
ATOM     20  O   UNL     1       1.799   4.113  21.633  0.00  0.00    +0.000 OA
ATOM     21  H   UNL     1       1.488   3.199  21.746  0.00  0.00    +0.000 HD
ENDBRANCH  17  20
BRANCH  19  22
ATOM     22  O   UNL     1       4.385   1.744  18.458  0.00  0.00    +0.000 OA
ATOM     23  H   UNL     1       5.268   1.529  18.800  0.00  0.00    +0.000 HD
ENDBRANCH  19  22
ENDBRANCH   2  14
BRANCH   5  24
ATOM     24  N   UNL     1       7.058   5.238  14.280  0.00  0.00    +0.000 N 
ATOM     25  C   UNL     1       7.268   4.825  13.001  0.00  0.00    +0.000 C 
ATOM     26  C   UNL     1       6.493   3.699  12.378  0.00  0.00    +0.000 C 
ATOM     27  O   UNL     1       8.141   5.410  12.346  0.00  0.00    +0.000 OA
ATOM     28  H   UNL     1       7.583   6.062  14.525  0.00  0.00    +0.000 HD
ENDBRANCH   5  24
TORSDOF 6
ENDMDL
MODEL 9
REMARK VINA RESULT:      -6.6      4.047      8.585
REMARK  Name = 
REMARK  8 active torsions:
REMARK  status: ('A' for Active; 'I' for Inactive)
REMARK    1  A    between atoms: C_1  and  O_2
REMARK    2  A    between atoms: O_2  and  C_3
REMARK    3  A    between atoms: C_6  and  C_7
REMARK    4  A    between atoms: C_8  and  C_9
REMARK    5  A    between atoms: C_12  and  O_13
REMARK    6  A    between atoms: C_15  and  O_16
REMARK    7  A    between atoms: C_19  and  N_20
REMARK    8  A    between atoms: C_21  and  C_22
REMARK                            x       y       z     vdW  Elec       q    Type
REMARK                         _______ _______ _______ _____ _____    ______ ____
ROOT
ATOM      1  C   UNL     1      -0.566  10.889  20.014  0.00  0.00    +0.000 A 
ATOM      2  C   UNL     1       0.617  10.138  20.379  0.00  0.00    +0.000 A 
ATOM      3  N   UNL     1       1.073  10.546  21.569  0.00  0.00    +0.000 NA
ATOM      4  O   UNL     1       0.275  11.600  21.951  0.00  0.00    +0.000 OA
ATOM      5  C   UNL     1      -0.678  11.837  21.016  0.00  0.00    +0.000 A 
ENDROOT
BRANCH   1   9
ATOM      6  C   UNL     1      -3.206  10.639  16.654  0.00  0.00    +0.000 A 
ATOM      7  C   UNL     1      -2.348  11.730  16.788  0.00  0.00    +0.000 A 
ATOM      8  C   UNL     1      -1.474  11.819  17.878  0.00  0.00    +0.000 A 
ATOM      9  C   UNL     1      -1.424  10.794  18.834  0.00  0.00    +0.000 A 
ATOM     10  C   UNL     1      -2.286   9.699  18.679  0.00  0.00    +0.000 A 
ATOM     11  C   UNL     1      -3.196   9.642  17.623  0.00  0.00    +0.000 A 
BRANCH   6  13
ATOM     12  C   UNL     1      -3.473  10.097  14.378  0.00  0.00    +0.000 C 
ATOM     13  O   UNL     1      -4.033  10.656  15.564  0.00  0.00    +0.000 OA
ENDBRANCH   6  13
ENDBRANCH   1   9
BRANCH   2  14
ATOM     14  C   UNL     1       1.283   9.077  19.613  0.00  0.00    +0.000 A 
ATOM     15  C   UNL     1       1.625   9.298  18.267  0.00  0.00    +0.000 A 
ATOM     16  C   UNL     1       2.461   8.413  17.579  0.00  0.00    +0.000 A 
ATOM     17  C   UNL     1       2.908   7.264  18.220  0.00  0.00    +0.000 A 
ATOM     18  C   UNL     1       2.517   6.975  19.523  0.00  0.00    +0.000 A 
ATOM     19  C   UNL     1       1.722   7.888  20.222  0.00  0.00    +0.000 A 
BRANCH  17  20
ATOM     20  O   UNL     1       3.765   6.398  17.609  0.00  0.00    +0.000 OA
ATOM     21  H   UNL     1       4.628   6.442  18.054  0.00  0.00    +0.000 HD
ENDBRANCH  17  20
BRANCH  19  22
ATOM     22  O   UNL     1       1.431   7.632  21.534  0.00  0.00    +0.000 OA
ATOM     23  H   UNL     1       1.781   6.761  21.780  0.00  0.00    +0.000 HD
ENDBRANCH  19  22
ENDBRANCH   2  14
BRANCH   5  24
ATOM     24  N   UNL     1      -1.553  12.888  21.169  0.00  0.00    +0.000 N 
ATOM     25  C   UNL     1      -2.555  13.044  22.076  0.00  0.00    +0.000 C 
ATOM     26  C   UNL     1      -2.790  12.071  23.197  0.00  0.00    +0.000 C 
ATOM     27  O   UNL     1      -3.293  14.030  21.950  0.00  0.00    +0.000 OA
ATOM     28  H   UNL     1      -1.461  13.666  20.538  0.00  0.00    +0.000 HD
ENDBRANCH   5  24
TORSDOF 6
ENDMDL
