MODEL 1
REMARK VINA RESULT:      -9.4      0.000      0.000
REMARK  Name = 
REMARK  7 active torsions:
REMARK  status: ('A' for Active; 'I' for Inactive)
REMARK    1  A    between atoms: C_1  and  N_2
REMARK    2  A    between atoms: C_3  and  C_4
REMARK    3  A    between atoms: C_10  and  C_11
REMARK    4  A    between atoms: C_11  and  C_13
REMARK    5  A    between atoms: C_13  and  O_14
REMARK    6  A    between atoms: O_14  and  C_15
REMARK    7  A    between atoms: C_15  and  C_17
REMARK                            x       y       z     vdW  Elec       q    Type
REMARK                         _______ _______ _______ _____ _____    ______ ____
ROOT
ATOM      1  C   UNL     1      -2.168  12.497  20.148  0.00  0.00    +0.000 C 
ATOM      2  O   UNL     1      -1.541  13.112  19.280  0.00  0.00    +0.000 OA
ENDROOT
BRANCH   1   6
ATOM      3  C   UNL     1      -6.784  11.021  18.593  0.00  0.00    +0.000 C 
ATOM      4  N   UNL     1      -5.678  11.642  19.304  0.00  0.00    +0.000 N 
ATOM      5  C   UNL     1      -4.328  11.662  18.959  0.00  0.00    +0.000 A 
ATOM      6  C   UNL     1      -3.646  12.282  20.037  0.00  0.00    +0.000 A 
ATOM      7  C   UNL     1      -4.660  12.696  20.994  0.00  0.00    +0.000 A 
ATOM      8  C   UNL     1      -4.670  13.395  22.228  0.00  0.00    +0.000 A 
ATOM      9  C   UNL     1      -5.869  13.648  22.909  0.00  0.00    +0.000 A 
ATOM     10  C   UNL     1      -7.081  13.246  22.375  0.00  0.00    +0.000 A 
ATOM     11  C   UNL     1      -7.116  12.576  21.157  0.00  0.00    +0.000 A 
ATOM     12  C   UNL     1      -5.901  12.306  20.493  0.00  0.00    +0.000 A 
BRANCH   5  13
ATOM     13  C   UNL     1      -3.823  11.026  17.711  0.00  0.00    +0.000 A 
ATOM     14  C   UNL     1      -2.817  10.039  17.744  0.00  0.00    +0.000 A 
ATOM     15  C   UNL     1      -2.208   9.573  16.574  0.00  0.00    +0.000 A 
ATOM     16  C   UNL     1      -2.656  10.017  15.336  0.00  0.00    +0.000 A 
ATOM     17  C   UNL     1      -3.709  10.925  15.275  0.00  0.00    +0.000 A 
ATOM     18  C   UNL     1      -4.272  11.439  16.451  0.00  0.00    +0.000 A 
ENDBRANCH   5  13
ENDBRANCH   1   6
BRANCH   1  19
ATOM     19  C   UNL     1      -1.416  11.871  21.353  0.00  0.00    +0.000 C 
BRANCH  19  20
ATOM     20  O   UNL     1      -0.731  10.607  21.241  0.00  0.00    +0.000 OA
BRANCH  20  21
ATOM     21  C   UNL     1       0.554  10.711  20.801  0.00  0.00    +0.000 C 
ATOM     22  O   UNL     1       1.320  11.617  21.105  0.00  0.00    +0.000 OA
BRANCH  21  23
ATOM     23  C   UNL     1       1.048   9.475  20.112  0.00  0.00    +0.000 A 
ATOM     24  C   UNL     1       1.500   9.645  18.787  0.00  0.00    +0.000 A 
ATOM     25  C   UNL     1       2.171   8.628  18.121  0.00  0.00    +0.000 A 
ATOM     26  C   UNL     1       2.378   7.424  18.780  0.00  0.00    +0.000 A 
ATOM     27  C   UNL     1       3.384   6.469  18.265  0.00  0.00    +0.000 A 
ATOM     28  O   UNL     1       3.890   6.595  17.157  0.00  0.00    +0.000 OA
ATOM     29  N   UNL     1       3.690   5.475  19.151  0.00  0.00    +0.000 N 
ATOM     30  C   UNL     1       2.788   5.081  20.113  0.00  0.00    +0.000 A 
ATOM     31  N   UNL     1       1.869   5.853  20.599  0.00  0.00    +0.000 NA
ATOM     32  C   UNL     1       1.801   7.157  20.034  0.00  0.00    +0.000 A 
ATOM     33  C   UNL     1       1.164   8.212  20.716  0.00  0.00    +0.000 A 
ATOM     34  C   UNL     1       3.060   3.637  20.449  0.00  0.00    +0.000 C 
ATOM     35  C   UNL     1       4.166   3.247  19.452  0.00  0.00    +0.000 C 
ATOM     36  C   UNL     1       4.798   4.567  19.076  0.00  0.00    +0.000 C 
ENDBRANCH  21  23
ENDBRANCH  20  21
ENDBRANCH  19  20
ENDBRANCH   1  19
TORSDOF 6
ENDMDL
MODEL 2
REMARK VINA RESULT:      -9.1      1.091      4.046
REMARK  Name = 
REMARK  7 active torsions:
REMARK  status: ('A' for Active; 'I' for Inactive)
REMARK    1  A    between atoms: C_1  and  N_2
REMARK    2  A    between atoms: C_3  and  C_4
REMARK    3  A    between atoms: C_10  and  C_11
REMARK    4  A    between atoms: C_11  and  C_13
REMARK    5  A    between atoms: C_13  and  O_14
REMARK    6  A    between atoms: O_14  and  C_15
REMARK    7  A    between atoms: C_15  and  C_17
REMARK                            x       y       z     vdW  Elec       q    Type
REMARK                         _______ _______ _______ _____ _____    ______ ____
ROOT
ATOM      1  C   UNL     1      -1.336  12.243  20.937  0.00  0.00    +0.000 C 
ATOM      2  O   UNL     1      -0.856  13.350  21.204  0.00  0.00    +0.000 OA
ENDROOT
BRANCH   1   6
ATOM      3  C   UNL     1      -5.882  12.671  18.690  0.00  0.00    +0.000 C 
ATOM      4  N   UNL     1      -4.526  12.284  19.044  0.00  0.00    +0.000 N 
ATOM      5  C   UNL     1      -3.800  12.618  20.185  0.00  0.00    +0.000 A 
ATOM      6  C   UNL     1      -2.493  12.102  19.997  0.00  0.00    +0.000 A 
ATOM      7  C   UNL     1      -2.504  11.382  18.733  0.00  0.00    +0.000 A 
ATOM      8  C   UNL     1      -1.572  10.608  17.993  0.00  0.00    +0.000 A 
ATOM      9  C   UNL     1      -1.925  10.021  16.770  0.00  0.00    +0.000 A 
ATOM     10  C   UNL     1      -3.208  10.157  16.268  0.00  0.00    +0.000 A 
ATOM     11  C   UNL     1      -4.157  10.889  16.972  0.00  0.00    +0.000 A 
ATOM     12  C   UNL     1      -3.782  11.497  18.189  0.00  0.00    +0.000 A 
BRANCH   5  13
ATOM     13  C   UNL     1      -4.380  13.452  21.274  0.00  0.00    +0.000 A 
ATOM     14  C   UNL     1      -4.138  14.839  21.346  0.00  0.00    +0.000 A 
ATOM     15  C   UNL     1      -4.522  15.593  22.461  0.00  0.00    +0.000 A 
ATOM     16  C   UNL     1      -5.237  14.994  23.489  0.00  0.00    +0.000 A 
ATOM     17  C   UNL     1      -5.566  13.645  23.398  0.00  0.00    +0.000 A 
ATOM     18  C   UNL     1      -5.123  12.878  22.312  0.00  0.00    +0.000 A 
ENDBRANCH   5  13
ENDBRANCH   1   6
BRANCH   1  19
ATOM     19  C   UNL     1      -0.698  10.958  21.528  0.00  0.00    +0.000 C 
BRANCH  19  20
ATOM     20  O   UNL     1       0.711  10.685  21.396  0.00  0.00    +0.000 OA
BRANCH  20  21
ATOM     21  C   UNL     1       1.145  10.623  20.106  0.00  0.00    +0.000 C 
ATOM     22  O   UNL     1       1.472  11.595  19.437  0.00  0.00    +0.000 OA
BRANCH  21  23
ATOM     23  C   UNL     1       1.442   9.229  19.645  0.00  0.00    +0.000 A 
ATOM     24  C   UNL     1       1.861   9.097  18.305  0.00  0.00    +0.000 A 
ATOM     25  C   UNL     1       2.364   7.895  17.824  0.00  0.00    +0.000 A 
ATOM     26  C   UNL     1       2.434   6.810  18.687  0.00  0.00    +0.000 A 
ATOM     27  C   UNL     1       3.283   5.650  18.339  0.00  0.00    +0.000 A 
ATOM     28  O   UNL     1       3.758   5.506  17.220  0.00  0.00    +0.000 OA
ATOM     29  N   UNL     1       3.488   4.796  19.386  0.00  0.00    +0.000 N 
ATOM     30  C   UNL     1       2.580   4.707  20.416  0.00  0.00    +0.000 A 
ATOM     31  N   UNL     1       1.792   5.672  20.768  0.00  0.00    +0.000 NA
ATOM     32  C   UNL     1       1.875   6.853  19.977  0.00  0.00    +0.000 A 
ATOM     33  C   UNL     1       1.413   8.089  20.466  0.00  0.00    +0.000 A 
ATOM     34  C   UNL     1       2.669   3.321  21.004  0.00  0.00    +0.000 C 
ATOM     35  C   UNL     1       3.673   2.612  20.077  0.00  0.00    +0.000 C 
ATOM     36  C   UNL     1       4.461   3.744  19.461  0.00  0.00    +0.000 C 
ENDBRANCH  21  23
ENDBRANCH  20  21
ENDBRANCH  19  20
ENDBRANCH   1  19
TORSDOF 6
ENDMDL
MODEL 3
REMARK VINA RESULT:      -9.0      1.232      4.129
REMARK  Name = 
REMARK  7 active torsions:
REMARK  status: ('A' for Active; 'I' for Inactive)
REMARK    1  A    between atoms: C_1  and  N_2
REMARK    2  A    between atoms: C_3  and  C_4
REMARK    3  A    between atoms: C_10  and  C_11
REMARK    4  A    between atoms: C_11  and  C_13
REMARK    5  A    between atoms: C_13  and  O_14
REMARK    6  A    between atoms: O_14  and  C_15
REMARK    7  A    between atoms: C_15  and  C_17
REMARK                            x       y       z     vdW  Elec       q    Type
REMARK                         _______ _______ _______ _____ _____    ______ ____
ROOT
ATOM      1  C   UNL     1      -0.835  12.638  20.601  0.00  0.00    +0.000 C 
ATOM      2  O   UNL     1      -0.054  13.471  20.129  0.00  0.00    +0.000 OA
ENDROOT
BRANCH   1   6
ATOM      3  C   UNL     1      -5.747  12.492  19.280  0.00  0.00    +0.000 C 
ATOM      4  N   UNL     1      -4.318  12.246  19.386  0.00  0.00    +0.000 N 
ATOM      5  C   UNL     1      -3.421  12.747  20.328  0.00  0.00    +0.000 A 
ATOM      6  C   UNL     1      -2.132  12.316  19.925  0.00  0.00    +0.000 A 
ATOM      7  C   UNL     1      -2.317  11.475  18.753  0.00  0.00    +0.000 A 
ATOM      8  C   UNL     1      -1.476  10.706  17.908  0.00  0.00    +0.000 A 
ATOM      9  C   UNL     1      -2.000   9.976  16.832  0.00  0.00    +0.000 A 
ATOM     10  C   UNL     1      -3.362   9.963  16.587  0.00  0.00    +0.000 A 
ATOM     11  C   UNL     1      -4.223  10.687  17.403  0.00  0.00    +0.000 A 
ATOM     12  C   UNL     1      -3.681  11.438  18.468  0.00  0.00    +0.000 A 
BRANCH   5  13
ATOM     13  C   UNL     1      -3.858  13.637  21.439  0.00  0.00    +0.000 A 
ATOM     14  C   UNL     1      -3.812  15.041  21.317  0.00  0.00    +0.000 A 
ATOM     15  C   UNL     1      -4.042  15.880  22.413  0.00  0.00    +0.000 A 
ATOM     16  C   UNL     1      -4.413  15.335  23.636  0.00  0.00    +0.000 A 
ATOM     17  C   UNL     1      -4.551  13.956  23.757  0.00  0.00    +0.000 A 
ATOM     18  C   UNL     1      -4.257  13.115  22.676  0.00  0.00    +0.000 A 
ENDBRANCH   5  13
ENDBRANCH   1   6
BRANCH   1  19
ATOM     19  C   UNL     1      -0.451  11.853  21.884  0.00  0.00    +0.000 C 
BRANCH  19  20
ATOM     20  O   UNL     1       0.677  10.956  21.911  0.00  0.00    +0.000 OA
BRANCH  20  21
ATOM     21  C   UNL     1       0.340   9.646  22.075  0.00  0.00    +0.000 C 
ATOM     22  O   UNL     1      -0.505   9.242  22.864  0.00  0.00    +0.000 OA
BRANCH  21  23
ATOM     23  C   UNL     1       0.906   8.749  21.017  0.00  0.00    +0.000 A 
ATOM     24  C   UNL     1       1.178   9.356  19.773  0.00  0.00    +0.000 A 
ATOM     25  C   UNL     1       1.893   8.687  18.788  0.00  0.00    +0.000 A 
ATOM     26  C   UNL     1       2.328   7.394  19.044  0.00  0.00    +0.000 A 
ATOM     27  C   UNL     1       3.383   6.795  18.197  0.00  0.00    +0.000 A 
ATOM     28  O   UNL     1       3.738   7.307  17.144  0.00  0.00    +0.000 OA
ATOM     29  N   UNL     1       3.914   5.651  18.724  0.00  0.00    +0.000 N 
ATOM     30  C   UNL     1       3.187   4.865  19.588  0.00  0.00    +0.000 A 
ATOM     31  N   UNL     1       2.238   5.313  20.346  0.00  0.00    +0.000 NA
ATOM     32  C   UNL     1       1.937   6.697  20.200  0.00  0.00    +0.000 A 
ATOM     33  C   UNL     1       1.253   7.402  21.208  0.00  0.00    +0.000 A 
ATOM     34  C   UNL     1       3.680   3.445  19.459  0.00  0.00    +0.000 C 
ATOM     35  C   UNL     1       4.705   3.533  18.314  0.00  0.00    +0.000 C 
ATOM     36  C   UNL     1       5.114   4.987  18.303  0.00  0.00    +0.000 C 
ENDBRANCH  21  23
ENDBRANCH  20  21
ENDBRANCH  19  20
ENDBRANCH   1  19
TORSDOF 6
ENDMDL
MODEL 4
REMARK VINA RESULT:      -9.0      1.048      1.470
REMARK  Name = 
REMARK  7 active torsions:
REMARK  status: ('A' for Active; 'I' for Inactive)
REMARK    1  A    between atoms: C_1  and  N_2
REMARK    2  A    between atoms: C_3  and  C_4
REMARK    3  A    between atoms: C_10  and  C_11
REMARK    4  A    between atoms: C_11  and  C_13
REMARK    5  A    between atoms: C_13  and  O_14
REMARK    6  A    between atoms: O_14  and  C_15
REMARK    7  A    between atoms: C_15  and  C_17
REMARK                            x       y       z     vdW  Elec       q    Type
REMARK                         _______ _______ _______ _____ _____    ______ ____
ROOT
ATOM      1  C   UNL     1      -0.658  13.026  20.019  0.00  0.00    +0.000 C 
ATOM      2  O   UNL     1      -0.237  13.353  18.904  0.00  0.00    +0.000 OA
ENDROOT
BRANCH   1   6
ATOM      3  C   UNL     1      -5.632  11.954  19.952  0.00  0.00    +0.000 C 
ATOM      4  N   UNL     1      -4.326  12.524  20.243  0.00  0.00    +0.000 N 
ATOM      5  C   UNL     1      -3.122  12.314  19.574  0.00  0.00    +0.000 A 
ATOM      6  C   UNL     1      -2.124  12.993  20.319  0.00  0.00    +0.000 A 
ATOM      7  C   UNL     1      -2.805  13.675  21.409  0.00  0.00    +0.000 A 
ATOM      8  C   UNL     1      -2.423  14.545  22.462  0.00  0.00    +0.000 A 
ATOM      9  C   UNL     1      -3.368  15.052  23.364  0.00  0.00    +0.000 A 
ATOM     10  C   UNL     1      -4.709  14.738  23.229  0.00  0.00    +0.000 A 
ATOM     11  C   UNL     1      -5.128  13.904  22.198  0.00  0.00    +0.000 A 
ATOM     12  C   UNL     1      -4.163  13.381  21.312  0.00  0.00    +0.000 A 
BRANCH   5  13
ATOM     13  C   UNL     1      -3.027  11.438  18.374  0.00  0.00    +0.000 A 
ATOM     14  C   UNL     1      -2.038  10.440  18.268  0.00  0.00    +0.000 A 
ATOM     15  C   UNL     1      -1.824   9.742  17.074  0.00  0.00    +0.000 A 
ATOM     16  C   UNL     1      -2.657   9.963  15.985  0.00  0.00    +0.000 A 
ATOM     17  C   UNL     1      -3.698  10.880  16.095  0.00  0.00    +0.000 A 
ATOM     18  C   UNL     1      -3.868  11.624  17.269  0.00  0.00    +0.000 A 
ENDBRANCH   5  13
ENDBRANCH   1   6
BRANCH   1  19
ATOM     19  C   UNL     1       0.337  12.574  21.121  0.00  0.00    +0.000 C 
BRANCH  19  20
ATOM     20  O   UNL     1       1.158  11.400  20.963  0.00  0.00    +0.000 OA
BRANCH  20  21
ATOM     21  C   UNL     1       0.502  10.229  21.198  0.00  0.00    +0.000 C 
ATOM     22  O   UNL     1      -0.550  10.137  21.819  0.00  0.00    +0.000 OA
BRANCH  21  23
ATOM     23  C   UNL     1       1.039   9.077  20.405  0.00  0.00    +0.000 A 
ATOM     24  C   UNL     1       1.441   9.369  19.086  0.00  0.00    +0.000 A 
ATOM     25  C   UNL     1       2.144   8.443  18.327  0.00  0.00    +0.000 A 
ATOM     26  C   UNL     1       2.436   7.207  18.888  0.00  0.00    +0.000 A 
ATOM     27  C   UNL     1       3.475   6.350  18.276  0.00  0.00    +0.000 A 
ATOM     28  O   UNL     1       3.940   6.586  17.168  0.00  0.00    +0.000 OA
ATOM     29  N   UNL     1       3.860   5.312  19.076  0.00  0.00    +0.000 N 
ATOM     30  C   UNL     1       3.011   4.799  20.029  0.00  0.00    +0.000 A 
ATOM     31  N   UNL     1       2.067   5.480  20.596  0.00  0.00    +0.000 NA
ATOM     32  C   UNL     1       1.912   6.817  20.133  0.00  0.00    +0.000 A 
ATOM     33  C   UNL     1       1.241   7.782  20.909  0.00  0.00    +0.000 A 
ATOM     34  C   UNL     1       3.370   3.350  20.248  0.00  0.00    +0.000 C 
ATOM     35  C   UNL     1       4.464   3.097  19.195  0.00  0.00    +0.000 C 
ATOM     36  C   UNL     1       5.013   4.475  18.904  0.00  0.00    +0.000 C 
ENDBRANCH  21  23
ENDBRANCH  20  21
ENDBRANCH  19  20
ENDBRANCH   1  19
TORSDOF 6
ENDMDL
MODEL 5
REMARK VINA RESULT:      -8.9      1.108      3.995
REMARK  Name = 
REMARK  7 active torsions:
REMARK  status: ('A' for Active; 'I' for Inactive)
REMARK    1  A    between atoms: C_1  and  N_2
REMARK    2  A    between atoms: C_3  and  C_4
REMARK    3  A    between atoms: C_10  and  C_11
REMARK    4  A    between atoms: C_11  and  C_13
REMARK    5  A    between atoms: C_13  and  O_14
REMARK    6  A    between atoms: O_14  and  C_15
REMARK    7  A    between atoms: C_15  and  C_17
REMARK                            x       y       z     vdW  Elec       q    Type
REMARK                         _______ _______ _______ _____ _____    ______ ____
ROOT
ATOM      1  C   UNL     1      -0.997  13.233  20.323  0.00  0.00    +0.000 C 
ATOM      2  O   UNL     1      -0.635  14.374  20.014  0.00  0.00    +0.000 OA
ENDROOT
BRANCH   1   6
ATOM      3  C   UNL     1      -5.867  12.154  19.313  0.00  0.00    +0.000 C 
ATOM      4  N   UNL     1      -4.414  12.155  19.361  0.00  0.00    +0.000 N 
ATOM      5  C   UNL     1      -3.575  12.894  20.193  0.00  0.00    +0.000 A 
ATOM      6  C   UNL     1      -2.249  12.634  19.761  0.00  0.00    +0.000 A 
ATOM      7  C   UNL     1      -2.339  11.651  18.693  0.00  0.00    +0.000 A 
ATOM      8  C   UNL     1      -1.417  10.939  17.883  0.00  0.00    +0.000 A 
ATOM      9  C   UNL     1      -1.856  10.020  16.920  0.00  0.00    +0.000 A 
ATOM     10  C   UNL     1      -3.206   9.761  16.757  0.00  0.00    +0.000 A 
ATOM     11  C   UNL     1      -4.141  10.422  17.545  0.00  0.00    +0.000 A 
ATOM     12  C   UNL     1      -3.688  11.363  18.494  0.00  0.00    +0.000 A 
BRANCH   5  13
ATOM     13  C   UNL     1      -4.107  13.819  21.230  0.00  0.00    +0.000 A 
ATOM     14  C   UNL     1      -4.458  13.360  22.515  0.00  0.00    +0.000 A 
ATOM     15  C   UNL     1      -5.130  14.179  23.430  0.00  0.00    +0.000 A 
ATOM     16  C   UNL     1      -5.385  15.507  23.112  0.00  0.00    +0.000 A 
ATOM     17  C   UNL     1      -4.969  16.008  21.882  0.00  0.00    +0.000 A 
ATOM     18  C   UNL     1      -4.355  15.168  20.944  0.00  0.00    +0.000 A 
ENDBRANCH   5  13
ENDBRANCH   1   6
BRANCH   1  19
ATOM     19  C   UNL     1      -0.115  12.366  21.261  0.00  0.00    +0.000 C 
BRANCH  19  20
ATOM     20  O   UNL     1       0.732  11.319  20.745  0.00  0.00    +0.000 OA
BRANCH  20  21
ATOM     21  C   UNL     1       0.567  10.118  21.366  0.00  0.00    +0.000 C 
ATOM     22  O   UNL     1      -0.104   9.946  22.376  0.00  0.00    +0.000 OA
BRANCH  21  23
ATOM     23  C   UNL     1       1.068   8.958  20.560  0.00  0.00    +0.000 A 
ATOM     24  C   UNL     1       1.504   9.258  19.253  0.00  0.00    +0.000 A 
ATOM     25  C   UNL     1       2.180   8.316  18.487  0.00  0.00    +0.000 A 
ATOM     26  C   UNL     1       2.408   7.059  19.028  0.00  0.00    +0.000 A 
ATOM     27  C   UNL     1       3.420   6.169  18.416  0.00  0.00    +0.000 A 
ATOM     28  O   UNL     1       3.912   6.405  17.320  0.00  0.00    +0.000 OA
ATOM     29  N   UNL     1       3.746   5.101  19.202  0.00  0.00    +0.000 N 
ATOM     30  C   UNL     1       2.859   4.607  20.131  0.00  0.00    +0.000 A 
ATOM     31  N   UNL     1       1.937   5.317  20.696  0.00  0.00    +0.000 NA
ATOM     32  C   UNL     1       1.847   6.668  20.257  0.00  0.00    +0.000 A 
ATOM     33  C   UNL     1       1.205   7.646  21.041  0.00  0.00    +0.000 A 
ATOM     34  C   UNL     1       3.152   3.140  20.327  0.00  0.00    +0.000 C 
ATOM     35  C   UNL     1       4.251   2.860  19.287  0.00  0.00    +0.000 C 
ATOM     36  C   UNL     1       4.864   4.217  19.031  0.00  0.00    +0.000 C 
ENDBRANCH  21  23
ENDBRANCH  20  21
ENDBRANCH  19  20
ENDBRANCH   1  19
TORSDOF 6
ENDMDL
MODEL 6
REMARK VINA RESULT:      -8.8      1.688      4.450
REMARK  Name = 
REMARK  7 active torsions:
REMARK  status: ('A' for Active; 'I' for Inactive)
REMARK    1  A    between atoms: C_1  and  N_2
REMARK    2  A    between atoms: C_3  and  C_4
REMARK    3  A    between atoms: C_10  and  C_11
REMARK    4  A    between atoms: C_11  and  C_13
REMARK    5  A    between atoms: C_13  and  O_14
REMARK    6  A    between atoms: O_14  and  C_15
REMARK    7  A    between atoms: C_15  and  C_17
REMARK                            x       y       z     vdW  Elec       q    Type
REMARK                         _______ _______ _______ _____ _____    ______ ____
ROOT
ATOM      1  C   UNL     1      -1.407  11.780  20.746  0.00  0.00    +0.000 C 
ATOM      2  O   UNL     1      -1.553  11.638  21.965  0.00  0.00    +0.000 OA
ENDROOT
BRANCH   1   6
ATOM      3  C   UNL     1      -5.872  13.035  18.651  0.00  0.00    +0.000 C 
ATOM      4  N   UNL     1      -4.583  12.428  18.941  0.00  0.00    +0.000 N 
ATOM      5  C   UNL     1      -3.800  12.566  20.086  0.00  0.00    +0.000 A 
ATOM      6  C   UNL     1      -2.585  11.880  19.827  0.00  0.00    +0.000 A 
ATOM      7  C   UNL     1      -2.719  11.268  18.515  0.00  0.00    +0.000 A 
ATOM      8  C   UNL     1      -1.922  10.427  17.697  0.00  0.00    +0.000 A 
ATOM      9  C   UNL     1      -2.374   9.992  16.443  0.00  0.00    +0.000 A 
ATOM     10  C   UNL     1      -3.630  10.351  15.985  0.00  0.00    +0.000 A 
ATOM     11  C   UNL     1      -4.451  11.158  16.764  0.00  0.00    +0.000 A 
ATOM     12  C   UNL     1      -3.974  11.609  18.013  0.00  0.00    +0.000 A 
BRANCH   5  13
ATOM     13  C   UNL     1      -4.236  13.389  21.247  0.00  0.00    +0.000 A 
ATOM     14  C   UNL     1      -3.855  14.740  21.375  0.00  0.00    +0.000 A 
ATOM     15  C   UNL     1      -4.102  15.464  22.547  0.00  0.00    +0.000 A 
ATOM     16  C   UNL     1      -4.818  14.880  23.584  0.00  0.00    +0.000 A 
ATOM     17  C   UNL     1      -5.282  13.575  23.444  0.00  0.00    +0.000 A 
ATOM     18  C   UNL     1      -4.976  12.832  22.297  0.00  0.00    +0.000 A 
ENDBRANCH   5  13
ENDBRANCH   1   6
BRANCH   1  19
ATOM     19  C   UNL     1       0.017  11.925  20.146  0.00  0.00    +0.000 C 
BRANCH  19  20
ATOM     20  O   UNL     1       1.021  10.906  20.330  0.00  0.00    +0.000 OA
BRANCH  20  21
ATOM     21  C   UNL     1       1.353  10.243  19.188  0.00  0.00    +0.000 C 
ATOM     22  O   UNL     1       1.532  10.780  18.102  0.00  0.00    +0.000 OA
BRANCH  21  23
ATOM     23  C   UNL     1       1.742   8.815  19.422  0.00  0.00    +0.000 A 
ATOM     24  C   UNL     1       1.387   8.275  20.675  0.00  0.00    +0.000 A 
ATOM     25  C   UNL     1       1.503   6.915  20.931  0.00  0.00    +0.000 A 
ATOM     26  C   UNL     1       1.992   6.089  19.928  0.00  0.00    +0.000 A 
ATOM     27  C   UNL     1       1.789   4.626  20.019  0.00  0.00    +0.000 A 
ATOM     28  O   UNL     1       1.399   4.088  21.048  0.00  0.00    +0.000 OA
ATOM     29  N   UNL     1       2.058   3.970  18.852  0.00  0.00    +0.000 N 
ATOM     30  C   UNL     1       2.935   4.492  17.930  0.00  0.00    +0.000 A 
ATOM     31  N   UNL     1       3.179   5.757  17.803  0.00  0.00    +0.000 NA
ATOM     32  C   UNL     1       2.511   6.608  18.729  0.00  0.00    +0.000 A 
ATOM     33  C   UNL     1       2.343   7.981  18.465  0.00  0.00    +0.000 A 
ATOM     34  C   UNL     1       3.542   3.349  17.156  0.00  0.00    +0.000 C 
ATOM     35  C   UNL     1       2.965   2.106  17.858  0.00  0.00    +0.000 C 
ATOM     36  C   UNL     1       1.709   2.616  18.526  0.00  0.00    +0.000 C 
ENDBRANCH  21  23
ENDBRANCH  20  21
ENDBRANCH  19  20
ENDBRANCH   1  19
TORSDOF 6
ENDMDL
MODEL 7
REMARK VINA RESULT:      -8.8      3.636      5.115
REMARK  Name = 
REMARK  7 active torsions:
REMARK  status: ('A' for Active; 'I' for Inactive)
REMARK    1  A    between atoms: C_1  and  N_2
REMARK    2  A    between atoms: C_3  and  C_4
REMARK    3  A    between atoms: C_10  and  C_11
REMARK    4  A    between atoms: C_11  and  C_13
REMARK    5  A    between atoms: C_13  and  O_14
REMARK    6  A    between atoms: O_14  and  C_15
REMARK    7  A    between atoms: C_15  and  C_17
REMARK                            x       y       z     vdW  Elec       q    Type
REMARK                         _______ _______ _______ _____ _____    ______ ____
ROOT
ATOM      1  C   UNL     1       2.001  13.102  19.479  0.00  0.00    +0.000 C 
ATOM      2  O   UNL     1       3.103  13.590  19.754  0.00  0.00    +0.000 OA
ENDROOT
BRANCH   1   6
ATOM      3  C   UNL     1      -2.066  15.273  21.634  0.00  0.00    +0.000 C 
ATOM      4  N   UNL     1      -0.979  14.372  21.286  0.00  0.00    +0.000 N 
ATOM      5  C   UNL     1       0.089  14.597  20.419  0.00  0.00    +0.000 A 
ATOM      6  C   UNL     1       0.796  13.371  20.325  0.00  0.00    +0.000 A 
ATOM      7  C   UNL     1       0.145  12.440  21.234  0.00  0.00    +0.000 A 
ATOM      8  C   UNL     1       0.367  11.102  21.651  0.00  0.00    +0.000 A 
ATOM      9  C   UNL     1      -0.475  10.486  22.588  0.00  0.00    +0.000 A 
ATOM     10  C   UNL     1      -1.528  11.182  23.154  0.00  0.00    +0.000 A 
ATOM     11  C   UNL     1      -1.767  12.501  22.787  0.00  0.00    +0.000 A 
ATOM     12  C   UNL     1      -0.929  13.103  21.825  0.00  0.00    +0.000 A 
BRANCH   5  13
ATOM     13  C   UNL     1       0.274  15.895  19.715  0.00  0.00    +0.000 A 
ATOM     14  C   UNL     1      -0.507  16.243  18.595  0.00  0.00    +0.000 A 
ATOM     15  C   UNL     1      -0.216  17.370  17.819  0.00  0.00    +0.000 A 
ATOM     16  C   UNL     1       0.809  18.227  18.199  0.00  0.00    +0.000 A 
ATOM     17  C   UNL     1       1.537  17.953  19.353  0.00  0.00    +0.000 A 
ATOM     18  C   UNL     1       1.286  16.788  20.091  0.00  0.00    +0.000 A 
ENDBRANCH   5  13
ENDBRANCH   1   6
BRANCH   1  19
ATOM     19  C   UNL     1       1.831  12.244  18.197  0.00  0.00    +0.000 C 
BRANCH  19  20
ATOM     20  O   UNL     1       2.259  10.868  18.148  0.00  0.00    +0.000 OA
BRANCH  20  21
ATOM     21  C   UNL     1       1.269   9.970  18.413  0.00  0.00    +0.000 C 
ATOM     22  O   UNL     1       0.090  10.133  18.122  0.00  0.00    +0.000 OA
BRANCH  21  23
ATOM     23  C   UNL     1       1.781   8.635  18.861  0.00  0.00    +0.000 A 
ATOM     24  C   UNL     1       1.535   8.300  20.208  0.00  0.00    +0.000 A 
ATOM     25  C   UNL     1       1.770   7.017  20.684  0.00  0.00    +0.000 A 
ATOM     26  C   UNL     1       2.272   6.064  19.808  0.00  0.00    +0.000 A 
ATOM     27  C   UNL     1       2.190   4.629  20.160  0.00  0.00    +0.000 A 
ATOM     28  O   UNL     1       1.897   4.254  21.288  0.00  0.00    +0.000 OA
ATOM     29  N   UNL     1       2.449   3.799  19.107  0.00  0.00    +0.000 N 
ATOM     30  C   UNL     1       3.235   4.212  18.055  0.00  0.00    +0.000 A 
ATOM     31  N   UNL     1       3.370   5.449  17.699  0.00  0.00    +0.000 NA
ATOM     32  C   UNL     1       2.685   6.399  18.507  0.00  0.00    +0.000 A 
ATOM     33  C   UNL     1       2.397   7.690  18.025  0.00  0.00    +0.000 A 
ATOM     34  C   UNL     1       3.889   2.995  17.451  0.00  0.00    +0.000 C 
ATOM     35  C   UNL     1       3.449   1.857  18.390  0.00  0.00    +0.000 C 
ATOM     36  C   UNL     1       2.193   2.389  19.040  0.00  0.00    +0.000 C 
ENDBRANCH  21  23
ENDBRANCH  20  21
ENDBRANCH  19  20
ENDBRANCH   1  19
TORSDOF 6
ENDMDL
MODEL 8
REMARK VINA RESULT:      -8.7      3.279     10.381
REMARK  Name = 
REMARK  7 active torsions:
REMARK  status: ('A' for Active; 'I' for Inactive)
REMARK    1  A    between atoms: C_1  and  N_2
REMARK    2  A    between atoms: C_3  and  C_4
REMARK    3  A    between atoms: C_10  and  C_11
REMARK    4  A    between atoms: C_11  and  C_13
REMARK    5  A    between atoms: C_13  and  O_14
REMARK    6  A    between atoms: O_14  and  C_15
REMARK    7  A    between atoms: C_15  and  C_17
REMARK                            x       y       z     vdW  Elec       q    Type
REMARK                         _______ _______ _______ _____ _____    ______ ____
ROOT
ATOM      1  C   UNL     1       3.229   6.623  18.452  0.00  0.00    +0.000 C 
ATOM      2  O   UNL     1       2.958   6.687  19.656  0.00  0.00    +0.000 OA
ENDROOT
BRANCH   1   6
ATOM      3  C   UNL     1       4.206   1.751  17.357  0.00  0.00    +0.000 C 
ATOM      4  N   UNL     1       4.213   3.204  17.402  0.00  0.00    +0.000 N 
ATOM      5  C   UNL     1       3.551   4.045  18.295  0.00  0.00    +0.000 A 
ATOM      6  C   UNL     1       3.774   5.370  17.841  0.00  0.00    +0.000 A 
ATOM      7  C   UNL     1       4.661   5.276  16.691  0.00  0.00    +0.000 A 
ATOM      8  C   UNL     1       5.301   6.196  15.822  0.00  0.00    +0.000 A 
ATOM      9  C   UNL     1       6.132   5.755  14.782  0.00  0.00    +0.000 A 
ATOM     10  C   UNL     1       6.374   4.404  14.599  0.00  0.00    +0.000 A 
ATOM     11  C   UNL     1       5.782   3.471  15.443  0.00  0.00    +0.000 A 
ATOM     12  C   UNL     1       4.927   3.927  16.469  0.00  0.00    +0.000 A 
BRANCH   5  13
ATOM     13  C   UNL     1       2.718   3.515  19.410  0.00  0.00    +0.000 A 
ATOM     14  C   UNL     1       1.310   3.552  19.358  0.00  0.00    +0.000 A 
ATOM     15  C   UNL     1       0.526   3.230  20.471  0.00  0.00    +0.000 A 
ATOM     16  C   UNL     1       1.132   2.776  21.636  0.00  0.00    +0.000 A 
ATOM     17  C   UNL     1       2.517   2.647  21.681  0.00  0.00    +0.000 A 
ATOM     18  C   UNL     1       3.302   3.032  20.587  0.00  0.00    +0.000 A 
ENDBRANCH   5  13
ENDBRANCH   1   6
BRANCH   1  19
ATOM     19  C   UNL     1       2.944   7.837  17.527  0.00  0.00    +0.000 C 
BRANCH  19  20
ATOM     20  O   UNL     1       1.704   8.569  17.603  0.00  0.00    +0.000 OA
BRANCH  20  21
ATOM     21  C   UNL     1       1.847   9.861  18.012  0.00  0.00    +0.000 C 
ATOM     22  O   UNL     1       2.563  10.687  17.460  0.00  0.00    +0.000 OA
BRANCH  21  23
ATOM     23  C   UNL     1       0.849  10.270  19.051  0.00  0.00    +0.000 A 
ATOM     24  C   UNL     1       0.731   9.414  20.165  0.00  0.00    +0.000 A 
ATOM     25  C   UNL     1       0.001   9.789  21.286  0.00  0.00    +0.000 A 
ATOM     26  C   UNL     1      -0.631  11.025  21.285  0.00  0.00    +0.000 A 
ATOM     27  C   UNL     1      -1.096  11.611  22.562  0.00  0.00    +0.000 A 
ATOM     28  O   UNL     1      -1.146  10.957  23.595  0.00  0.00    +0.000 OA
ATOM     29  N   UNL     1      -1.432  12.931  22.460  0.00  0.00    +0.000 N 
ATOM     30  C   UNL     1      -1.838  13.469  21.260  0.00  0.00    +0.000 A 
ATOM     31  N   UNL     1      -1.488  13.001  20.105  0.00  0.00    +0.000 NA
ATOM     32  C   UNL     1      -0.676  11.833  20.135  0.00  0.00    +0.000 A 
ATOM     33  C   UNL     1       0.107  11.462  19.025  0.00  0.00    +0.000 A 
ATOM     34  C   UNL     1      -2.747  14.636  21.552  0.00  0.00    +0.000 C 
ATOM     35  C   UNL     1      -2.883  14.600  23.085  0.00  0.00    +0.000 C 
ATOM     36  C   UNL     1      -1.654  13.848  23.540  0.00  0.00    +0.000 C 
ENDBRANCH  21  23
ENDBRANCH  20  21
ENDBRANCH  19  20
ENDBRANCH   1  19
TORSDOF 6
ENDMDL
MODEL 9
REMARK VINA RESULT:      -8.7      1.552      4.207
REMARK  Name = 
REMARK  7 active torsions:
REMARK  status: ('A' for Active; 'I' for Inactive)
REMARK    1  A    between atoms: C_1  and  N_2
REMARK    2  A    between atoms: C_3  and  C_4
REMARK    3  A    between atoms: C_10  and  C_11
REMARK    4  A    between atoms: C_11  and  C_13
REMARK    5  A    between atoms: C_13  and  O_14
REMARK    6  A    between atoms: O_14  and  C_15
REMARK    7  A    between atoms: C_15  and  C_17
REMARK                            x       y       z     vdW  Elec       q    Type
REMARK                         _______ _______ _______ _____ _____    ______ ____
ROOT
ATOM      1  C   UNL     1      -0.142  11.771  19.754  0.00  0.00    +0.000 C 
ATOM      2  O   UNL     1       0.754  12.018  18.939  0.00  0.00    +0.000 OA
ENDROOT
BRANCH   1   6
ATOM      3  C   UNL     1      -5.137  12.731  19.571  0.00  0.00    +0.000 C 
ATOM      4  N   UNL     1      -3.800  12.216  19.322  0.00  0.00    +0.000 N 
ATOM      5  C   UNL     1      -2.649  12.390  20.088  0.00  0.00    +0.000 A 
ATOM      6  C   UNL     1      -1.586  11.801  19.357  0.00  0.00    +0.000 A 
ATOM      7  C   UNL     1      -2.174  11.204  18.167  0.00  0.00    +0.000 A 
ATOM      8  C   UNL     1      -1.699  10.439  17.072  0.00  0.00    +0.000 A 
ATOM      9  C   UNL     1      -2.569   9.995  16.065  0.00  0.00    +0.000 A 
ATOM     10  C   UNL     1      -3.924  10.268  16.135  0.00  0.00    +0.000 A 
ATOM     11  C   UNL     1      -4.433  10.998  17.203  0.00  0.00    +0.000 A 
ATOM     12  C   UNL     1      -3.543  11.461  18.196  0.00  0.00    +0.000 A 
BRANCH   5  13
ATOM     13  C   UNL     1      -2.657  13.158  21.363  0.00  0.00    +0.000 A 
ATOM     14  C   UNL     1      -2.174  14.480  21.429  0.00  0.00    +0.000 A 
ATOM     15  C   UNL     1      -2.007  15.140  22.652  0.00  0.00    +0.000 A 
ATOM     16  C   UNL     1      -2.405  14.524  23.831  0.00  0.00    +0.000 A 
ATOM     17  C   UNL     1      -2.968  13.252  23.782  0.00  0.00    +0.000 A 
ATOM     18  C   UNL     1      -3.073  12.569  22.564  0.00  0.00    +0.000 A 
ENDBRANCH   5  13
ENDBRANCH   1   6
BRANCH   1  19
ATOM     19  C   UNL     1       0.220  11.357  21.205  0.00  0.00    +0.000 C 
BRANCH  19  20
ATOM     20  O   UNL     1       1.332  10.483  21.485  0.00  0.00    +0.000 OA
BRANCH  20  21
ATOM     21  C   UNL     1       0.968   9.229  21.872  0.00  0.00    +0.000 C 
ATOM     22  O   UNL     1       0.247   8.981  22.830  0.00  0.00    +0.000 OA
BRANCH  21  23
ATOM     23  C   UNL     1       1.312   8.173  20.866  0.00  0.00    +0.000 A 
ATOM     24  C   UNL     1       1.833   8.634  19.640  0.00  0.00    +0.000 A 
ATOM     25  C   UNL     1       2.382   7.754  18.716  0.00  0.00    +0.000 A 
ATOM     26  C   UNL     1       2.395   6.399  19.014  0.00  0.00    +0.000 A 
ATOM     27  C   UNL     1       3.279   5.489  18.252  0.00  0.00    +0.000 A 
ATOM     28  O   UNL     1       3.839   5.842  17.222  0.00  0.00    +0.000 OA
ATOM     29  N   UNL     1       3.410   4.257  18.826  0.00  0.00    +0.000 N 
ATOM     30  C   UNL     1       2.427   3.746  19.643  0.00  0.00    +0.000 A 
ATOM     31  N   UNL     1       1.606   4.478  20.326  0.00  0.00    +0.000 NA
ATOM     32  C   UNL     1       1.739   5.883  20.146  0.00  0.00    +0.000 A 
ATOM     33  C   UNL     1       1.230   6.790  21.095  0.00  0.00    +0.000 A 
ATOM     34  C   UNL     1       2.483   2.242  19.563  0.00  0.00    +0.000 C 
ATOM     35  C   UNL     1       3.562   1.987  18.495  0.00  0.00    +0.000 C 
ATOM     36  C   UNL     1       4.384   3.255  18.500  0.00  0.00    +0.000 C 
ENDBRANCH  21  23
ENDBRANCH  20  21
ENDBRANCH  19  20
ENDBRANCH   1  19
TORSDOF 6
ENDMDL
