MODEL 1
REMARK VINA RESULT:      -8.1      0.000      0.000
REMARK  Name = 
REMARK  8 active torsions:
REMARK  status: ('A' for Active; 'I' for Inactive)
REMARK    1  A    between atoms: C_2  and  C_3
REMARK    2  A    between atoms: C_2  and  C_10
REMARK    3  A    between atoms: N_13  and  C_14
REMARK    4  A    between atoms: C_14  and  C_15
REMARK    5  A    between atoms: C_15  and  C_16
REMARK    6  A    between atoms: C_16  and  C_17
REMARK    7  A    between atoms: C_17  and  C_18
REMARK    8  A    between atoms: C_18  and  C_19
REMARK                            x       y       z     vdW  Elec       q    Type
REMARK                         _______ _______ _______ _____ _____    ______ ____
ROOT
ATOM      1  C   UNL     1       6.031   4.898  17.407  0.00  0.00    +0.000 C 
ATOM      2  C   UNL     1       7.511   5.203  17.714  0.00  0.00    +0.000 C 
ATOM      3  C   UNL     1       7.767   6.588  18.289  0.00  0.00    +0.000 C 
ATOM      4  N   UNL     1       7.413   7.554  17.252  0.00  0.00    +0.000 NA
ATOM      5  C   UNL     1       5.984   7.444  16.912  0.00  0.00    +0.000 C 
ATOM      6  C   UNL     1       5.549   6.020  16.496  0.00  0.00    +0.000 C 
ENDROOT
BRANCH   1   8
ATOM      7  O   UNL     1       5.767   3.962  19.600  0.00  0.00    +0.000 OA
ATOM      8  C   UNL     1       5.186   4.188  18.527  0.00  0.00    +0.000 C 
BRANCH   8   9
ATOM      9  C   UNL     1       3.797   3.578  18.449  0.00  0.00    +0.000 A 
ATOM     10  C   UNL     1       2.721   4.338  19.031  0.00  0.00    +0.000 A 
ATOM     11  C   UNL     1       1.399   3.861  19.110  0.00  0.00    +0.000 A 
ATOM     12  C   UNL     1       1.124   2.601  18.606  0.00  0.00    +0.000 A 
ATOM     13  F   UNL     1      -0.119   2.105  18.683  0.00  0.00    +0.000 F 
ATOM     14  C   UNL     1       2.139   1.839  18.029  0.00  0.00    +0.000 A 
ATOM     15  C   UNL     1       3.462   2.332  17.947  0.00  0.00    +0.000 A 
ENDBRANCH   8   9
ENDBRANCH   1   8
BRANCH   4  16
ATOM     16  C   UNL     1       7.812   8.932  17.593  0.00  0.00    +0.000 C 
BRANCH  16  17
ATOM     17  C   UNL     1       8.725   9.072  18.834  0.00  0.00    +0.000 C 
BRANCH  17  18
ATOM     18  C   UNL     1       9.514  10.386  18.873  0.00  0.00    +0.000 C 
BRANCH  18  19
ATOM     19  C   UNL     1       9.512  11.004  20.275  0.00  0.00    +0.000 C 
BRANCH  19  20
ATOM     20  C   UNL     1      10.713  11.935  20.479  0.00  0.00    +0.000 C 
BRANCH  20  21
ATOM     21  C   UNL     1      10.940  12.807  19.270  0.00  0.00    +0.000 A 
ATOM     22  C   UNL     1      10.060  13.854  18.966  0.00  0.00    +0.000 A 
ATOM     23  C   UNL     1      10.247  14.624  17.819  0.00  0.00    +0.000 A 
ATOM     24  C   UNL     1      11.312  14.349  16.960  0.00  0.00    +0.000 A 
ATOM     25  C   UNL     1      12.198  13.315  17.252  0.00  0.00    +0.000 A 
ATOM     26  C   UNL     1      12.013  12.539  18.395  0.00  0.00    +0.000 A 
ENDBRANCH  20  21
ENDBRANCH  19  20
ENDBRANCH  18  19
ENDBRANCH  17  18
ENDBRANCH  16  17
ENDBRANCH   4  16
TORSDOF 8
ENDMDL
MODEL 2
REMARK VINA RESULT:      -7.9      5.946      8.182
REMARK  Name = 
REMARK  8 active torsions:
REMARK  status: ('A' for Active; 'I' for Inactive)
REMARK    1  A    between atoms: C_2  and  C_3
REMARK    2  A    between atoms: C_2  and  C_10
REMARK    3  A    between atoms: N_13  and  C_14
REMARK    4  A    between atoms: C_14  and  C_15
REMARK    5  A    between atoms: C_15  and  C_16
REMARK    6  A    between atoms: C_16  and  C_17
REMARK    7  A    between atoms: C_17  and  C_18
REMARK    8  A    between atoms: C_18  and  C_19
REMARK                            x       y       z     vdW  Elec       q    Type
REMARK                         _______ _______ _______ _____ _____    ______ ____
ROOT
ATOM      1  C   UNL     1       5.386   5.555  17.581  0.00  0.00    +0.000 C 
ATOM      2  C   UNL     1       5.454   4.991  19.014  0.00  0.00    +0.000 C 
ATOM      3  C   UNL     1       4.948   3.565  19.159  0.00  0.00    +0.000 C 
ATOM      4  N   UNL     1       3.519   3.584  18.852  0.00  0.00    +0.000 NA
ATOM      5  C   UNL     1       3.297   4.021  17.463  0.00  0.00    +0.000 C 
ATOM      6  C   UNL     1       3.941   5.386  17.128  0.00  0.00    +0.000 C 
ENDROOT
BRANCH   1   8
ATOM      7  O   UNL     1       7.740   5.774  17.168  0.00  0.00    +0.000 OA
ATOM      8  C   UNL     1       6.663   5.400  16.676  0.00  0.00    +0.000 C 
BRANCH   8   9
ATOM      9  C   UNL     1       6.769   5.010  15.212  0.00  0.00    +0.000 A 
ATOM     10  C   UNL     1       5.885   3.970  14.752  0.00  0.00    +0.000 A 
ATOM     11  C   UNL     1       5.929   3.445  13.447  0.00  0.00    +0.000 A 
ATOM     12  C   UNL     1       6.870   3.953  12.567  0.00  0.00    +0.000 A 
ATOM     13  F   UNL     1       6.956   3.464  11.322  0.00  0.00    +0.000 F 
ATOM     14  C   UNL     1       7.737   4.966  12.975  0.00  0.00    +0.000 A 
ATOM     15  C   UNL     1       7.678   5.492  14.286  0.00  0.00    +0.000 A 
ENDBRANCH   8   9
ENDBRANCH   1   8
BRANCH   4  16
ATOM     16  C   UNL     1       2.850   2.306  19.159  0.00  0.00    +0.000 C 
BRANCH  16  17
ATOM     17  C   UNL     1       1.429   2.427  19.758  0.00  0.00    +0.000 C 
BRANCH  17  18
ATOM     18  C   UNL     1       1.335   3.416  20.926  0.00  0.00    +0.000 C 
BRANCH  18  19
ATOM     19  C   UNL     1       1.006   4.832  20.441  0.00  0.00    +0.000 C 
BRANCH  19  20
ATOM     20  C   UNL     1       2.140   5.812  20.762  0.00  0.00    +0.000 C 
BRANCH  20  21
ATOM     21  C   UNL     1       1.811   7.204  20.285  0.00  0.00    +0.000 A 
ATOM     22  C   UNL     1       1.124   8.101  21.114  0.00  0.00    +0.000 A 
ATOM     23  C   UNL     1       0.778   9.369  20.650  0.00  0.00    +0.000 A 
ATOM     24  C   UNL     1       1.108   9.750  19.348  0.00  0.00    +0.000 A 
ATOM     25  C   UNL     1       1.795   8.871  18.515  0.00  0.00    +0.000 A 
ATOM     26  C   UNL     1       2.140   7.600  18.973  0.00  0.00    +0.000 A 
ENDBRANCH  20  21
ENDBRANCH  19  20
ENDBRANCH  18  19
ENDBRANCH  17  18
ENDBRANCH  16  17
ENDBRANCH   4  16
TORSDOF 8
ENDMDL
MODEL 3
REMARK VINA RESULT:      -7.8      0.888      1.381
REMARK  Name = 
REMARK  8 active torsions:
REMARK  status: ('A' for Active; 'I' for Inactive)
REMARK    1  A    between atoms: C_2  and  C_3
REMARK    2  A    between atoms: C_2  and  C_10
REMARK    3  A    between atoms: N_13  and  C_14
REMARK    4  A    between atoms: C_14  and  C_15
REMARK    5  A    between atoms: C_15  and  C_16
REMARK    6  A    between atoms: C_16  and  C_17
REMARK    7  A    between atoms: C_17  and  C_18
REMARK    8  A    between atoms: C_18  and  C_19
REMARK                            x       y       z     vdW  Elec       q    Type
REMARK                         _______ _______ _______ _____ _____    ______ ____
ROOT
ATOM      1  C   UNL     1       6.073   5.059  17.428  0.00  0.00    +0.000 C 
ATOM      2  C   UNL     1       7.555   5.364  17.725  0.00  0.00    +0.000 C 
ATOM      3  C   UNL     1       7.812   6.735  18.330  0.00  0.00    +0.000 C 
ATOM      4  N   UNL     1       7.442   7.724  17.321  0.00  0.00    +0.000 NA
ATOM      5  C   UNL     1       6.009   7.616  16.997  0.00  0.00    +0.000 C 
ATOM      6  C   UNL     1       5.575   6.201  16.551  0.00  0.00    +0.000 C 
ENDROOT
BRANCH   1   8
ATOM      7  O   UNL     1       5.877   3.928  19.535  0.00  0.00    +0.000 OA
ATOM      8  C   UNL     1       5.245   4.318  18.541  0.00  0.00    +0.000 C 
BRANCH   8   9
ATOM      9  C   UNL     1       3.800   3.852  18.521  0.00  0.00    +0.000 A 
ATOM     10  C   UNL     1       3.442   2.806  19.443  0.00  0.00    +0.000 A 
ATOM     11  C   UNL     1       2.165   2.214  19.476  0.00  0.00    +0.000 A 
ATOM     12  C   UNL     1       1.211   2.661  18.577  0.00  0.00    +0.000 A 
ATOM     13  F   UNL     1      -0.010   2.108  18.566  0.00  0.00    +0.000 F 
ATOM     14  C   UNL     1       1.519   3.678  17.675  0.00  0.00    +0.000 A 
ATOM     15  C   UNL     1       2.803   4.271  17.656  0.00  0.00    +0.000 A 
ENDBRANCH   8   9
ENDBRANCH   1   8
BRANCH   4  16
ATOM     16  C   UNL     1       7.839   9.096  17.691  0.00  0.00    +0.000 C 
BRANCH  16  17
ATOM     17  C   UNL     1       8.960   9.200  18.751  0.00  0.00    +0.000 C 
BRANCH  17  18
ATOM     18  C   UNL     1       9.360  10.641  19.086  0.00  0.00    +0.000 C 
BRANCH  18  19
ATOM     19  C   UNL     1      10.061  11.322  17.905  0.00  0.00    +0.000 C 
BRANCH  19  20
ATOM     20  C   UNL     1      11.131  12.311  18.383  0.00  0.00    +0.000 C 
BRANCH  20  21
ATOM     21  C   UNL     1      10.759  13.730  18.034  0.00  0.00    +0.000 A 
ATOM     22  C   UNL     1       9.590  14.309  18.544  0.00  0.00    +0.000 A 
ATOM     23  C   UNL     1       9.225  15.604  18.177  0.00  0.00    +0.000 A 
ATOM     24  C   UNL     1      10.022  16.329  17.290  0.00  0.00    +0.000 A 
ATOM     25  C   UNL     1      11.189  15.768  16.779  0.00  0.00    +0.000 A 
ATOM     26  C   UNL     1      11.557  14.472  17.139  0.00  0.00    +0.000 A 
ENDBRANCH  20  21
ENDBRANCH  19  20
ENDBRANCH  18  19
ENDBRANCH  17  18
ENDBRANCH  16  17
ENDBRANCH   4  16
TORSDOF 8
ENDMDL
MODEL 4
REMARK VINA RESULT:      -7.6      2.665      3.547
REMARK  Name = 
REMARK  8 active torsions:
REMARK  status: ('A' for Active; 'I' for Inactive)
REMARK    1  A    between atoms: C_2  and  C_3
REMARK    2  A    between atoms: C_2  and  C_10
REMARK    3  A    between atoms: N_13  and  C_14
REMARK    4  A    between atoms: C_14  and  C_15
REMARK    5  A    between atoms: C_15  and  C_16
REMARK    6  A    between atoms: C_16  and  C_17
REMARK    7  A    between atoms: C_17  and  C_18
REMARK    8  A    between atoms: C_18  and  C_19
REMARK                            x       y       z     vdW  Elec       q    Type
REMARK                         _______ _______ _______ _____ _____    ______ ____
ROOT
ATOM      1  C   UNL     1       4.177   4.063  17.687  0.00  0.00    +0.000 C 
ATOM      2  C   UNL     1       5.299   4.380  18.697  0.00  0.00    +0.000 C 
ATOM      3  C   UNL     1       6.011   5.703  18.460  0.00  0.00    +0.000 C 
ATOM      4  N   UNL     1       6.706   5.592  17.180  0.00  0.00    +0.000 NA
ATOM      5  C   UNL     1       5.742   5.376  16.088  0.00  0.00    +0.000 C 
ATOM      6  C   UNL     1       4.813   4.160  16.306  0.00  0.00    +0.000 C 
ENDROOT
BRANCH   1   8
ATOM      7  O   UNL     1       1.792   3.867  17.524  0.00  0.00    +0.000 OA
ATOM      8  C   UNL     1       2.714   4.498  18.065  0.00  0.00    +0.000 C 
BRANCH   8   9
ATOM      9  C   UNL     1       2.239   5.692  18.874  0.00  0.00    +0.000 A 
ATOM     10  C   UNL     1       2.365   6.987  18.257  0.00  0.00    +0.000 A 
ATOM     11  C   UNL     1       2.049   8.188  18.918  0.00  0.00    +0.000 A 
ATOM     12  C   UNL     1       1.596   8.118  20.225  0.00  0.00    +0.000 A 
ATOM     13  F   UNL     1       1.304   9.242  20.894  0.00  0.00    +0.000 F 
ATOM     14  C   UNL     1       1.454   6.881  20.853  0.00  0.00    +0.000 A 
ATOM     15  C   UNL     1       1.767   5.680  20.175  0.00  0.00    +0.000 A 
ENDBRANCH   8   9
ENDBRANCH   1   8
BRANCH   4  16
ATOM     16  C   UNL     1       7.614   6.725  16.921  0.00  0.00    +0.000 C 
BRANCH  16  17
ATOM     17  C   UNL     1       8.013   7.554  18.165  0.00  0.00    +0.000 C 
BRANCH  17  18
ATOM     18  C   UNL     1       8.082   9.063  17.903  0.00  0.00    +0.000 C 
BRANCH  18  19
ATOM     19  C   UNL     1       9.011   9.767  18.898  0.00  0.00    +0.000 C 
BRANCH  19  20
ATOM     20  C   UNL     1       9.724  10.959  18.251  0.00  0.00    +0.000 C 
BRANCH  20  21
ATOM     21  C   UNL     1       8.934  12.231  18.426  0.00  0.00    +0.000 A 
ATOM     22  C   UNL     1       8.117  12.714  17.395  0.00  0.00    +0.000 A 
ATOM     23  C   UNL     1       7.429  13.917  17.543  0.00  0.00    +0.000 A 
ATOM     24  C   UNL     1       7.558  14.654  18.721  0.00  0.00    +0.000 A 
ATOM     25  C   UNL     1       8.362  14.184  19.756  0.00  0.00    +0.000 A 
ATOM     26  C   UNL     1       9.056  12.984  19.612  0.00  0.00    +0.000 A 
ENDBRANCH  20  21
ENDBRANCH  19  20
ENDBRANCH  18  19
ENDBRANCH  17  18
ENDBRANCH  16  17
ENDBRANCH   4  16
TORSDOF 8
ENDMDL
MODEL 5
REMARK VINA RESULT:      -7.6      1.682      2.070
REMARK  Name = 
REMARK  8 active torsions:
REMARK  status: ('A' for Active; 'I' for Inactive)
REMARK    1  A    between atoms: C_2  and  C_3
REMARK    2  A    between atoms: C_2  and  C_10
REMARK    3  A    between atoms: N_13  and  C_14
REMARK    4  A    between atoms: C_14  and  C_15
REMARK    5  A    between atoms: C_15  and  C_16
REMARK    6  A    between atoms: C_16  and  C_17
REMARK    7  A    between atoms: C_17  and  C_18
REMARK    8  A    between atoms: C_18  and  C_19
REMARK                            x       y       z     vdW  Elec       q    Type
REMARK                         _______ _______ _______ _____ _____    ______ ____
ROOT
ATOM      1  C   UNL     1       4.439   5.345  17.152  0.00  0.00    +0.000 C 
ATOM      2  C   UNL     1       5.645   4.864  17.983  0.00  0.00    +0.000 C 
ATOM      3  C   UNL     1       6.566   5.974  18.465  0.00  0.00    +0.000 C 
ATOM      4  N   UNL     1       7.170   6.575  17.278  0.00  0.00    +0.000 NA
ATOM      5  C   UNL     1       6.132   7.168  16.417  0.00  0.00    +0.000 C 
ATOM      6  C   UNL     1       5.015   6.178  16.014  0.00  0.00    +0.000 C 
ENDROOT
BRANCH   1   8
ATOM      7  O   UNL     1       2.611   6.765  17.786  0.00  0.00    +0.000 OA
ATOM      8  C   UNL     1       3.094   5.628  17.916  0.00  0.00    +0.000 C 
BRANCH   8   9
ATOM      9  C   UNL     1       2.362   4.772  18.935  0.00  0.00    +0.000 A 
ATOM     10  C   UNL     1       2.729   4.950  20.316  0.00  0.00    +0.000 A 
ATOM     11  C   UNL     1       2.200   4.166  21.359  0.00  0.00    +0.000 A 
ATOM     12  C   UNL     1       1.286   3.177  21.037  0.00  0.00    +0.000 A 
ATOM     13  F   UNL     1       0.776   2.397  22.001  0.00  0.00    +0.000 F 
ATOM     14  C   UNL     1       0.902   2.980  19.712  0.00  0.00    +0.000 A 
ATOM     15  C   UNL     1       1.433   3.780  18.673  0.00  0.00    +0.000 A 
ENDBRANCH   8   9
ENDBRANCH   1   8
BRANCH   4  16
ATOM     16  C   UNL     1       8.250   7.525  17.604  0.00  0.00    +0.000 C 
BRANCH  16  17
ATOM     17  C   UNL     1       7.797   8.981  17.867  0.00  0.00    +0.000 C 
BRANCH  17  18
ATOM     18  C   UNL     1       8.739   9.762  18.790  0.00  0.00    +0.000 C 
BRANCH  18  19
ATOM     19  C   UNL     1       9.032  11.163  18.243  0.00  0.00    +0.000 C 
BRANCH  19  20
ATOM     20  C   UNL     1      10.483  11.286  17.763  0.00  0.00    +0.000 C 
BRANCH  20  21
ATOM     21  C   UNL     1      11.019  12.676  17.990  0.00  0.00    +0.000 A 
ATOM     22  C   UNL     1      10.809  13.334  19.209  0.00  0.00    +0.000 A 
ATOM     23  C   UNL     1      11.262  14.640  19.395  0.00  0.00    +0.000 A 
ATOM     24  C   UNL     1      11.924  15.302  18.360  0.00  0.00    +0.000 A 
ATOM     25  C   UNL     1      12.144  14.660  17.145  0.00  0.00    +0.000 A 
ATOM     26  C   UNL     1      11.688  13.356  16.952  0.00  0.00    +0.000 A 
ENDBRANCH  20  21
ENDBRANCH  19  20
ENDBRANCH  18  19
ENDBRANCH  17  18
ENDBRANCH  16  17
ENDBRANCH   4  16
TORSDOF 8
ENDMDL
MODEL 6
REMARK VINA RESULT:      -7.6      6.054      8.827
REMARK  Name = 
REMARK  8 active torsions:
REMARK  status: ('A' for Active; 'I' for Inactive)
REMARK    1  A    between atoms: C_2  and  C_3
REMARK    2  A    between atoms: C_2  and  C_10
REMARK    3  A    between atoms: N_13  and  C_14
REMARK    4  A    between atoms: C_14  and  C_15
REMARK    5  A    between atoms: C_15  and  C_16
REMARK    6  A    between atoms: C_16  and  C_17
REMARK    7  A    between atoms: C_17  and  C_18
REMARK    8  A    between atoms: C_18  and  C_19
REMARK                            x       y       z     vdW  Elec       q    Type
REMARK                         _______ _______ _______ _____ _____    ______ ____
ROOT
ATOM      1  C   UNL     1       2.877   4.247  18.746  0.00  0.00    +0.000 C 
ATOM      2  C   UNL     1       2.365   5.568  18.136  0.00  0.00    +0.000 C 
ATOM      3  C   UNL     1       2.529   6.786  19.032  0.00  0.00    +0.000 C 
ATOM      4  N   UNL     1       1.673   6.578  20.198  0.00  0.00    +0.000 NA
ATOM      5  C   UNL     1       2.103   5.384  20.946  0.00  0.00    +0.000 C 
ATOM      6  C   UNL     1       2.170   4.100  20.087  0.00  0.00    +0.000 C 
ENDROOT
BRANCH   1   8
ATOM      7  O   UNL     1       4.999   3.312  19.361  0.00  0.00    +0.000 OA
ATOM      8  C   UNL     1       4.358   3.824  18.430  0.00  0.00    +0.000 C 
BRANCH   8   9
ATOM      9  C   UNL     1       5.197   4.094  17.193  0.00  0.00    +0.000 A 
ATOM     10  C   UNL     1       6.539   4.569  17.410  0.00  0.00    +0.000 A 
ATOM     11  C   UNL     1       7.401   4.943  16.362  0.00  0.00    +0.000 A 
ATOM     12  C   UNL     1       6.931   4.851  15.062  0.00  0.00    +0.000 A 
ATOM     13  F   UNL     1       7.716   5.218  14.039  0.00  0.00    +0.000 F 
ATOM     14  C   UNL     1       5.640   4.389  14.813  0.00  0.00    +0.000 A 
ATOM     15  C   UNL     1       4.786   4.007  15.874  0.00  0.00    +0.000 A 
ENDBRANCH   8   9
ENDBRANCH   1   8
BRANCH   4  16
ATOM     16  C   UNL     1       1.566   7.776  21.051  0.00  0.00    +0.000 C 
BRANCH  16  17
ATOM     17  C   UNL     1       0.900   9.005  20.391  0.00  0.00    +0.000 C 
BRANCH  17  18
ATOM     18  C   UNL     1       0.719  10.194  21.342  0.00  0.00    +0.000 C 
BRANCH  18  19
ATOM     19  C   UNL     1      -0.632  10.885  21.131  0.00  0.00    +0.000 C 
BRANCH  19  20
ATOM     20  C   UNL     1      -0.609  11.799  19.901  0.00  0.00    +0.000 C 
BRANCH  20  21
ATOM     21  C   UNL     1      -1.592  11.336  18.857  0.00  0.00    +0.000 A 
ATOM     22  C   UNL     1      -2.897  11.844  18.826  0.00  0.00    +0.000 A 
ATOM     23  C   UNL     1      -3.818  11.375  17.891  0.00  0.00    +0.000 A 
ATOM     24  C   UNL     1      -3.444  10.385  16.981  0.00  0.00    +0.000 A 
ATOM     25  C   UNL     1      -2.150   9.874  16.995  0.00  0.00    +0.000 A 
ATOM     26  C   UNL     1      -1.226  10.336  17.932  0.00  0.00    +0.000 A 
ENDBRANCH  20  21
ENDBRANCH  19  20
ENDBRANCH  18  19
ENDBRANCH  17  18
ENDBRANCH  16  17
ENDBRANCH   4  16
TORSDOF 8
ENDMDL
MODEL 7
REMARK VINA RESULT:      -7.5      1.641      2.182
REMARK  Name = 
REMARK  8 active torsions:
REMARK  status: ('A' for Active; 'I' for Inactive)
REMARK    1  A    between atoms: C_2  and  C_3
REMARK    2  A    between atoms: C_2  and  C_10
REMARK    3  A    between atoms: N_13  and  C_14
REMARK    4  A    between atoms: C_14  and  C_15
REMARK    5  A    between atoms: C_15  and  C_16
REMARK    6  A    between atoms: C_16  and  C_17
REMARK    7  A    between atoms: C_17  and  C_18
REMARK    8  A    between atoms: C_18  and  C_19
REMARK                            x       y       z     vdW  Elec       q    Type
REMARK                         _______ _______ _______ _____ _____    ______ ____
ROOT
ATOM      1  C   UNL     1       4.062   5.217  16.919  0.00  0.00    +0.000 C 
ATOM      2  C   UNL     1       5.116   5.180  15.794  0.00  0.00    +0.000 C 
ATOM      3  C   UNL     1       6.532   5.506  16.241  0.00  0.00    +0.000 C 
ATOM      4  N   UNL     1       6.532   6.899  16.682  0.00  0.00    +0.000 NA
ATOM      5  C   UNL     1       5.626   7.076  17.830  0.00  0.00    +0.000 C 
ATOM      6  C   UNL     1       4.182   6.592  17.565  0.00  0.00    +0.000 C 
ENDROOT
BRANCH   1   8
ATOM      7  O   UNL     1       4.131   2.827  17.114  0.00  0.00    +0.000 OA
ATOM      8  C   UNL     1       3.744   3.869  17.665  0.00  0.00    +0.000 C 
BRANCH   8   9
ATOM      9  C   UNL     1       2.884   3.623  18.892  0.00  0.00    +0.000 A 
ATOM     10  C   UNL     1       3.511   2.951  20.000  0.00  0.00    +0.000 A 
ATOM     11  C   UNL     1       2.816   2.578  21.166  0.00  0.00    +0.000 A 
ATOM     12  C   UNL     1       1.465   2.872  21.247  0.00  0.00    +0.000 A 
ATOM     13  F   UNL     1       0.766   2.515  22.333  0.00  0.00    +0.000 F 
ATOM     14  C   UNL     1       0.826   3.529  20.196  0.00  0.00    +0.000 A 
ATOM     15  C   UNL     1       1.536   3.907  19.033  0.00  0.00    +0.000 A 
ENDBRANCH   8   9
ENDBRANCH   1   8
BRANCH   4  16
ATOM     16  C   UNL     1       7.888   7.417  16.943  0.00  0.00    +0.000 C 
BRANCH  16  17
ATOM     17  C   UNL     1       8.033   8.291  18.212  0.00  0.00    +0.000 C 
BRANCH  17  18
ATOM     18  C   UNL     1       8.120   9.793  17.919  0.00  0.00    +0.000 C 
BRANCH  18  19
ATOM     19  C   UNL     1       9.142  10.487  18.826  0.00  0.00    +0.000 C 
BRANCH  19  20
ATOM     20  C   UNL     1      10.419  10.847  18.059  0.00  0.00    +0.000 C 
BRANCH  20  21
ATOM     21  C   UNL     1      10.798  12.290  18.273  0.00  0.00    +0.000 A 
ATOM     22  C   UNL     1      10.586  13.242  17.267  0.00  0.00    +0.000 A 
ATOM     23  C   UNL     1      10.985  14.565  17.450  0.00  0.00    +0.000 A 
ATOM     24  C   UNL     1      11.607  14.948  18.639  0.00  0.00    +0.000 A 
ATOM     25  C   UNL     1      11.820  14.014  19.650  0.00  0.00    +0.000 A 
ATOM     26  C   UNL     1      11.427  12.688  19.470  0.00  0.00    +0.000 A 
ENDBRANCH  20  21
ENDBRANCH  19  20
ENDBRANCH  18  19
ENDBRANCH  17  18
ENDBRANCH  16  17
ENDBRANCH   4  16
TORSDOF 8
ENDMDL
MODEL 8
REMARK VINA RESULT:      -7.5      6.025      8.773
REMARK  Name = 
REMARK  8 active torsions:
REMARK  status: ('A' for Active; 'I' for Inactive)
REMARK    1  A    between atoms: C_2  and  C_3
REMARK    2  A    between atoms: C_2  and  C_10
REMARK    3  A    between atoms: N_13  and  C_14
REMARK    4  A    between atoms: C_14  and  C_15
REMARK    5  A    between atoms: C_15  and  C_16
REMARK    6  A    between atoms: C_16  and  C_17
REMARK    7  A    between atoms: C_17  and  C_18
REMARK    8  A    between atoms: C_18  and  C_19
REMARK                            x       y       z     vdW  Elec       q    Type
REMARK                         _______ _______ _______ _____ _____    ______ ____
ROOT
ATOM      1  C   UNL     1       2.495   4.131  18.862  0.00  0.00    +0.000 C 
ATOM      2  C   UNL     1       2.127   5.477  18.207  0.00  0.00    +0.000 C 
ATOM      3  C   UNL     1       2.440   6.701  19.053  0.00  0.00    +0.000 C 
ATOM      4  N   UNL     1       1.584   6.636  20.235  0.00  0.00    +0.000 NA
ATOM      5  C   UNL     1       1.888   5.429  21.024  0.00  0.00    +0.000 C 
ATOM      6  C   UNL     1       1.797   4.115  20.216  0.00  0.00    +0.000 C 
ENDROOT
BRANCH   1   8
ATOM      7  O   UNL     1       4.293   2.594  19.267  0.00  0.00    +0.000 OA
ATOM      8  C   UNL     1       3.915   3.531  18.547  0.00  0.00    +0.000 C 
BRANCH   8   9
ATOM      9  C   UNL     1       4.983   4.029  17.589  0.00  0.00    +0.000 A 
ATOM     10  C   UNL     1       4.730   3.849  16.183  0.00  0.00    +0.000 A 
ATOM     11  C   UNL     1       5.665   4.181  15.185  0.00  0.00    +0.000 A 
ATOM     12  C   UNL     1       6.886   4.704  15.578  0.00  0.00    +0.000 A 
ATOM     13  F   UNL     1       7.809   5.013  14.657  0.00  0.00    +0.000 F 
ATOM     14  C   UNL     1       7.163   4.899  16.930  0.00  0.00    +0.000 A 
ATOM     15  C   UNL     1       6.213   4.570  17.924  0.00  0.00    +0.000 A 
ENDBRANCH   8   9
ENDBRANCH   1   8
BRANCH   4  16
ATOM     16  C   UNL     1       1.626   7.869  21.043  0.00  0.00    +0.000 C 
BRANCH  16  17
ATOM     17  C   UNL     1       0.251   8.493  21.375  0.00  0.00    +0.000 C 
BRANCH  17  18
ATOM     18  C   UNL     1       0.343   9.798  22.174  0.00  0.00    +0.000 C 
BRANCH  18  19
ATOM     19  C   UNL     1      -0.674  10.834  21.683  0.00  0.00    +0.000 C 
BRANCH  19  20
ATOM     20  C   UNL     1      -0.240  11.460  20.353  0.00  0.00    +0.000 C 
BRANCH  20  21
ATOM     21  C   UNL     1      -1.221  11.144  19.253  0.00  0.00    +0.000 A 
ATOM     22  C   UNL     1      -0.902  10.216  18.253  0.00  0.00    +0.000 A 
ATOM     23  C   UNL     1      -1.793   9.966  17.211  0.00  0.00    +0.000 A 
ATOM     24  C   UNL     1      -3.009  10.647  17.153  0.00  0.00    +0.000 A 
ATOM     25  C   UNL     1      -3.342  11.569  18.142  0.00  0.00    +0.000 A 
ATOM     26  C   UNL     1      -2.453  11.827  19.185  0.00  0.00    +0.000 A 
ENDBRANCH  20  21
ENDBRANCH  19  20
ENDBRANCH  18  19
ENDBRANCH  17  18
ENDBRANCH  16  17
ENDBRANCH   4  16
TORSDOF 8
ENDMDL
MODEL 9
REMARK VINA RESULT:      -7.5      1.797      3.042
REMARK  Name = 
REMARK  8 active torsions:
REMARK  status: ('A' for Active; 'I' for Inactive)
REMARK    1  A    between atoms: C_2  and  C_3
REMARK    2  A    between atoms: C_2  and  C_10
REMARK    3  A    between atoms: N_13  and  C_14
REMARK    4  A    between atoms: C_14  and  C_15
REMARK    5  A    between atoms: C_15  and  C_16
REMARK    6  A    between atoms: C_16  and  C_17
REMARK    7  A    between atoms: C_17  and  C_18
REMARK    8  A    between atoms: C_18  and  C_19
REMARK                            x       y       z     vdW  Elec       q    Type
REMARK                         _______ _______ _______ _____ _____    ______ ____
ROOT
ATOM      1  C   UNL     1       6.160   5.144  17.747  0.00  0.00    +0.000 C 
ATOM      2  C   UNL     1       7.649   5.474  17.972  0.00  0.00    +0.000 C 
ATOM      3  C   UNL     1       7.921   6.899  18.429  0.00  0.00    +0.000 C 
ATOM      4  N   UNL     1       7.522   7.783  17.336  0.00  0.00    +0.000 NA
ATOM      5  C   UNL     1       6.081   7.644  17.062  0.00  0.00    +0.000 C 
ATOM      6  C   UNL     1       5.637   6.192  16.774  0.00  0.00    +0.000 C 
ENDROOT
BRANCH   1   8
ATOM      7  O   UNL     1       5.981   4.393  20.019  0.00  0.00    +0.000 OA
ATOM      8  C   UNL     1       5.363   4.519  18.951  0.00  0.00    +0.000 C 
BRANCH   8   9
ATOM      9  C   UNL     1       3.983   3.886  18.971  0.00  0.00    +0.000 A 
ATOM     10  C   UNL     1       3.727   2.854  17.999  0.00  0.00    +0.000 A 
ATOM     11  C   UNL     1       2.471   2.240  17.842  0.00  0.00    +0.000 A 
ATOM     12  C   UNL     1       1.432   2.652  18.661  0.00  0.00    +0.000 A 
ATOM     13  F   UNL     1       0.216   2.105  18.527  0.00  0.00    +0.000 F 
ATOM     14  C   UNL     1       1.644   3.643  19.618  0.00  0.00    +0.000 A 
ATOM     15  C   UNL     1       2.913   4.247  19.773  0.00  0.00    +0.000 A 
ENDBRANCH   8   9
ENDBRANCH   1   8
BRANCH   4  16
ATOM     16  C   UNL     1       7.927   9.184  17.555  0.00  0.00    +0.000 C 
BRANCH  16  17
ATOM     17  C   UNL     1       8.810   9.433  18.800  0.00  0.00    +0.000 C 
BRANCH  17  18
ATOM     18  C   UNL     1       9.789  10.601  18.637  0.00  0.00    +0.000 C 
BRANCH  18  19
ATOM     19  C   UNL     1       9.381  11.805  19.493  0.00  0.00    +0.000 C 
BRANCH  19  20
ATOM     20  C   UNL     1      10.124  11.819  20.833  0.00  0.00    +0.000 C 
BRANCH  20  21
ATOM     21  C   UNL     1       9.270  12.406  21.927  0.00  0.00    +0.000 A 
ATOM     22  C   UNL     1       9.302  13.780  22.200  0.00  0.00    +0.000 A 
ATOM     23  C   UNL     1       8.548  14.310  23.247  0.00  0.00    +0.000 A 
ATOM     24  C   UNL     1       7.761  13.470  24.035  0.00  0.00    +0.000 A 
ATOM     25  C   UNL     1       7.716  12.103  23.773  0.00  0.00    +0.000 A 
ATOM     26  C   UNL     1       8.471  11.567  22.730  0.00  0.00    +0.000 A 
ENDBRANCH  20  21
ENDBRANCH  19  20
ENDBRANCH  18  19
ENDBRANCH  17  18
ENDBRANCH  16  17
ENDBRANCH   4  16
TORSDOF 8
ENDMDL
