MODEL 1
REMARK VINA RESULT:      -6.8      0.000      0.000
REMARK  Name = 
REMARK  8 active torsions:
REMARK  status: ('A' for Active; 'I' for Inactive)
REMARK    1  A    between atoms: C_1  and  C_2
REMARK    2  A    between atoms: C_2  and  O_3
REMARK    3  A    between atoms: O_3  and  C_4
REMARK    4  A    between atoms: C_8  and  N_9
REMARK    5  A    between atoms: C_10  and  C_12
REMARK    6  A    between atoms: C_12  and  C_13
REMARK    7  A    between atoms: C_12  and  C_14
REMARK    8  A    between atoms: C_12  and  C_15
REMARK                            x       y       z     vdW  Elec       q    Type
REMARK                         _______ _______ _______ _____ _____    ______ ____
ROOT
ATOM      1  C   UNL     1       6.077   5.703  16.527  0.00  0.00    +0.000 A 
ATOM      2  C   UNL     1       7.269   5.835  17.237  0.00  0.00    +0.000 A 
ATOM      3  C   UNL     1       7.280   5.672  18.617  0.00  0.00    +0.000 A 
ATOM      4  C   UNL     1       6.098   5.359  19.289  0.00  0.00    +0.000 A 
ATOM      5  C   UNL     1       4.900   5.192  18.600  0.00  0.00    +0.000 A 
ATOM      6  C   UNL     1       4.897   5.368  17.207  0.00  0.00    +0.000 A 
ENDROOT
BRANCH   5   7
ATOM      7  N   UNL     1       3.681   4.848  19.236  0.00  0.00    +0.000 N 
ATOM      8  C   UNL     1       3.276   3.571  19.598  0.00  0.00    +0.000 C 
ATOM      9  O   UNL     1       3.919   2.544  19.395  0.00  0.00    +0.000 OA
ATOM     10  H   UNL     1       3.050   5.613  19.436  0.00  0.00    +0.000 HD
BRANCH   8  11
ATOM     11  C   UNL     1       1.914   3.485  20.319  0.00  0.00    +0.000 C 
ATOM     12  C   UNL     1       1.372   4.897  20.597  0.00  0.00    +0.000 C 
ATOM     13  C   UNL     1       0.920   2.749  19.397  0.00  0.00    +0.000 C 
ATOM     14  C   UNL     1       2.043   2.697  21.626  0.00  0.00    +0.000 C 
ENDBRANCH   8  11
ENDBRANCH   5   7
BRANCH   1  15
ATOM     15  O   UNL     1       6.188   5.860  15.169  0.00  0.00    +0.000 OA
BRANCH  15  17
ATOM     16  C   UNL     1       6.004   3.935  13.758  0.00  0.00    +0.000 C 
ATOM     17  C   UNL     1       6.955   4.862  14.494  0.00  0.00    +0.000 C 
ENDBRANCH  15  17
ENDBRANCH   1  15
TORSDOF 4
ENDMDL
MODEL 2
REMARK VINA RESULT:      -6.7      1.040      1.593
REMARK  Name = 
REMARK  8 active torsions:
REMARK  status: ('A' for Active; 'I' for Inactive)
REMARK    1  A    between atoms: C_1  and  C_2
REMARK    2  A    between atoms: C_2  and  O_3
REMARK    3  A    between atoms: O_3  and  C_4
REMARK    4  A    between atoms: C_8  and  N_9
REMARK    5  A    between atoms: C_10  and  C_12
REMARK    6  A    between atoms: C_12  and  C_13
REMARK    7  A    between atoms: C_12  and  C_14
REMARK    8  A    between atoms: C_12  and  C_15
REMARK                            x       y       z     vdW  Elec       q    Type
REMARK                         _______ _______ _______ _____ _____    ______ ____
ROOT
ATOM      1  C   UNL     1       5.611   4.594  15.574  0.00  0.00    +0.000 A 
ATOM      2  C   UNL     1       6.929   4.644  16.025  0.00  0.00    +0.000 A 
ATOM      3  C   UNL     1       7.201   4.658  17.387  0.00  0.00    +0.000 A 
ATOM      4  C   UNL     1       6.152   4.604  18.306  0.00  0.00    +0.000 A 
ATOM      5  C   UNL     1       4.828   4.523  17.882  0.00  0.00    +0.000 A 
ATOM      6  C   UNL     1       4.562   4.519  16.503  0.00  0.00    +0.000 A 
ENDROOT
BRANCH   5   7
ATOM      7  N   UNL     1       3.732   4.439  18.777  0.00  0.00    +0.000 N 
ATOM      8  C   UNL     1       3.321   3.310  19.469  0.00  0.00    +0.000 C 
ATOM      9  O   UNL     1       3.847   2.202  19.384  0.00  0.00    +0.000 OA
ATOM     10  H   UNL     1       3.200   5.290  18.913  0.00  0.00    +0.000 HD
BRANCH   8  11
ATOM     11  C   UNL     1       2.117   3.508  20.414  0.00  0.00    +0.000 C 
ATOM     12  C   UNL     1       2.361   2.773  21.743  0.00  0.00    +0.000 C 
ATOM     13  C   UNL     1       1.968   5.016  20.706  0.00  0.00    +0.000 C 
ATOM     14  C   UNL     1       0.827   3.008  19.759  0.00  0.00    +0.000 C 
ENDBRANCH   8  11
ENDBRANCH   5   7
BRANCH   1  15
ATOM     15  O   UNL     1       5.462   4.559  14.212  0.00  0.00    +0.000 OA
BRANCH  15  17
ATOM     16  C   UNL     1       5.799   3.274  12.220  0.00  0.00    +0.000 C 
ATOM     17  C   UNL     1       6.430   3.784  13.505  0.00  0.00    +0.000 C 
ENDBRANCH  15  17
ENDBRANCH   1  15
TORSDOF 4
ENDMDL
MODEL 3
REMARK VINA RESULT:      -6.6      0.812      1.359
REMARK  Name = 
REMARK  8 active torsions:
REMARK  status: ('A' for Active; 'I' for Inactive)
REMARK    1  A    between atoms: C_1  and  C_2
REMARK    2  A    between atoms: C_2  and  O_3
REMARK    3  A    between atoms: O_3  and  C_4
REMARK    4  A    between atoms: C_8  and  N_9
REMARK    5  A    between atoms: C_10  and  C_12
REMARK    6  A    between atoms: C_12  and  C_13
REMARK    7  A    between atoms: C_12  and  C_14
REMARK    8  A    between atoms: C_12  and  C_15
REMARK                            x       y       z     vdW  Elec       q    Type
REMARK                         _______ _______ _______ _____ _____    ______ ____
ROOT
ATOM      1  C   UNL     1       6.500   4.356  16.683  0.00  0.00    +0.000 A 
ATOM      2  C   UNL     1       7.575   4.926  17.363  0.00  0.00    +0.000 A 
ATOM      3  C   UNL     1       7.404   5.421  18.650  0.00  0.00    +0.000 A 
ATOM      4  C   UNL     1       6.156   5.330  19.269  0.00  0.00    +0.000 A 
ATOM      5  C   UNL     1       5.074   4.738  18.623  0.00  0.00    +0.000 A 
ATOM      6  C   UNL     1       5.255   4.250  17.319  0.00  0.00    +0.000 A 
ENDROOT
BRANCH   5   7
ATOM      7  N   UNL     1       3.796   4.600  19.221  0.00  0.00    +0.000 N 
ATOM      8  C   UNL     1       3.282   3.451  19.803  0.00  0.00    +0.000 C 
ATOM      9  O   UNL     1       3.865   2.370  19.863  0.00  0.00    +0.000 OA
ATOM     10  H   UNL     1       3.207   5.423  19.212  0.00  0.00    +0.000 HD
BRANCH   8  11
ATOM     11  C   UNL     1       1.874   3.589  20.419  0.00  0.00    +0.000 C 
ATOM     12  C   UNL     1       0.836   2.883  19.530  0.00  0.00    +0.000 C 
ATOM     13  C   UNL     1       1.878   2.909  21.805  0.00  0.00    +0.000 C 
ATOM     14  C   UNL     1       1.505   5.064  20.600  0.00  0.00    +0.000 C 
ENDBRANCH   8  11
ENDBRANCH   5   7
BRANCH   1  15
ATOM     15  O   UNL     1       6.790   3.879  15.430  0.00  0.00    +0.000 OA
BRANCH  15  17
ATOM     16  C   UNL     1       6.171   3.779  13.120  0.00  0.00    +0.000 C 
ATOM     17  C   UNL     1       6.310   4.670  14.343  0.00  0.00    +0.000 C 
ENDBRANCH  15  17
ENDBRANCH   1  15
TORSDOF 4
ENDMDL
MODEL 4
REMARK VINA RESULT:      -6.6      1.388      2.782
REMARK  Name = 
REMARK  8 active torsions:
REMARK  status: ('A' for Active; 'I' for Inactive)
REMARK    1  A    between atoms: C_1  and  C_2
REMARK    2  A    between atoms: C_2  and  O_3
REMARK    3  A    between atoms: O_3  and  C_4
REMARK    4  A    between atoms: C_8  and  N_9
REMARK    5  A    between atoms: C_10  and  C_12
REMARK    6  A    between atoms: C_12  and  C_13
REMARK    7  A    between atoms: C_12  and  C_14
REMARK    8  A    between atoms: C_12  and  C_15
REMARK                            x       y       z     vdW  Elec       q    Type
REMARK                         _______ _______ _______ _____ _____    ______ ____
ROOT
ATOM      1  C   UNL     1       6.868   4.988  17.392  0.00  0.00    +0.000 A 
ATOM      2  C   UNL     1       6.846   4.510  16.083  0.00  0.00    +0.000 A 
ATOM      3  C   UNL     1       5.704   3.896  15.583  0.00  0.00    +0.000 A 
ATOM      4  C   UNL     1       4.571   3.774  16.389  0.00  0.00    +0.000 A 
ATOM      5  C   UNL     1       4.556   4.270  17.690  0.00  0.00    +0.000 A 
ATOM      6  C   UNL     1       5.718   4.881  18.189  0.00  0.00    +0.000 A 
ENDROOT
BRANCH   5   7
ATOM      7  N   UNL     1       3.422   4.193  18.536  0.00  0.00    +0.000 N 
ATOM      8  C   UNL     1       3.237   3.302  19.583  0.00  0.00    +0.000 C 
ATOM      9  O   UNL     1       4.036   2.429  19.914  0.00  0.00    +0.000 OA
ATOM     10  H   UNL     1       2.677   4.852  18.346  0.00  0.00    +0.000 HD
BRANCH   8  11
ATOM     11  C   UNL     1       1.920   3.465  20.371  0.00  0.00    +0.000 C 
ATOM     12  C   UNL     1       2.014   2.722  21.715  0.00  0.00    +0.000 C 
ATOM     13  C   UNL     1       1.701   4.965  20.652  0.00  0.00    +0.000 C 
ATOM     14  C   UNL     1       0.734   2.942  19.555  0.00  0.00    +0.000 C 
ENDBRANCH   8  11
ENDBRANCH   5   7
BRANCH   1  15
ATOM     15  O   UNL     1       8.036   5.597  17.771  0.00  0.00    +0.000 OA
BRANCH  15  17
ATOM     16  C   UNL     1       7.815   7.977  17.635  0.00  0.00    +0.000 C 
ATOM     17  C   UNL     1       7.888   6.776  18.563  0.00  0.00    +0.000 C 
ENDBRANCH  15  17
ENDBRANCH   1  15
TORSDOF 4
ENDMDL
MODEL 5
REMARK VINA RESULT:      -6.6      1.542      2.611
REMARK  Name = 
REMARK  8 active torsions:
REMARK  status: ('A' for Active; 'I' for Inactive)
REMARK    1  A    between atoms: C_1  and  C_2
REMARK    2  A    between atoms: C_2  and  O_3
REMARK    3  A    between atoms: O_3  and  C_4
REMARK    4  A    between atoms: C_8  and  N_9
REMARK    5  A    between atoms: C_10  and  C_12
REMARK    6  A    between atoms: C_12  and  C_13
REMARK    7  A    between atoms: C_12  and  C_14
REMARK    8  A    between atoms: C_12  and  C_15
REMARK                            x       y       z     vdW  Elec       q    Type
REMARK                         _______ _______ _______ _____ _____    ______ ____
ROOT
ATOM      1  C   UNL     1       6.765   5.836  17.732  0.00  0.00    +0.000 A 
ATOM      2  C   UNL     1       7.042   5.165  16.542  0.00  0.00    +0.000 A 
ATOM      3  C   UNL     1       6.154   4.214  16.055  0.00  0.00    +0.000 A 
ATOM      4  C   UNL     1       4.974   3.944  16.750  0.00  0.00    +0.000 A 
ATOM      5  C   UNL     1       4.659   4.623  17.925  0.00  0.00    +0.000 A 
ATOM      6  C   UNL     1       5.568   5.576  18.414  0.00  0.00    +0.000 A 
ENDROOT
BRANCH   5   7
ATOM      7  N   UNL     1       3.462   4.403  18.650  0.00  0.00    +0.000 N 
ATOM      8  C   UNL     1       3.267   3.456  19.644  0.00  0.00    +0.000 C 
ATOM      9  O   UNL     1       4.114   2.651  20.026  0.00  0.00    +0.000 OA
ATOM     10  H   UNL     1       2.677   4.994  18.407  0.00  0.00    +0.000 HD
BRANCH   8  11
ATOM     11  C   UNL     1       1.871   3.458  20.302  0.00  0.00    +0.000 C 
ATOM     12  C   UNL     1       1.413   4.902  20.567  0.00  0.00    +0.000 C 
ATOM     13  C   UNL     1       0.872   2.796  19.330  0.00  0.00    +0.000 C 
ATOM     14  C   UNL     1       1.886   2.656  21.607  0.00  0.00    +0.000 C 
ENDBRANCH   8  11
ENDBRANCH   5   7
BRANCH   1  15
ATOM     15  O   UNL     1       7.698   6.770  18.104  0.00  0.00    +0.000 OA
BRANCH  15  17
ATOM     16  C   UNL     1       8.407   9.054  18.217  0.00  0.00    +0.000 C 
ATOM     17  C   UNL     1       7.621   8.024  17.424  0.00  0.00    +0.000 C 
ENDBRANCH  15  17
ENDBRANCH   1  15
TORSDOF 4
ENDMDL
MODEL 6
REMARK VINA RESULT:      -6.6      1.137      1.161
REMARK  Name = 
REMARK  8 active torsions:
REMARK  status: ('A' for Active; 'I' for Inactive)
REMARK    1  A    between atoms: C_1  and  C_2
REMARK    2  A    between atoms: C_2  and  O_3
REMARK    3  A    between atoms: O_3  and  C_4
REMARK    4  A    between atoms: C_8  and  N_9
REMARK    5  A    between atoms: C_10  and  C_12
REMARK    6  A    between atoms: C_12  and  C_13
REMARK    7  A    between atoms: C_12  and  C_14
REMARK    8  A    between atoms: C_12  and  C_15
REMARK                            x       y       z     vdW  Elec       q    Type
REMARK                         _______ _______ _______ _____ _____    ______ ____
ROOT
ATOM      1  C   UNL     1       5.870   4.071  15.835  0.00  0.00    +0.000 A 
ATOM      2  C   UNL     1       7.128   4.434  16.313  0.00  0.00    +0.000 A 
ATOM      3  C   UNL     1       7.285   4.828  17.636  0.00  0.00    +0.000 A 
ATOM      4  C   UNL     1       6.183   4.842  18.492  0.00  0.00    +0.000 A 
ATOM      5  C   UNL     1       4.921   4.455  18.047  0.00  0.00    +0.000 A 
ATOM      6  C   UNL     1       4.771   4.068  16.706  0.00  0.00    +0.000 A 
ENDROOT
BRANCH   5   7
ATOM      7  N   UNL     1       3.779   4.428  18.886  0.00  0.00    +0.000 N 
ATOM      8  C   UNL     1       3.289   3.326  19.571  0.00  0.00    +0.000 C 
ATOM      9  O   UNL     1       3.773   2.197  19.527  0.00  0.00    +0.000 OA
ATOM     10  H   UNL     1       3.276   5.301  18.984  0.00  0.00    +0.000 HD
BRANCH   8  11
ATOM     11  C   UNL     1       2.048   3.586  20.450  0.00  0.00    +0.000 C 
ATOM     12  C   UNL     1       1.859   5.098  20.665  0.00  0.00    +0.000 C 
ATOM     13  C   UNL     1       0.806   3.034  19.720  0.00  0.00    +0.000 C 
ATOM     14  C   UNL     1       2.180   2.870  21.798  0.00  0.00    +0.000 C 
ENDBRANCH   8  11
ENDBRANCH   5   7
BRANCH   1  15
ATOM     15  O   UNL     1       5.837   3.676  14.522  0.00  0.00    +0.000 OA
BRANCH  15  17
ATOM     16  C   UNL     1       6.669   3.709  12.277  0.00  0.00    +0.000 C 
ATOM     17  C   UNL     1       6.741   4.356  13.650  0.00  0.00    +0.000 C 
ENDBRANCH  15  17
ENDBRANCH   1  15
TORSDOF 4
ENDMDL
MODEL 7
REMARK VINA RESULT:      -6.6      1.547      2.826
REMARK  Name = 
REMARK  8 active torsions:
REMARK  status: ('A' for Active; 'I' for Inactive)
REMARK    1  A    between atoms: C_1  and  C_2
REMARK    2  A    between atoms: C_2  and  O_3
REMARK    3  A    between atoms: O_3  and  C_4
REMARK    4  A    between atoms: C_8  and  N_9
REMARK    5  A    between atoms: C_10  and  C_12
REMARK    6  A    between atoms: C_12  and  C_13
REMARK    7  A    between atoms: C_12  and  C_14
REMARK    8  A    between atoms: C_12  and  C_15
REMARK                            x       y       z     vdW  Elec       q    Type
REMARK                         _______ _______ _______ _____ _____    ______ ____
ROOT
ATOM      1  C   UNL     1       6.778   5.825  17.724  0.00  0.00    +0.000 A 
ATOM      2  C   UNL     1       7.073   5.140  16.546  0.00  0.00    +0.000 A 
ATOM      3  C   UNL     1       6.194   4.181  16.058  0.00  0.00    +0.000 A 
ATOM      4  C   UNL     1       5.006   3.915  16.740  0.00  0.00    +0.000 A 
ATOM      5  C   UNL     1       4.674   4.607  17.902  0.00  0.00    +0.000 A 
ATOM      6  C   UNL     1       5.572   5.568  18.393  0.00  0.00    +0.000 A 
ENDROOT
BRANCH   5   7
ATOM      7  N   UNL     1       3.467   4.390  18.614  0.00  0.00    +0.000 N 
ATOM      8  C   UNL     1       3.263   3.456  19.619  0.00  0.00    +0.000 C 
ATOM      9  O   UNL     1       4.108   2.659  20.022  0.00  0.00    +0.000 OA
ATOM     10  H   UNL     1       2.683   4.975  18.353  0.00  0.00    +0.000 HD
BRANCH   8  11
ATOM     11  C   UNL     1       1.858   3.460  20.257  0.00  0.00    +0.000 C 
ATOM     12  C   UNL     1       0.850   2.769  19.322  0.00  0.00    +0.000 C 
ATOM     13  C   UNL     1       1.921   2.673  21.582  0.00  0.00    +0.000 C 
ATOM     14  C   UNL     1       1.406   4.892  20.560  0.00  0.00    +0.000 C 
ENDBRANCH   8  11
ENDBRANCH   5   7
BRANCH   1  15
ATOM     15  O   UNL     1       7.703   6.766  18.098  0.00  0.00    +0.000 OA
BRANCH  15  17
ATOM     16  C   UNL     1       8.429   9.044  18.208  0.00  0.00    +0.000 C 
ATOM     17  C   UNL     1       7.595   8.031  17.443  0.00  0.00    +0.000 C 
ENDBRANCH  15  17
ENDBRANCH   1  15
TORSDOF 4
ENDMDL
MODEL 8
REMARK VINA RESULT:      -6.5      1.050      1.509
REMARK  Name = 
REMARK  8 active torsions:
REMARK  status: ('A' for Active; 'I' for Inactive)
REMARK    1  A    between atoms: C_1  and  C_2
REMARK    2  A    between atoms: C_2  and  O_3
REMARK    3  A    between atoms: O_3  and  C_4
REMARK    4  A    between atoms: C_8  and  N_9
REMARK    5  A    between atoms: C_10  and  C_12
REMARK    6  A    between atoms: C_12  and  C_13
REMARK    7  A    between atoms: C_12  and  C_14
REMARK    8  A    between atoms: C_12  and  C_15
REMARK                            x       y       z     vdW  Elec       q    Type
REMARK                         _______ _______ _______ _____ _____    ______ ____
ROOT
ATOM      1  C   UNL     1       6.238   5.623  16.427  0.00  0.00    +0.000 A 
ATOM      2  C   UNL     1       7.272   6.178  17.178  0.00  0.00    +0.000 A 
ATOM      3  C   UNL     1       7.305   6.005  18.556  0.00  0.00    +0.000 A 
ATOM      4  C   UNL     1       6.308   5.259  19.187  0.00  0.00    +0.000 A 
ATOM      5  C   UNL     1       5.281   4.667  18.456  0.00  0.00    +0.000 A 
ATOM      6  C   UNL     1       5.252   4.856  17.065  0.00  0.00    +0.000 A 
ENDROOT
BRANCH   5   7
ATOM      7  N   UNL     1       4.263   3.879  19.049  0.00  0.00    +0.000 N 
ATOM      8  C   UNL     1       3.067   4.343  19.575  0.00  0.00    +0.000 C 
ATOM      9  O   UNL     1       2.728   5.524  19.618  0.00  0.00    +0.000 OA
ATOM     10  H   UNL     1       4.439   2.883  19.094  0.00  0.00    +0.000 HD
BRANCH   8  11
ATOM     11  C   UNL     1       2.116   3.259  20.124  0.00  0.00    +0.000 C 
ATOM     12  C   UNL     1       2.074   2.056  19.165  0.00  0.00    +0.000 C 
ATOM     13  C   UNL     1       2.654   2.782  21.489  0.00  0.00    +0.000 C 
ATOM     14  C   UNL     1       0.708   3.827  20.326  0.00  0.00    +0.000 C 
ENDBRANCH   8  11
ENDBRANCH   5   7
BRANCH   1  15
ATOM     15  O   UNL     1       6.320   5.835  15.075  0.00  0.00    +0.000 OA
BRANCH  15  17
ATOM     16  C   UNL     1       6.040   3.946  13.633  0.00  0.00    +0.000 C 
ATOM     17  C   UNL     1       7.040   4.846  14.338  0.00  0.00    +0.000 C 
ENDBRANCH  15  17
ENDBRANCH   1  15
TORSDOF 4
ENDMDL
MODEL 9
REMARK VINA RESULT:      -6.5      1.051      1.053
REMARK  Name = 
REMARK  8 active torsions:
REMARK  status: ('A' for Active; 'I' for Inactive)
REMARK    1  A    between atoms: C_1  and  C_2
REMARK    2  A    between atoms: C_2  and  O_3
REMARK    3  A    between atoms: O_3  and  C_4
REMARK    4  A    between atoms: C_8  and  N_9
REMARK    5  A    between atoms: C_10  and  C_12
REMARK    6  A    between atoms: C_12  and  C_13
REMARK    7  A    between atoms: C_12  and  C_14
REMARK    8  A    between atoms: C_12  and  C_15
REMARK                            x       y       z     vdW  Elec       q    Type
REMARK                         _______ _______ _______ _____ _____    ______ ____
ROOT
ATOM      1  C   UNL     1       6.212   5.546  16.361  0.00  0.00    +0.000 A 
ATOM      2  C   UNL     1       7.217   6.149  17.116  0.00  0.00    +0.000 A 
ATOM      3  C   UNL     1       7.221   6.024  18.499  0.00  0.00    +0.000 A 
ATOM      4  C   UNL     1       6.227   5.277  19.132  0.00  0.00    +0.000 A 
ATOM      5  C   UNL     1       5.230   4.638  18.400  0.00  0.00    +0.000 A 
ATOM      6  C   UNL     1       5.228   4.779  17.003  0.00  0.00    +0.000 A 
ENDROOT
BRANCH   5   7
ATOM      7  N   UNL     1       4.216   3.847  18.996  0.00  0.00    +0.000 N 
ATOM      8  C   UNL     1       3.123   4.316  19.710  0.00  0.00    +0.000 C 
ATOM      9  O   UNL     1       2.891   5.500  19.946  0.00  0.00    +0.000 OA
ATOM     10  H   UNL     1       4.310   2.845  18.891  0.00  0.00    +0.000 HD
BRANCH   8  11
ATOM     11  C   UNL     1       2.146   3.235  20.218  0.00  0.00    +0.000 C 
ATOM     12  C   UNL     1       0.719   3.805  20.292  0.00  0.00    +0.000 C 
ATOM     13  C   UNL     1       2.156   2.059  19.219  0.00  0.00    +0.000 C 
ATOM     14  C   UNL     1       2.582   2.713  21.590  0.00  0.00    +0.000 C 
ENDBRANCH   8  11
ENDBRANCH   5   7
BRANCH   1  15
ATOM     15  O   UNL     1       6.321   5.714  15.005  0.00  0.00    +0.000 OA
BRANCH  15  17
ATOM     16  C   UNL     1       6.001   3.907  13.468  0.00  0.00    +0.000 C 
ATOM     17  C   UNL     1       7.008   4.674  14.307  0.00  0.00    +0.000 C 
ENDBRANCH  15  17
ENDBRANCH   1  15
TORSDOF 4
ENDMDL
