MODEL 1
REMARK VINA RESULT:      -8.0      0.000      0.000
REMARK  Name = 
REMARK  3 active torsions:
REMARK  status: ('A' for Active; 'I' for Inactive)
REMARK    1  A    between atoms: C_1  and  C_2
REMARK    2  A    between atoms: C_10  and  N_11
REMARK    3  A    between atoms: C_12  and  C_14
REMARK                            x       y       z     vdW  Elec       q    Type
REMARK                         _______ _______ _______ _____ _____    ______ ____
ROOT
ATOM      1  C   UNL     1       1.813   4.242  18.185  0.00  0.00    +0.000 C 
ATOM      2  C   UNL     1       3.098   4.807  17.637  0.00  0.00    +0.000 A 
ATOM      3  C   UNL     1       3.846   3.972  16.766  0.00  0.00    +0.000 A 
ATOM      4  C   UNL     1       5.055   4.424  16.205  0.00  0.00    +0.000 A 
ATOM      5  C   UNL     1       6.028   3.870  15.328  0.00  0.00    +0.000 A 
ATOM      6  C   UNL     1       7.010   4.816  15.133  0.00  0.00    +0.000 A 
ATOM      7  N   UNL     1       6.667   5.925  15.858  0.00  0.00    +0.000 N 
ATOM      8  C   UNL     1       5.482   5.705  16.521  0.00  0.00    +0.000 A 
ATOM      9  C   UNL     1       4.765   6.550  17.372  0.00  0.00    +0.000 A 
ATOM     10  C   UNL     1       3.563   6.105  17.948  0.00  0.00    +0.000 A 
ATOM     11  H   UNL     1       7.198   6.784  15.911  0.00  0.00    +0.000 HD
ENDROOT
BRANCH  10  12
ATOM     12  N   UNL     1       2.821   6.955  18.817  0.00  0.00    +0.000 N 
ATOM     13  C   UNL     1       2.212   8.156  18.468  0.00  0.00    +0.000 C 
ATOM     14  O   UNL     1       2.269   8.721  17.379  0.00  0.00    +0.000 OA
ATOM     15  H   UNL     1       2.713   6.680  19.789  0.00  0.00    +0.000 HD
BRANCH  13  16
ATOM     16  C   UNL     1       1.400   8.821  19.535  0.00  0.00    +0.000 A 
ATOM     17  C   UNL     1       1.379   8.244  20.810  0.00  0.00    +0.000 A 
ATOM     18  C   UNL     1       0.712   8.899  21.840  0.00  0.00    +0.000 A 
ATOM     19  C   UNL     1       0.076  10.099  21.558  0.00  0.00    +0.000 A 
ATOM     20 CL   UNL     1      -0.726  10.969  22.804  0.00  0.00    +0.000 Cl
ATOM     21  C   UNL     1       0.120  10.594  20.254  0.00  0.00    +0.000 A 
ATOM     22  N   UNL     1       0.768   9.985  19.224  0.00  0.00    +0.000 NA
ENDBRANCH  13  16
ENDBRANCH  10  12
TORSDOF 2
ENDMDL
MODEL 2
REMARK VINA RESULT:      -7.9      0.643      1.087
REMARK  Name = 
REMARK  3 active torsions:
REMARK  status: ('A' for Active; 'I' for Inactive)
REMARK    1  A    between atoms: C_1  and  C_2
REMARK    2  A    between atoms: C_10  and  N_11
REMARK    3  A    between atoms: C_12  and  C_14
REMARK                            x       y       z     vdW  Elec       q    Type
REMARK                         _______ _______ _______ _____ _____    ______ ____
ROOT
ATOM      1  C   UNL     1       1.869   4.302  18.297  0.00  0.00    +0.000 C 
ATOM      2  C   UNL     1       3.132   4.859  17.694  0.00  0.00    +0.000 A 
ATOM      3  C   UNL     1       3.842   4.016  16.799  0.00  0.00    +0.000 A 
ATOM      4  C   UNL     1       5.028   4.461  16.186  0.00  0.00    +0.000 A 
ATOM      5  C   UNL     1       5.964   3.898  15.274  0.00  0.00    +0.000 A 
ATOM      6  C   UNL     1       6.939   4.841  15.032  0.00  0.00    +0.000 A 
ATOM      7  N   UNL     1       6.629   5.955  15.763  0.00  0.00    +0.000 N 
ATOM      8  C   UNL     1       5.471   5.743  16.475  0.00  0.00    +0.000 A 
ATOM      9  C   UNL     1       4.791   6.596  17.348  0.00  0.00    +0.000 A 
ATOM     10  C   UNL     1       3.612   6.158  17.976  0.00  0.00    +0.000 A 
ATOM     11  H   UNL     1       7.163   6.814  15.788  0.00  0.00    +0.000 HD
ENDROOT
BRANCH  10  12
ATOM     12  N   UNL     1       2.908   7.016  18.868  0.00  0.00    +0.000 N 
ATOM     13  C   UNL     1       2.203   8.164  18.519  0.00  0.00    +0.000 C 
ATOM     14  O   UNL     1       2.127   8.669  17.403  0.00  0.00    +0.000 OA
ATOM     15  H   UNL     1       2.906   6.790  19.859  0.00  0.00    +0.000 HD
BRANCH  13  16
ATOM     16  C   UNL     1       1.459   8.845  19.624  0.00  0.00    +0.000 A 
ATOM     17  C   UNL     1       0.688   9.971  19.309  0.00  0.00    +0.000 A 
ATOM     18  C   UNL     1      -0.089  10.559  20.302  0.00  0.00    +0.000 A 
ATOM     19  C   UNL     1      -0.058  10.013  21.578  0.00  0.00    +0.000 A 
ATOM     20 CL   UNL     1      -1.032  10.675  22.829  0.00  0.00    +0.000 Cl
ATOM     21  C   UNL     1       0.758   8.907  21.816  0.00  0.00    +0.000 A 
ATOM     22  N   UNL     1       1.525   8.301  20.869  0.00  0.00    +0.000 NA
ENDBRANCH  13  16
ENDBRANCH  10  12
TORSDOF 2
ENDMDL
MODEL 3
REMARK VINA RESULT:      -7.0      1.095      1.108
REMARK  Name = 
REMARK  3 active torsions:
REMARK  status: ('A' for Active; 'I' for Inactive)
REMARK    1  A    between atoms: C_1  and  C_2
REMARK    2  A    between atoms: C_10  and  N_11
REMARK    3  A    between atoms: C_12  and  C_14
REMARK                            x       y       z     vdW  Elec       q    Type
REMARK                         _______ _______ _______ _____ _____    ______ ____
ROOT
ATOM      1  C   UNL     1       1.628   4.340  18.028  0.00  0.00    +0.000 C 
ATOM      2  C   UNL     1       2.942   4.876  17.521  0.00  0.00    +0.000 A 
ATOM      3  C   UNL     1       3.775   3.969  16.815  0.00  0.00    +0.000 A 
ATOM      4  C   UNL     1       5.016   4.389  16.301  0.00  0.00    +0.000 A 
ATOM      5  C   UNL     1       6.069   3.767  15.574  0.00  0.00    +0.000 A 
ATOM      6  C   UNL     1       7.044   4.713  15.347  0.00  0.00    +0.000 A 
ATOM      7  N   UNL     1       6.621   5.888  15.909  0.00  0.00    +0.000 N 
ATOM      8  C   UNL     1       5.390   5.710  16.498  0.00  0.00    +0.000 A 
ATOM      9  C   UNL     1       4.589   6.626  17.185  0.00  0.00    +0.000 A 
ATOM     10  C   UNL     1       3.354   6.214  17.712  0.00  0.00    +0.000 A 
ATOM     11  H   UNL     1       7.128   6.762  15.902  0.00  0.00    +0.000 HD
ENDROOT
BRANCH  10  12
ATOM     12  N   UNL     1       2.526   7.137  18.415  0.00  0.00    +0.000 N 
ATOM     13  C   UNL     1       2.259   7.125  19.780  0.00  0.00    +0.000 C 
ATOM     14  O   UNL     1       2.629   6.286  20.596  0.00  0.00    +0.000 OA
ATOM     15  H   UNL     1       2.076   7.881  17.890  0.00  0.00    +0.000 HD
BRANCH  13  16
ATOM     16  C   UNL     1       1.438   8.262  20.303  0.00  0.00    +0.000 A 
ATOM     17  C   UNL     1       1.052   8.238  21.648  0.00  0.00    +0.000 A 
ATOM     18  C   UNL     1       0.374   9.331  22.179  0.00  0.00    +0.000 A 
ATOM     19  C   UNL     1       0.091  10.403  21.344  0.00  0.00    +0.000 A 
ATOM     20 CL   UNL     1      -0.707  11.795  21.959  0.00  0.00    +0.000 Cl
ATOM     21  C   UNL     1       0.485  10.337  20.007  0.00  0.00    +0.000 A 
ATOM     22  N   UNL     1       1.156   9.289  19.456  0.00  0.00    +0.000 NA
ENDBRANCH  13  16
ENDBRANCH  10  12
TORSDOF 2
ENDMDL
MODEL 4
REMARK VINA RESULT:      -7.0      4.058      5.080
REMARK  Name = 
REMARK  3 active torsions:
REMARK  status: ('A' for Active; 'I' for Inactive)
REMARK    1  A    between atoms: C_1  and  C_2
REMARK    2  A    between atoms: C_10  and  N_11
REMARK    3  A    between atoms: C_12  and  C_14
REMARK                            x       y       z     vdW  Elec       q    Type
REMARK                         _______ _______ _______ _____ _____    ______ ____
ROOT
ATOM      1  C   UNL     1       7.070   6.118  17.510  0.00  0.00    +0.000 C 
ATOM      2  C   UNL     1       6.725   5.307  16.288  0.00  0.00    +0.000 A 
ATOM      3  C   UNL     1       7.462   5.581  15.107  0.00  0.00    +0.000 A 
ATOM      4  C   UNL     1       7.208   4.865  13.922  0.00  0.00    +0.000 A 
ATOM      5  C   UNL     1       7.736   4.882  12.601  0.00  0.00    +0.000 A 
ATOM      6  C   UNL     1       7.073   3.922  11.868  0.00  0.00    +0.000 A 
ATOM      7  N   UNL     1       6.163   3.322  12.696  0.00  0.00    +0.000 N 
ATOM      8  C   UNL     1       6.227   3.885  13.950  0.00  0.00    +0.000 A 
ATOM      9  C   UNL     1       5.488   3.591  15.099  0.00  0.00    +0.000 A 
ATOM     10  C   UNL     1       5.725   4.307  16.284  0.00  0.00    +0.000 A 
ATOM     11  H   UNL     1       5.530   2.577  12.438  0.00  0.00    +0.000 HD
ENDROOT
BRANCH  10  12
ATOM     12  N   UNL     1       4.980   4.019  17.463  0.00  0.00    +0.000 N 
ATOM     13  C   UNL     1       3.876   4.724  17.930  0.00  0.00    +0.000 C 
ATOM     14  O   UNL     1       3.400   5.749  17.449  0.00  0.00    +0.000 OA
ATOM     15  H   UNL     1       5.264   3.228  18.035  0.00  0.00    +0.000 HD
BRANCH  13  16
ATOM     16  C   UNL     1       3.198   4.166  19.142  0.00  0.00    +0.000 A 
ATOM     17  C   UNL     1       1.951   4.688  19.504  0.00  0.00    +0.000 A 
ATOM     18  C   UNL     1       1.260   4.117  20.568  0.00  0.00    +0.000 A 
ATOM     19  C   UNL     1       1.844   3.054  21.242  0.00  0.00    +0.000 A 
ATOM     20 CL   UNL     1       1.014   2.286  22.536  0.00  0.00    +0.000 Cl
ATOM     21  C   UNL     1       3.103   2.610  20.836  0.00  0.00    +0.000 A 
ATOM     22  N   UNL     1       3.805   3.139  19.797  0.00  0.00    +0.000 NA
ENDBRANCH  13  16
ENDBRANCH  10  12
TORSDOF 2
ENDMDL
MODEL 5
REMARK VINA RESULT:      -6.9      1.277      1.596
REMARK  Name = 
REMARK  3 active torsions:
REMARK  status: ('A' for Active; 'I' for Inactive)
REMARK    1  A    between atoms: C_1  and  C_2
REMARK    2  A    between atoms: C_10  and  N_11
REMARK    3  A    between atoms: C_12  and  C_14
REMARK                            x       y       z     vdW  Elec       q    Type
REMARK                         _______ _______ _______ _____ _____    ______ ____
ROOT
ATOM      1  C   UNL     1       1.637   5.067  20.284  0.00  0.00    +0.000 C 
ATOM      2  C   UNL     1       2.539   5.541  19.175  0.00  0.00    +0.000 A 
ATOM      3  C   UNL     1       3.217   4.543  18.427  0.00  0.00    +0.000 A 
ATOM      4  C   UNL     1       4.074   4.899  17.369  0.00  0.00    +0.000 A 
ATOM      5  C   UNL     1       4.887   4.185  16.446  0.00  0.00    +0.000 A 
ATOM      6  C   UNL     1       5.503   5.104  15.625  0.00  0.00    +0.000 A 
ATOM      7  N   UNL     1       5.093   6.350  16.016  0.00  0.00    +0.000 N 
ATOM      8  C   UNL     1       4.225   6.247  17.078  0.00  0.00    +0.000 A 
ATOM      9  C   UNL     1       3.568   7.251  17.794  0.00  0.00    +0.000 A 
ATOM     10  C   UNL     1       2.720   6.907  18.860  0.00  0.00    +0.000 A 
ATOM     11  H   UNL     1       5.379   7.225  15.597  0.00  0.00    +0.000 HD
ENDROOT
BRANCH  10  12
ATOM     12  N   UNL     1       2.043   7.920  19.599  0.00  0.00    +0.000 N 
ATOM     13  C   UNL     1       1.319   8.981  19.066  0.00  0.00    +0.000 C 
ATOM     14  O   UNL     1       1.199   9.266  17.878  0.00  0.00    +0.000 OA
ATOM     15  H   UNL     1       2.079   7.885  20.614  0.00  0.00    +0.000 HD
BRANCH  13  16
ATOM     16  C   UNL     1       0.611   9.860  20.048  0.00  0.00    +0.000 A 
ATOM     17  C   UNL     1       0.208   9.302  21.267  0.00  0.00    +0.000 A 
ATOM     18  C   UNL     1      -0.362  10.124  22.234  0.00  0.00    +0.000 A 
ATOM     19  C   UNL     1      -0.526  11.471  21.944  0.00  0.00    +0.000 A 
ATOM     20 CL   UNL     1      -1.187  12.537  23.118  0.00  0.00    +0.000 Cl
ATOM     21  C   UNL     1      -0.124  11.944  20.694  0.00  0.00    +0.000 A 
ATOM     22  N   UNL     1       0.444  11.171  19.728  0.00  0.00    +0.000 NA
ENDBRANCH  13  16
ENDBRANCH  10  12
TORSDOF 2
ENDMDL
MODEL 6
REMARK VINA RESULT:      -6.9      1.201      1.617
REMARK  Name = 
REMARK  3 active torsions:
REMARK  status: ('A' for Active; 'I' for Inactive)
REMARK    1  A    between atoms: C_1  and  C_2
REMARK    2  A    between atoms: C_10  and  N_11
REMARK    3  A    between atoms: C_12  and  C_14
REMARK                            x       y       z     vdW  Elec       q    Type
REMARK                         _______ _______ _______ _____ _____    ______ ____
ROOT
ATOM      1  C   UNL     1       1.855   4.936  19.660  0.00  0.00    +0.000 C 
ATOM      2  C   UNL     1       2.801   5.465  18.614  0.00  0.00    +0.000 A 
ATOM      3  C   UNL     1       3.538   4.507  17.870  0.00  0.00    +0.000 A 
ATOM      4  C   UNL     1       4.439   4.916  16.868  0.00  0.00    +0.000 A 
ATOM      5  C   UNL     1       5.312   4.249  15.965  0.00  0.00    +0.000 A 
ATOM      6  C   UNL     1       5.948   5.207  15.207  0.00  0.00    +0.000 A 
ATOM      7  N   UNL     1       5.491   6.431  15.616  0.00  0.00    +0.000 N 
ATOM      8  C   UNL     1       4.574   6.275  16.629  0.00  0.00    +0.000 A 
ATOM      9  C   UNL     1       3.860   7.241  17.342  0.00  0.00    +0.000 A 
ATOM     10  C   UNL     1       2.967   6.845  18.353  0.00  0.00    +0.000 A 
ATOM     11  H   UNL     1       5.778   7.325  15.240  0.00  0.00    +0.000 HD
ENDROOT
BRANCH  10  12
ATOM     12  N   UNL     1       2.231   7.818  19.088  0.00  0.00    +0.000 N 
ATOM     13  C   UNL     1       1.702   9.001  18.584  0.00  0.00    +0.000 C 
ATOM     14  O   UNL     1       1.836   9.441  17.446  0.00  0.00    +0.000 OA
ATOM     15  H   UNL     1       2.066   7.655  20.078  0.00  0.00    +0.000 HD
BRANCH  13  16
ATOM     16  C   UNL     1       0.879   9.815  19.532  0.00  0.00    +0.000 A 
ATOM     17  C   UNL     1      -0.036  10.731  18.999  0.00  0.00    +0.000 A 
ATOM     18  C   UNL     1      -0.879  11.425  19.861  0.00  0.00    +0.000 A 
ATOM     19  C   UNL     1      -0.770  11.193  21.224  0.00  0.00    +0.000 A 
ATOM     20 CL   UNL     1      -1.817  11.993  22.327  0.00  0.00    +0.000 Cl
ATOM     21  C   UNL     1       0.186  10.284  21.677  0.00  0.00    +0.000 A 
ATOM     22  N   UNL     1       1.023   9.582  20.865  0.00  0.00    +0.000 NA
ENDBRANCH  13  16
ENDBRANCH  10  12
TORSDOF 2
ENDMDL
MODEL 7
REMARK VINA RESULT:      -6.9      1.256      1.506
REMARK  Name = 
REMARK  3 active torsions:
REMARK  status: ('A' for Active; 'I' for Inactive)
REMARK    1  A    between atoms: C_1  and  C_2
REMARK    2  A    between atoms: C_10  and  N_11
REMARK    3  A    between atoms: C_12  and  C_14
REMARK                            x       y       z     vdW  Elec       q    Type
REMARK                         _______ _______ _______ _____ _____    ______ ____
ROOT
ATOM      1  C   UNL     1       1.628   4.419  18.002  0.00  0.00    +0.000 C 
ATOM      2  C   UNL     1       2.957   4.934  17.514  0.00  0.00    +0.000 A 
ATOM      3  C   UNL     1       3.780   4.019  16.807  0.00  0.00    +0.000 A 
ATOM      4  C   UNL     1       5.034   4.420  16.310  0.00  0.00    +0.000 A 
ATOM      5  C   UNL     1       6.082   3.785  15.586  0.00  0.00    +0.000 A 
ATOM      6  C   UNL     1       7.077   4.714  15.380  0.00  0.00    +0.000 A 
ATOM      7  N   UNL     1       6.672   5.891  15.951  0.00  0.00    +0.000 N 
ATOM      8  C   UNL     1       5.432   5.731  16.525  0.00  0.00    +0.000 A 
ATOM      9  C   UNL     1       4.642   6.655  17.214  0.00  0.00    +0.000 A 
ATOM     10  C   UNL     1       3.393   6.262  17.725  0.00  0.00    +0.000 A 
ATOM     11  H   UNL     1       7.196   6.755  15.959  0.00  0.00    +0.000 HD
ENDROOT
BRANCH  10  12
ATOM     12  N   UNL     1       2.577   7.193  18.429  0.00  0.00    +0.000 N 
ATOM     13  C   UNL     1       2.283   7.162  19.788  0.00  0.00    +0.000 C 
ATOM     14  O   UNL     1       2.614   6.297  20.594  0.00  0.00    +0.000 OA
ATOM     15  H   UNL     1       2.157   7.959  17.911  0.00  0.00    +0.000 HD
BRANCH  13  16
ATOM     16  C   UNL     1       1.482   8.311  20.318  0.00  0.00    +0.000 A 
ATOM     17  C   UNL     1       1.028   9.277  19.412  0.00  0.00    +0.000 A 
ATOM     18  C   UNL     1       0.200  10.297  19.868  0.00  0.00    +0.000 A 
ATOM     19  C   UNL     1      -0.133  10.328  21.215  0.00  0.00    +0.000 A 
ATOM     20 CL   UNL     1      -1.185  11.543  21.821  0.00  0.00    +0.000 Cl
ATOM     21  C   UNL     1       0.384   9.344  22.058  0.00  0.00    +0.000 A 
ATOM     22  N   UNL     1       1.190   8.327  21.647  0.00  0.00    +0.000 NA
ENDBRANCH  13  16
ENDBRANCH  10  12
TORSDOF 2
ENDMDL
MODEL 8
REMARK VINA RESULT:      -6.8      3.819      7.657
REMARK  Name = 
REMARK  3 active torsions:
REMARK  status: ('A' for Active; 'I' for Inactive)
REMARK    1  A    between atoms: C_1  and  C_2
REMARK    2  A    between atoms: C_10  and  N_11
REMARK    3  A    between atoms: C_12  and  C_14
REMARK                            x       y       z     vdW  Elec       q    Type
REMARK                         _______ _______ _______ _____ _____    ______ ____
ROOT
ATOM      1  C   UNL     1       3.590   4.350  19.492  0.00  0.00    +0.000 C 
ATOM      2  C   UNL     1       3.024   5.735  19.315  0.00  0.00    +0.000 A 
ATOM      3  C   UNL     1       2.321   6.288  20.417  0.00  0.00    +0.000 A 
ATOM      4  C   UNL     1       1.766   7.579  20.339  0.00  0.00    +0.000 A 
ATOM      5  C   UNL     1       1.021   8.411  21.219  0.00  0.00    +0.000 A 
ATOM      6  C   UNL     1       0.762   9.595  20.564  0.00  0.00    +0.000 A 
ATOM      7  N   UNL     1       1.324   9.512  19.318  0.00  0.00    +0.000 N 
ATOM      8  C   UNL     1       1.937   8.291  19.161  0.00  0.00    +0.000 A 
ATOM      9  C   UNL     1       2.627   7.775  18.061  0.00  0.00    +0.000 A 
ATOM     10  C   UNL     1       3.175   6.482  18.124  0.00  0.00    +0.000 A 
ATOM     11  H   UNL     1       1.297  10.232  18.609  0.00  0.00    +0.000 HD
ENDROOT
BRANCH  10  12
ATOM     12  N   UNL     1       3.881   5.942  17.011  0.00  0.00    +0.000 N 
ATOM     13  C   UNL     1       5.230   6.129  16.726  0.00  0.00    +0.000 C 
ATOM     14  O   UNL     1       6.020   6.842  17.339  0.00  0.00    +0.000 OA
ATOM     15  H   UNL     1       3.373   5.364  16.348  0.00  0.00    +0.000 HD
BRANCH  13  16
ATOM     16  C   UNL     1       5.768   5.374  15.551  0.00  0.00    +0.000 A 
ATOM     17  C   UNL     1       4.944   4.423  14.939  0.00  0.00    +0.000 A 
ATOM     18  C   UNL     1       5.388   3.782  13.787  0.00  0.00    +0.000 A 
ATOM     19  C   UNL     1       6.645   4.101  13.295  0.00  0.00    +0.000 A 
ATOM     20 CL   UNL     1       7.224   3.370  11.852  0.00  0.00    +0.000 Cl
ATOM     21  C   UNL     1       7.417   5.040  13.980  0.00  0.00    +0.000 A 
ATOM     22  N   UNL     1       7.013   5.692  15.104  0.00  0.00    +0.000 NA
ENDBRANCH  13  16
ENDBRANCH  10  12
TORSDOF 2
ENDMDL
MODEL 9
REMARK VINA RESULT:      -6.7      4.883      7.994
REMARK  Name = 
REMARK  3 active torsions:
REMARK  status: ('A' for Active; 'I' for Inactive)
REMARK    1  A    between atoms: C_1  and  C_2
REMARK    2  A    between atoms: C_10  and  N_11
REMARK    3  A    between atoms: C_12  and  C_14
REMARK                            x       y       z     vdW  Elec       q    Type
REMARK                         _______ _______ _______ _____ _____    ______ ____
ROOT
ATOM      1  C   UNL     1       3.549   7.164  17.777  0.00  0.00    +0.000 C 
ATOM      2  C   UNL     1       3.469   5.813  18.440  0.00  0.00    +0.000 A 
ATOM      3  C   UNL     1       2.799   5.749  19.690  0.00  0.00    +0.000 A 
ATOM      4  C   UNL     1       2.673   4.525  20.373  0.00  0.00    +0.000 A 
ATOM      5  C   UNL     1       2.090   4.113  21.603  0.00  0.00    +0.000 A 
ATOM      6  C   UNL     1       2.285   2.755  21.729  0.00  0.00    +0.000 A 
ATOM      7  N   UNL     1       2.963   2.328  20.620  0.00  0.00    +0.000 N 
ATOM      8  C   UNL     1       3.212   3.391  19.784  0.00  0.00    +0.000 A 
ATOM      9  C   UNL     1       3.873   3.423  18.553  0.00  0.00    +0.000 A 
ATOM     10  C   UNL     1       4.015   4.641  17.868  0.00  0.00    +0.000 A 
ATOM     11  H   UNL     1       3.248   1.376  20.431  0.00  0.00    +0.000 HD
ENDROOT
BRANCH  10  12
ATOM     12  N   UNL     1       4.686   4.689  16.612  0.00  0.00    +0.000 N 
ATOM     13  C   UNL     1       6.059   4.593  16.410  0.00  0.00    +0.000 C 
ATOM     14  O   UNL     1       6.927   4.523  17.276  0.00  0.00    +0.000 OA
ATOM     15  H   UNL     1       4.130   4.806  15.769  0.00  0.00    +0.000 HD
BRANCH  13  16
ATOM     16  C   UNL     1       6.518   4.569  14.986  0.00  0.00    +0.000 A 
ATOM     17  C   UNL     1       5.805   3.784  14.072  0.00  0.00    +0.000 A 
ATOM     18  C   UNL     1       6.154   3.824  12.726  0.00  0.00    +0.000 A 
ATOM     19  C   UNL     1       7.214   4.634  12.342  0.00  0.00    +0.000 A 
ATOM     20 CL   UNL     1       7.659   4.752  10.686  0.00  0.00    +0.000 Cl
ATOM     21  C   UNL     1       7.892   5.364  13.318  0.00  0.00    +0.000 A 
ATOM     22  N   UNL     1       7.574   5.355  14.642  0.00  0.00    +0.000 NA
ENDBRANCH  13  16
ENDBRANCH  10  12
TORSDOF 2
ENDMDL
