MODEL 1
REMARK VINA RESULT:      -8.8      0.000      0.000
REMARK  Name = 
REMARK  4 active torsions:
REMARK  status: ('A' for Active; 'I' for Inactive)
REMARK    1  A    between atoms: C_7  and  N_8
REMARK    2  A    between atoms: N_8  and  C_9
REMARK    3  A    between atoms: C_9  and  N_10
REMARK    4  A    between atoms: C_12  and  C_13
REMARK                            x       y       z     vdW  Elec       q    Type
REMARK                         _______ _______ _______ _____ _____    ______ ____
ROOT
ATOM      1  N   UNL     1       4.766   4.792  18.720  0.00  0.00    +0.000 N 
ATOM      2  N   UNL     1       4.043   5.682  19.504  0.00  0.00    +0.000 NA
ATOM      3  C   UNL     1       3.452   6.437  18.623  0.00  0.00    +0.000 A 
ATOM      4  O   UNL     1       3.710   6.134  17.325  0.00  0.00    +0.000 OA
ATOM      5  C   UNL     1       4.554   5.075  17.395  0.00  0.00    +0.000 A 
ATOM      6  S   UNL     1       5.123   4.392  16.005  0.00  0.00    +0.000 S 
ENDROOT
BRANCH   3   7
ATOM      7  C   UNL     1       2.544   7.589  18.830  0.00  0.00    +0.000 A 
ATOM      8  C   UNL     1       2.216   8.421  17.772  0.00  0.00    +0.000 A 
ATOM      9  C   UNL     1       1.315   9.461  18.007  0.00  0.00    +0.000 A 
ATOM     10  C   UNL     1       0.772   9.644  19.290  0.00  0.00    +0.000 A 
ATOM     11  C   UNL     1      -0.156  10.666  19.571  0.00  0.00    +0.000 A 
ATOM     12  C   UNL     1      -0.677  10.819  20.857  0.00  0.00    +0.000 A 
ATOM     13  C   UNL     1      -0.271   9.956  21.866  0.00  0.00    +0.000 A 
ATOM     14  C   UNL     1       0.651   8.943  21.584  0.00  0.00    +0.000 A 
ATOM     15  C   UNL     1       1.180   8.760  20.310  0.00  0.00    +0.000 A 
ATOM     16  N   UNL     1       2.047   7.754  20.086  0.00  0.00    +0.000 NA
ENDBRANCH   3   7
BRANCH   1  17
ATOM     17  C   UNL     1       5.532   3.684  19.288  0.00  0.00    +0.000 C 
BRANCH  17  18
ATOM     18  N   UNL     1       4.708   2.489  19.266  0.00  0.00    +0.000 N 
ATOM     19  H   UNL     1       4.928   1.873  18.493  0.00  0.00    +0.000 HD
BRANCH  18  26
ATOM     20  F   UNL     1       2.506   2.312  17.378  0.00  0.00    +0.000 F 
ATOM     21  C   UNL     1       2.281   2.506  18.688  0.00  0.00    +0.000 A 
ATOM     22  C   UNL     1       0.950   2.676  19.095  0.00  0.00    +0.000 A 
ATOM     23  C   UNL     1       0.653   2.888  20.437  0.00  0.00    +0.000 A 
ATOM     24  C   UNL     1       1.687   2.921  21.368  0.00  0.00    +0.000 A 
ATOM     25  C   UNL     1       3.013   2.746  20.950  0.00  0.00    +0.000 A 
ATOM     26  C   UNL     1       3.350   2.524  19.603  0.00  0.00    +0.000 A 
ENDBRANCH  18  26
ENDBRANCH  17  18
ENDBRANCH   1  17
TORSDOF 4
ENDMDL
MODEL 2
REMARK VINA RESULT:      -8.6      2.532      3.947
REMARK  Name = 
REMARK  4 active torsions:
REMARK  status: ('A' for Active; 'I' for Inactive)
REMARK    1  A    between atoms: C_7  and  N_8
REMARK    2  A    between atoms: N_8  and  C_9
REMARK    3  A    between atoms: C_9  and  N_10
REMARK    4  A    between atoms: C_12  and  C_13
REMARK                            x       y       z     vdW  Elec       q    Type
REMARK                         _______ _______ _______ _____ _____    ______ ____
ROOT
ATOM      1  N   UNL     1       3.342   4.268  19.782  0.00  0.00    +0.000 N 
ATOM      2  N   UNL     1       3.324   5.605  19.405  0.00  0.00    +0.000 NA
ATOM      3  C   UNL     1       2.331   6.090  20.094  0.00  0.00    +0.000 A 
ATOM      4  O   UNL     1       1.688   5.205  20.898  0.00  0.00    +0.000 OA
ATOM      5  C   UNL     1       2.344   4.036  20.692  0.00  0.00    +0.000 A 
ATOM      6  S   UNL     1       1.861   2.678  21.494  0.00  0.00    +0.000 S 
ENDROOT
BRANCH   3   7
ATOM      7  C   UNL     1       1.793   7.470  20.124  0.00  0.00    +0.000 A 
ATOM      8  C   UNL     1       1.881   8.280  19.003  0.00  0.00    +0.000 A 
ATOM      9  C   UNL     1       1.313   9.553  19.065  0.00  0.00    +0.000 A 
ATOM     10  C   UNL     1       0.678   9.983  20.242  0.00  0.00    +0.000 A 
ATOM     11  C   UNL     1       0.072  11.251  20.345  0.00  0.00    +0.000 A 
ATOM     12  C   UNL     1      -0.552  11.647  21.530  0.00  0.00    +0.000 A 
ATOM     13  C   UNL     1      -0.569  10.781  22.614  0.00  0.00    +0.000 A 
ATOM     14  C   UNL     1       0.034   9.523  22.510  0.00  0.00    +0.000 A 
ATOM     15  C   UNL     1       0.655   9.097  21.339  0.00  0.00    +0.000 A 
ATOM     16  N   UNL     1       1.200   7.868  21.282  0.00  0.00    +0.000 NA
ENDBRANCH   3   7
BRANCH   1  17
ATOM     17  C   UNL     1       4.364   3.332  19.315  0.00  0.00    +0.000 C 
BRANCH  17  18
ATOM     18  N   UNL     1       5.532   4.089  18.901  0.00  0.00    +0.000 N 
ATOM     19  H   UNL     1       5.668   4.932  19.444  0.00  0.00    +0.000 HD
BRANCH  18  26
ATOM     20  F   UNL     1       8.210   4.656  17.925  0.00  0.00    +0.000 F 
ATOM     21  C   UNL     1       7.172   4.550  17.078  0.00  0.00    +0.000 A 
ATOM     22  C   UNL     1       7.424   4.781  15.719  0.00  0.00    +0.000 A 
ATOM     23  C   UNL     1       6.390   4.694  14.793  0.00  0.00    +0.000 A 
ATOM     24  C   UNL     1       5.109   4.368  15.230  0.00  0.00    +0.000 A 
ATOM     25  C   UNL     1       4.870   4.135  16.591  0.00  0.00    +0.000 A 
ATOM     26  C   UNL     1       5.893   4.210  17.553  0.00  0.00    +0.000 A 
ENDBRANCH  18  26
ENDBRANCH  17  18
ENDBRANCH   1  17
TORSDOF 4
ENDMDL
MODEL 3
REMARK VINA RESULT:      -8.5      1.041      1.134
REMARK  Name = 
REMARK  4 active torsions:
REMARK  status: ('A' for Active; 'I' for Inactive)
REMARK    1  A    between atoms: C_7  and  N_8
REMARK    2  A    between atoms: N_8  and  C_9
REMARK    3  A    between atoms: C_9  and  N_10
REMARK    4  A    between atoms: C_12  and  C_13
REMARK                            x       y       z     vdW  Elec       q    Type
REMARK                         _______ _______ _______ _____ _____    ______ ____
ROOT
ATOM      1  N   UNL     1       4.070   4.502  17.652  0.00  0.00    +0.000 N 
ATOM      2  N   UNL     1       2.885   5.196  17.861  0.00  0.00    +0.000 NA
ATOM      3  C   UNL     1       3.296   6.368  18.253  0.00  0.00    +0.000 A 
ATOM      4  O   UNL     1       4.643   6.523  18.321  0.00  0.00    +0.000 OA
ATOM      5  C   UNL     1       5.134   5.319  17.933  0.00  0.00    +0.000 A 
ATOM      6  S   UNL     1       6.766   5.083  17.882  0.00  0.00    +0.000 S 
ENDROOT
BRANCH   3   7
ATOM      7  C   UNL     1       2.507   7.558  18.644  0.00  0.00    +0.000 A 
ATOM      8  C   UNL     1       2.235   8.553  17.719  0.00  0.00    +0.000 A 
ATOM      9  C   UNL     1       1.442   9.629  18.123  0.00  0.00    +0.000 A 
ATOM     10  C   UNL     1       0.949   9.684  19.437  0.00  0.00    +0.000 A 
ATOM     11  C   UNL     1       0.129  10.738  19.885  0.00  0.00    +0.000 A 
ATOM     12  C   UNL     1      -0.346  10.761  21.198  0.00  0.00    +0.000 A 
ATOM     13  C   UNL     1      -0.000   9.735  22.067  0.00  0.00    +0.000 A 
ATOM     14  C   UNL     1       0.815   8.690  21.620  0.00  0.00    +0.000 A 
ATOM     15  C   UNL     1       1.295   8.635  20.315  0.00  0.00    +0.000 A 
ATOM     16  N   UNL     1       2.056   7.595  19.928  0.00  0.00    +0.000 NA
ENDBRANCH   3   7
BRANCH   1  17
ATOM     17  C   UNL     1       4.103   3.142  17.115  0.00  0.00    +0.000 C 
BRANCH  17  18
ATOM     18  N   UNL     1       4.083   2.204  18.223  0.00  0.00    +0.000 N 
ATOM     19  H   UNL     1       4.295   1.255  17.939  0.00  0.00    +0.000 HD
BRANCH  18  26
ATOM     20  F   UNL     1       1.202   2.070  17.874  0.00  0.00    +0.000 F 
ATOM     21  C   UNL     1       1.743   2.301  19.082  0.00  0.00    +0.000 A 
ATOM     22  C   UNL     1       0.864   2.530  20.149  0.00  0.00    +0.000 A 
ATOM     23  C   UNL     1       1.363   2.783  21.422  0.00  0.00    +0.000 A 
ATOM     24  C   UNL     1       2.740   2.797  21.625  0.00  0.00    +0.000 A 
ATOM     25  C   UNL     1       3.609   2.562  20.551  0.00  0.00    +0.000 A 
ATOM     26  C   UNL     1       3.139   2.298  19.252  0.00  0.00    +0.000 A 
ENDBRANCH  18  26
ENDBRANCH  17  18
ENDBRANCH   1  17
TORSDOF 4
ENDMDL
MODEL 4
REMARK VINA RESULT:      -8.5      2.073      3.652
REMARK  Name = 
REMARK  4 active torsions:
REMARK  status: ('A' for Active; 'I' for Inactive)
REMARK    1  A    between atoms: C_7  and  N_8
REMARK    2  A    between atoms: N_8  and  C_9
REMARK    3  A    between atoms: C_9  and  N_10
REMARK    4  A    between atoms: C_12  and  C_13
REMARK                            x       y       z     vdW  Elec       q    Type
REMARK                         _______ _______ _______ _____ _____    ______ ____
ROOT
ATOM      1  N   UNL     1       3.795   4.565  19.199  0.00  0.00    +0.000 N 
ATOM      2  N   UNL     1       3.698   5.792  19.842  0.00  0.00    +0.000 NA
ATOM      3  C   UNL     1       2.591   6.286  19.366  0.00  0.00    +0.000 A 
ATOM      4  O   UNL     1       1.938   5.503  18.469  0.00  0.00    +0.000 OA
ATOM      5  C   UNL     1       2.717   4.397  18.368  0.00  0.00    +0.000 A 
ATOM      6  S   UNL     1       2.271   3.175  17.354  0.00  0.00    +0.000 S 
ENDROOT
BRANCH   3   7
ATOM      7  C   UNL     1       1.941   7.586  19.654  0.00  0.00    +0.000 A 
ATOM      8  C   UNL     1       1.853   8.558  18.670  0.00  0.00    +0.000 A 
ATOM      9  C   UNL     1       1.185   9.745  18.975  0.00  0.00    +0.000 A 
ATOM     10  C   UNL     1       0.630   9.931  20.252  0.00  0.00    +0.000 A 
ATOM     11  C   UNL     1      -0.070  11.102  20.601  0.00  0.00    +0.000 A 
ATOM     12  C   UNL     1      -0.610  11.255  21.879  0.00  0.00    +0.000 A 
ATOM     13  C   UNL     1      -0.450  10.240  22.813  0.00  0.00    +0.000 A 
ATOM     14  C   UNL     1       0.247   9.078  22.465  0.00  0.00    +0.000 A 
ATOM     15  C   UNL     1       0.788   8.894  21.196  0.00  0.00    +0.000 A 
ATOM     16  N   UNL     1       1.429   7.747  20.904  0.00  0.00    +0.000 NA
ENDBRANCH   3   7
BRANCH   1  17
ATOM     17  C   UNL     1       4.858   3.604  19.491  0.00  0.00    +0.000 C 
BRANCH  17  18
ATOM     18  N   UNL     1       5.945   3.814  18.552  0.00  0.00    +0.000 N 
ATOM     19  H   UNL     1       6.668   3.109  18.623  0.00  0.00    +0.000 HD
BRANCH  18  26
ATOM     20  F   UNL     1       5.045   5.452  16.327  0.00  0.00    +0.000 F 
ATOM     21  C   UNL     1       6.037   5.864  17.134  0.00  0.00    +0.000 A 
ATOM     22  C   UNL     1       6.654   7.084  16.824  0.00  0.00    +0.000 A 
ATOM     23  C   UNL     1       7.692   7.562  17.617  0.00  0.00    +0.000 A 
ATOM     24  C   UNL     1       8.103   6.821  18.721  0.00  0.00    +0.000 A 
ATOM     25  C   UNL     1       7.476   5.605  19.024  0.00  0.00    +0.000 A 
ATOM     26  C   UNL     1       6.420   5.095  18.247  0.00  0.00    +0.000 A 
ENDBRANCH  18  26
ENDBRANCH  17  18
ENDBRANCH   1  17
TORSDOF 4
ENDMDL
MODEL 5
REMARK VINA RESULT:      -8.4      2.290      3.767
REMARK  Name = 
REMARK  4 active torsions:
REMARK  status: ('A' for Active; 'I' for Inactive)
REMARK    1  A    between atoms: C_7  and  N_8
REMARK    2  A    between atoms: N_8  and  C_9
REMARK    3  A    between atoms: C_9  and  N_10
REMARK    4  A    between atoms: C_12  and  C_13
REMARK                            x       y       z     vdW  Elec       q    Type
REMARK                         _______ _______ _______ _____ _____    ______ ____
ROOT
ATOM      1  N   UNL     1       3.269   4.577  18.224  0.00  0.00    +0.000 N 
ATOM      2  N   UNL     1       2.881   5.888  17.978  0.00  0.00    +0.000 NA
ATOM      3  C   UNL     1       2.459   6.293  19.141  0.00  0.00    +0.000 A 
ATOM      4  O   UNL     1       2.532   5.377  20.141  0.00  0.00    +0.000 OA
ATOM      5  C   UNL     1       3.054   4.277  19.544  0.00  0.00    +0.000 A 
ATOM      6  S   UNL     1       3.304   2.909  20.431  0.00  0.00    +0.000 S 
ENDROOT
BRANCH   3   7
ATOM      7  C   UNL     1       1.901   7.607  19.533  0.00  0.00    +0.000 A 
ATOM      8  C   UNL     1       1.895   8.662  18.635  0.00  0.00    +0.000 A 
ATOM      9  C   UNL     1       1.310   9.865  19.034  0.00  0.00    +0.000 A 
ATOM     10  C   UNL     1       0.753   9.983  20.318  0.00  0.00    +0.000 A 
ATOM     11  C   UNL     1       0.134  11.168  20.760  0.00  0.00    +0.000 A 
ATOM     12  C   UNL     1      -0.411  11.252  22.042  0.00  0.00    +0.000 A 
ATOM     13  C   UNL     1      -0.336  10.154  22.888  0.00  0.00    +0.000 A 
ATOM     14  C   UNL     1       0.280   8.977  22.448  0.00  0.00    +0.000 A 
ATOM     15  C   UNL     1       0.823   8.862  21.172  0.00  0.00    +0.000 A 
ATOM     16  N   UNL     1       1.384   7.700  20.789  0.00  0.00    +0.000 NA
ENDBRANCH   3   7
BRANCH   1  17
ATOM     17  C   UNL     1       3.898   3.737  17.205  0.00  0.00    +0.000 C 
BRANCH  17  18
ATOM     18  N   UNL     1       5.326   3.683  17.465  0.00  0.00    +0.000 N 
ATOM     19  H   UNL     1       5.593   2.890  18.035  0.00  0.00    +0.000 HD
BRANCH  18  26
ATOM     20  F   UNL     1       5.630   5.900  15.611  0.00  0.00    +0.000 F 
ATOM     21  C   UNL     1       6.282   5.885  16.786  0.00  0.00    +0.000 A 
ATOM     22  C   UNL     1       7.154   6.950  17.053  0.00  0.00    +0.000 A 
ATOM     23  C   UNL     1       7.864   6.987  18.248  0.00  0.00    +0.000 A 
ATOM     24  C   UNL     1       7.692   5.965  19.176  0.00  0.00    +0.000 A 
ATOM     25  C   UNL     1       6.814   4.908  18.901  0.00  0.00    +0.000 A 
ATOM     26  C   UNL     1       6.077   4.840  17.705  0.00  0.00    +0.000 A 
ENDBRANCH  18  26
ENDBRANCH  17  18
ENDBRANCH   1  17
TORSDOF 4
ENDMDL
MODEL 6
REMARK VINA RESULT:      -8.3      2.568      4.087
REMARK  Name = 
REMARK  4 active torsions:
REMARK  status: ('A' for Active; 'I' for Inactive)
REMARK    1  A    between atoms: C_7  and  N_8
REMARK    2  A    between atoms: N_8  and  C_9
REMARK    3  A    between atoms: C_9  and  N_10
REMARK    4  A    between atoms: C_12  and  C_13
REMARK                            x       y       z     vdW  Elec       q    Type
REMARK                         _______ _______ _______ _____ _____    ______ ____
ROOT
ATOM      1  N   UNL     1       3.197   4.717  19.781  0.00  0.00    +0.000 N 
ATOM      2  N   UNL     1       3.113   6.074  19.493  0.00  0.00    +0.000 NA
ATOM      3  C   UNL     1       2.117   6.470  20.234  0.00  0.00    +0.000 A 
ATOM      4  O   UNL     1       1.531   5.507  20.991  0.00  0.00    +0.000 OA
ATOM      5  C   UNL     1       2.231   4.383  20.695  0.00  0.00    +0.000 A 
ATOM      6  S   UNL     1       1.825   2.957  21.417  0.00  0.00    +0.000 S 
ENDROOT
BRANCH   3   7
ATOM      7  C   UNL     1       1.522   7.820  20.364  0.00  0.00    +0.000 A 
ATOM      8  C   UNL     1       1.567   8.711  19.304  0.00  0.00    +0.000 A 
ATOM      9  C   UNL     1       0.947   9.951  19.459  0.00  0.00    +0.000 A 
ATOM     10  C   UNL     1       0.305  10.269  20.667  0.00  0.00    +0.000 A 
ATOM     11  C   UNL     1      -0.353  11.499  20.864  0.00  0.00    +0.000 A 
ATOM     12  C   UNL     1      -0.983  11.784  22.077  0.00  0.00    +0.000 A 
ATOM     13  C   UNL     1      -0.955  10.843  23.097  0.00  0.00    +0.000 A 
ATOM     14  C   UNL     1      -0.300   9.622  22.900  0.00  0.00    +0.000 A 
ATOM     15  C   UNL     1       0.327   9.307  21.699  0.00  0.00    +0.000 A 
ATOM     16  N   UNL     1       0.923   8.109  21.551  0.00  0.00    +0.000 NA
ENDBRANCH   3   7
BRANCH   1  17
ATOM     17  C   UNL     1       4.246   3.859  19.233  0.00  0.00    +0.000 C 
BRANCH  17  18
ATOM     18  N   UNL     1       4.779   4.483  18.035  0.00  0.00    +0.000 N 
ATOM     19  H   UNL     1       4.886   3.832  17.267  0.00  0.00    +0.000 HD
BRANCH  18  26
ATOM     20  F   UNL     1       4.979   6.774  16.259  0.00  0.00    +0.000 F 
ATOM     21  C   UNL     1       5.912   6.541  17.198  0.00  0.00    +0.000 A 
ATOM     22  C   UNL     1       7.009   7.413  17.245  0.00  0.00    +0.000 A 
ATOM     23  C   UNL     1       8.012   7.220  18.188  0.00  0.00    +0.000 A 
ATOM     24  C   UNL     1       7.910   6.163  19.087  0.00  0.00    +0.000 A 
ATOM     25  C   UNL     1       6.806   5.300  19.033  0.00  0.00    +0.000 A 
ATOM     26  C   UNL     1       5.771   5.468  18.095  0.00  0.00    +0.000 A 
ENDBRANCH  18  26
ENDBRANCH  17  18
ENDBRANCH   1  17
TORSDOF 4
ENDMDL
MODEL 7
REMARK VINA RESULT:      -8.3      3.978      8.031
REMARK  Name = 
REMARK  4 active torsions:
REMARK  status: ('A' for Active; 'I' for Inactive)
REMARK    1  A    between atoms: C_7  and  N_8
REMARK    2  A    between atoms: N_8  and  C_9
REMARK    3  A    between atoms: C_9  and  N_10
REMARK    4  A    between atoms: C_12  and  C_13
REMARK                            x       y       z     vdW  Elec       q    Type
REMARK                         _______ _______ _______ _____ _____    ______ ____
ROOT
ATOM      1  N   UNL     1       1.018   9.666  19.260  0.00  0.00    +0.000 N 
ATOM      2  N   UNL     1       1.569   8.943  18.210  0.00  0.00    +0.000 NA
ATOM      3  C   UNL     1       2.073   7.899  18.804  0.00  0.00    +0.000 A 
ATOM      4  O   UNL     1       1.907   7.855  20.151  0.00  0.00    +0.000 OA
ATOM      5  C   UNL     1       1.228   8.994  20.437  0.00  0.00    +0.000 A 
ATOM      6  S   UNL     1       0.824   9.331  22.001  0.00  0.00    +0.000 S 
ENDROOT
BRANCH   3   7
ATOM      7  C   UNL     1       2.810   6.753  18.224  0.00  0.00    +0.000 A 
ATOM      8  C   UNL     1       2.337   5.461  18.388  0.00  0.00    +0.000 A 
ATOM      9  C   UNL     1       3.040   4.420  17.778  0.00  0.00    +0.000 A 
ATOM     10  C   UNL     1       4.195   4.697  17.028  0.00  0.00    +0.000 A 
ATOM     11  C   UNL     1       4.926   3.684  16.378  0.00  0.00    +0.000 A 
ATOM     12  C   UNL     1       6.069   3.993  15.639  0.00  0.00    +0.000 A 
ATOM     13  C   UNL     1       6.488   5.314  15.552  0.00  0.00    +0.000 A 
ATOM     14  C   UNL     1       5.761   6.318  16.199  0.00  0.00    +0.000 A 
ATOM     15  C   UNL     1       4.613   6.041  16.934  0.00  0.00    +0.000 A 
ATOM     16  N   UNL     1       3.936   7.047  17.519  0.00  0.00    +0.000 NA
ENDBRANCH   3   7
BRANCH   1  17
ATOM     17  C   UNL     1       0.256  10.897  19.056  0.00  0.00    +0.000 C 
BRANCH  17  18
ATOM     18  N   UNL     1      -1.158  10.595  19.191  0.00  0.00    +0.000 N 
ATOM     19  H   UNL     1      -1.334   9.784  19.771  0.00  0.00    +0.000 HD
BRANCH  18  26
ATOM     20  F   UNL     1      -3.522  12.285  19.191  0.00  0.00    +0.000 F 
ATOM     21  C   UNL     1      -3.230  11.503  18.138  0.00  0.00    +0.000 A 
ATOM     22  C   UNL     1      -4.138  11.493  17.071  0.00  0.00    +0.000 A 
ATOM     23  C   UNL     1      -3.896  10.698  15.956  0.00  0.00    +0.000 A 
ATOM     24  C   UNL     1      -2.742   9.923  15.908  0.00  0.00    +0.000 A 
ATOM     25  C   UNL     1      -1.838   9.944  16.980  0.00  0.00    +0.000 A 
ATOM     26  C   UNL     1      -2.049  10.739  18.120  0.00  0.00    +0.000 A 
ENDBRANCH  18  26
ENDBRANCH  17  18
ENDBRANCH   1  17
TORSDOF 4
ENDMDL
MODEL 8
REMARK VINA RESULT:      -8.3      2.470      3.968
REMARK  Name = 
REMARK  4 active torsions:
REMARK  status: ('A' for Active; 'I' for Inactive)
REMARK    1  A    between atoms: C_7  and  N_8
REMARK    2  A    between atoms: N_8  and  C_9
REMARK    3  A    between atoms: C_9  and  N_10
REMARK    4  A    between atoms: C_12  and  C_13
REMARK                            x       y       z     vdW  Elec       q    Type
REMARK                         _______ _______ _______ _____ _____    ______ ____
ROOT
ATOM      1  N   UNL     1       3.256   4.421  19.143  0.00  0.00    +0.000 N 
ATOM      2  N   UNL     1       3.194   5.651  18.499  0.00  0.00    +0.000 NA
ATOM      3  C   UNL     1       2.487   6.376  19.318  0.00  0.00    +0.000 A 
ATOM      4  O   UNL     1       2.074   5.748  20.449  0.00  0.00    +0.000 OA
ATOM      5  C   UNL     1       2.573   4.492  20.330  0.00  0.00    +0.000 A 
ATOM      6  S   UNL     1       2.286   3.385  21.519  0.00  0.00    +0.000 S 
ENDROOT
BRANCH   3   7
ATOM      7  C   UNL     1       2.059   7.788  19.192  0.00  0.00    +0.000 A 
ATOM      8  C   UNL     1       2.329   8.501  18.035  0.00  0.00    +0.000 A 
ATOM      9  C   UNL     1       1.858   9.812  17.945  0.00  0.00    +0.000 A 
ATOM     10  C   UNL     1       1.137  10.375  19.011  0.00  0.00    +0.000 A 
ATOM     11  C   UNL     1       0.625  11.686  18.959  0.00  0.00    +0.000 A 
ATOM     12  C   UNL     1      -0.089  12.215  20.036  0.00  0.00    +0.000 A 
ATOM     13  C   UNL     1      -0.289  11.438  21.169  0.00  0.00    +0.000 A 
ATOM     14  C   UNL     1       0.222  10.137  21.219  0.00  0.00    +0.000 A 
ATOM     15  C   UNL     1       0.928   9.580  20.157  0.00  0.00    +0.000 A 
ATOM     16  N   UNL     1       1.379   8.315  20.246  0.00  0.00    +0.000 NA
ENDBRANCH   3   7
BRANCH   1  17
ATOM     17  C   UNL     1       4.035   3.298  18.624  0.00  0.00    +0.000 C 
BRANCH  17  18
ATOM     18  N   UNL     1       5.440   3.542  18.895  0.00  0.00    +0.000 N 
ATOM     19  H   UNL     1       5.666   3.486  19.881  0.00  0.00    +0.000 HD
BRANCH  18  26
ATOM     20  F   UNL     1       7.018   5.660  20.107  0.00  0.00    +0.000 F 
ATOM     21  C   UNL     1       6.880   5.575  18.774  0.00  0.00    +0.000 A 
ATOM     22  C   UNL     1       7.478   6.579  18.000  0.00  0.00    +0.000 A 
ATOM     23  C   UNL     1       7.365   6.552  16.614  0.00  0.00    +0.000 A 
ATOM     24  C   UNL     1       6.662   5.516  16.007  0.00  0.00    +0.000 A 
ATOM     25  C   UNL     1       6.071   4.516  16.791  0.00  0.00    +0.000 A 
ATOM     26  C   UNL     1       6.170   4.509  18.194  0.00  0.00    +0.000 A 
ENDBRANCH  18  26
ENDBRANCH  17  18
ENDBRANCH   1  17
TORSDOF 4
ENDMDL
MODEL 9
REMARK VINA RESULT:      -8.2      3.815      8.049
REMARK  Name = 
REMARK  4 active torsions:
REMARK  status: ('A' for Active; 'I' for Inactive)
REMARK    1  A    between atoms: C_7  and  N_8
REMARK    2  A    between atoms: N_8  and  C_9
REMARK    3  A    between atoms: C_9  and  N_10
REMARK    4  A    between atoms: C_12  and  C_13
REMARK                            x       y       z     vdW  Elec       q    Type
REMARK                         _______ _______ _______ _____ _____    ______ ____
ROOT
ATOM      1  N   UNL     1       0.886   9.703  18.989  0.00  0.00    +0.000 N 
ATOM      2  N   UNL     1       1.473   8.954  17.977  0.00  0.00    +0.000 NA
ATOM      3  C   UNL     1       2.036   7.974  18.625  0.00  0.00    +0.000 A 
ATOM      4  O   UNL     1       1.877   7.997  19.973  0.00  0.00    +0.000 OA
ATOM      5  C   UNL     1       1.136   9.111  20.200  0.00  0.00    +0.000 A 
ATOM      6  S   UNL     1       0.718   9.512  21.744  0.00  0.00    +0.000 S 
ENDROOT
BRANCH   3   7
ATOM      7  C   UNL     1       2.834   6.840  18.106  0.00  0.00    +0.000 A 
ATOM      8  C   UNL     1       2.345   5.546  18.184  0.00  0.00    +0.000 A 
ATOM      9  C   UNL     1       3.112   4.518  17.633  0.00  0.00    +0.000 A 
ATOM     10  C   UNL     1       4.345   4.809  17.027  0.00  0.00    +0.000 A 
ATOM     11  C   UNL     1       5.145   3.809  16.440  0.00  0.00    +0.000 A 
ATOM     12  C   UNL     1       6.366   4.132  15.844  0.00  0.00    +0.000 A 
ATOM     13  C   UNL     1       6.792   5.453  15.837  0.00  0.00    +0.000 A 
ATOM     14  C   UNL     1       5.997   6.444  16.421  0.00  0.00    +0.000 A 
ATOM     15  C   UNL     1       4.772   6.153  17.013  0.00  0.00    +0.000 A 
ATOM     16  N   UNL     1       4.033   7.147  17.541  0.00  0.00    +0.000 NA
ENDBRANCH   3   7
BRANCH   1  17
ATOM     17  C   UNL     1       0.056  10.876  18.720  0.00  0.00    +0.000 C 
BRANCH  17  18
ATOM     18  N   UNL     1      -0.717  10.633  17.515  0.00  0.00    +0.000 N 
ATOM     19  H   UNL     1      -0.215  10.878  16.670  0.00  0.00    +0.000 HD
BRANCH  18  26
ATOM     20  F   UNL     1      -2.380  10.330  15.151  0.00  0.00    +0.000 F 
ATOM     21  C   UNL     1      -2.889  10.803  16.301  0.00  0.00    +0.000 A 
ATOM     22  C   UNL     1      -4.235  11.195  16.296  0.00  0.00    +0.000 A 
ATOM     23  C   UNL     1      -4.819  11.700  17.453  0.00  0.00    +0.000 A 
ATOM     24  C   UNL     1      -4.057  11.801  18.613  0.00  0.00    +0.000 A 
ATOM     25  C   UNL     1      -2.714  11.402  18.608  0.00  0.00    +0.000 A 
ATOM     26  C   UNL     1      -2.093  10.883  17.457  0.00  0.00    +0.000 A 
ENDBRANCH  18  26
ENDBRANCH  17  18
ENDBRANCH   1  17
TORSDOF 4
ENDMDL
