MODEL 1
REMARK VINA RESULT:      -7.5      0.000      0.000
REMARK  Name = 
REMARK  8 active torsions:
REMARK  status: ('A' for Active; 'I' for Inactive)
REMARK    1  A    between atoms: C_1  and  O_2
REMARK    2  A    between atoms: O_2  and  C_3
REMARK    3  A    between atoms: C_7  and  C_8
REMARK    4  A    between atoms: C_14  and  S_15
REMARK    5  A    between atoms: S_15  and  C_16
REMARK    6  A    between atoms: C_16  and  C_17
REMARK    7  A    between atoms: N_19  and  C_20
REMARK    8  A    between atoms: C_20  and  C_21
REMARK                            x       y       z     vdW  Elec       q    Type
REMARK                         _______ _______ _______ _____ _____    ______ ____
ROOT
ATOM      1  C   UNL     1       4.078   4.301  18.617  0.00  0.00    +0.000 A 
ATOM      2  C   UNL     1       4.098   3.072  19.179  0.00  0.00    +0.000 A 
ATOM      3  S   UNL     1       2.983   2.907  20.538  0.00  0.00    +0.000 S 
ATOM      4  C   UNL     1       2.535   4.566  20.318  0.00  0.00    +0.000 A 
ATOM      5  N   UNL     1       1.733   5.391  20.925  0.00  0.00    +0.000 NA
ATOM      6  N   UNL     1       1.855   6.602  20.252  0.00  0.00    +0.000 NA
ATOM      7  C   UNL     1       2.724   6.445  19.267  0.00  0.00    +0.000 A 
ATOM      8  N   UNL     1       3.194   5.152  19.275  0.00  0.00    +0.000 N 
ENDROOT
BRANCH   1  13
ATOM      9  C   UNL     1       6.845   5.845  16.590  0.00  0.00    +0.000 A 
ATOM     10  C   UNL     1       6.696   5.155  15.384  0.00  0.00    +0.000 A 
ATOM     11  C   UNL     1       5.697   4.194  15.235  0.00  0.00    +0.000 A 
ATOM     12  C   UNL     1       4.826   3.927  16.289  0.00  0.00    +0.000 A 
ATOM     13  C   UNL     1       4.958   4.618  17.496  0.00  0.00    +0.000 A 
ATOM     14  C   UNL     1       5.990   5.554  17.655  0.00  0.00    +0.000 A 
BRANCH   9  16
ATOM     15  C   UNL     1       7.666   7.900  17.459  0.00  0.00    +0.000 C 
ATOM     16  O   UNL     1       7.844   6.778  16.600  0.00  0.00    +0.000 OA
ENDBRANCH   9  16
ENDBRANCH   1  13
BRANCH   7  17
ATOM     17  S   UNL     1       3.116   7.644  18.075  0.00  0.00    +0.000 S 
BRANCH  17  18
ATOM     18  C   UNL     1       1.480   8.324  17.617  0.00  0.00    +0.000 C 
BRANCH  18  19
ATOM     19  C   UNL     1       1.287   9.723  18.214  0.00  0.00    +0.000 C 
ATOM     20  O   UNL     1       2.151  10.589  18.145  0.00  0.00    +0.000 OA
ATOM     21  N   UNL     1       0.034   9.964  18.741  0.00  0.00    +0.000 N 
ATOM     22  H   UNL     1      -0.535   9.159  18.988  0.00  0.00    +0.000 HD
BRANCH  21  23
ATOM     23  C   UNL     1      -0.287  11.221  19.382  0.00  0.00    +0.000 C 
BRANCH  23  24
ATOM     24  C   UNL     1      -0.538  10.965  20.836  0.00  0.00    +0.000 A 
ATOM     25  C   UNL     1      -0.123   9.888  21.595  0.00  0.00    +0.000 A 
ATOM     26  C   UNL     1      -0.586   9.956  22.942  0.00  0.00    +0.000 A 
ATOM     27  C   UNL     1      -1.332  11.090  23.171  0.00  0.00    +0.000 A 
ATOM     28  S   UNL     1      -1.456  12.069  21.774  0.00  0.00    +0.000 S 
ENDBRANCH  23  24
ENDBRANCH  21  23
ENDBRANCH  18  19
ENDBRANCH  17  18
ENDBRANCH   7  17
TORSDOF 7
ENDMDL
MODEL 2
REMARK VINA RESULT:      -7.2      1.418      1.575
REMARK  Name = 
REMARK  8 active torsions:
REMARK  status: ('A' for Active; 'I' for Inactive)
REMARK    1  A    between atoms: C_1  and  O_2
REMARK    2  A    between atoms: O_2  and  C_3
REMARK    3  A    between atoms: C_7  and  C_8
REMARK    4  A    between atoms: C_14  and  S_15
REMARK    5  A    between atoms: S_15  and  C_16
REMARK    6  A    between atoms: C_16  and  C_17
REMARK    7  A    between atoms: N_19  and  C_20
REMARK    8  A    between atoms: C_20  and  C_21
REMARK                            x       y       z     vdW  Elec       q    Type
REMARK                         _______ _______ _______ _____ _____    ______ ____
ROOT
ATOM      1  C   UNL     1       3.670   3.844  18.175  0.00  0.00    +0.000 A 
ATOM      2  C   UNL     1       3.600   2.552  17.787  0.00  0.00    +0.000 A 
ATOM      3  S   UNL     1       2.234   1.684  18.493  0.00  0.00    +0.000 S 
ATOM      4  C   UNL     1       1.806   3.132  19.342  0.00  0.00    +0.000 A 
ATOM      5  N   UNL     1       0.880   3.459  20.195  0.00  0.00    +0.000 NA
ATOM      6  N   UNL     1       1.111   4.793  20.512  0.00  0.00    +0.000 NA
ATOM      7  C   UNL     1       2.167   5.206  19.830  0.00  0.00    +0.000 A 
ATOM      8  N   UNL     1       2.652   4.169  19.068  0.00  0.00    +0.000 N 
ENDROOT
BRANCH   1  13
ATOM      9  C   UNL     1       6.880   5.803  18.095  0.00  0.00    +0.000 A 
ATOM     10  C   UNL     1       6.869   6.263  16.776  0.00  0.00    +0.000 A 
ATOM     11  C   UNL     1       5.818   5.936  15.919  0.00  0.00    +0.000 A 
ATOM     12  C   UNL     1       4.759   5.158  16.384  0.00  0.00    +0.000 A 
ATOM     13  C   UNL     1       4.753   4.702  17.705  0.00  0.00    +0.000 A 
ATOM     14  C   UNL     1       5.833   4.999  18.549  0.00  0.00    +0.000 A 
BRANCH   9  16
ATOM     15  C   UNL     1       8.209   5.500  20.043  0.00  0.00    +0.000 C 
ATOM     16  O   UNL     1       7.951   6.214  18.839  0.00  0.00    +0.000 OA
ENDBRANCH   9  16
ENDBRANCH   1  13
BRANCH   7  17
ATOM     17  S   UNL     1       2.769   6.833  19.803  0.00  0.00    +0.000 S 
BRANCH  17  18
ATOM     18  C   UNL     1       2.206   7.457  18.178  0.00  0.00    +0.000 C 
BRANCH  18  19
ATOM     19  C   UNL     1       1.800   8.932  18.273  0.00  0.00    +0.000 C 
ATOM     20  O   UNL     1       2.036   9.736  17.380  0.00  0.00    +0.000 OA
ATOM     21  N   UNL     1       1.059   9.262  19.392  0.00  0.00    +0.000 N 
ATOM     22  H   UNL     1       1.109   8.635  20.190  0.00  0.00    +0.000 HD
BRANCH  21  23
ATOM     23  C   UNL     1       0.643  10.623  19.647  0.00  0.00    +0.000 C 
BRANCH  23  24
ATOM     24  C   UNL     1       0.005  10.683  21.001  0.00  0.00    +0.000 A 
ATOM     25  C   UNL     1       0.009   9.715  21.987  0.00  0.00    +0.000 A 
ATOM     26  C   UNL     1      -0.742  10.101  23.136  0.00  0.00    +0.000 A 
ATOM     27  C   UNL     1      -1.288  11.356  22.994  0.00  0.00    +0.000 A 
ATOM     28  S   UNL     1      -0.882  12.066  21.492  0.00  0.00    +0.000 S 
ENDBRANCH  23  24
ENDBRANCH  21  23
ENDBRANCH  18  19
ENDBRANCH  17  18
ENDBRANCH   7  17
TORSDOF 7
ENDMDL
MODEL 3
REMARK VINA RESULT:      -7.2      1.612      2.089
REMARK  Name = 
REMARK  8 active torsions:
REMARK  status: ('A' for Active; 'I' for Inactive)
REMARK    1  A    between atoms: C_1  and  O_2
REMARK    2  A    between atoms: O_2  and  C_3
REMARK    3  A    between atoms: C_7  and  C_8
REMARK    4  A    between atoms: C_14  and  S_15
REMARK    5  A    between atoms: S_15  and  C_16
REMARK    6  A    between atoms: C_16  and  C_17
REMARK    7  A    between atoms: N_19  and  C_20
REMARK    8  A    between atoms: C_20  and  C_21
REMARK                            x       y       z     vdW  Elec       q    Type
REMARK                         _______ _______ _______ _____ _____    ______ ____
ROOT
ATOM      1  C   UNL     1       3.518   3.722  18.180  0.00  0.00    +0.000 A 
ATOM      2  C   UNL     1       3.254   2.405  18.034  0.00  0.00    +0.000 A 
ATOM      3  S   UNL     1       1.876   1.858  18.993  0.00  0.00    +0.000 S 
ATOM      4  C   UNL     1       1.715   3.469  19.606  0.00  0.00    +0.000 A 
ATOM      5  N   UNL     1       0.929   4.054  20.462  0.00  0.00    +0.000 NA
ATOM      6  N   UNL     1       1.351   5.378  20.520  0.00  0.00    +0.000 NA
ATOM      7  C   UNL     1       2.370   5.527  19.690  0.00  0.00    +0.000 A 
ATOM      8  N   UNL     1       2.645   4.323  19.084  0.00  0.00    +0.000 N 
ENDROOT
BRANCH   1  13
ATOM      9  C   UNL     1       6.769   5.500  17.534  0.00  0.00    +0.000 A 
ATOM     10  C   UNL     1       6.829   5.427  16.139  0.00  0.00    +0.000 A 
ATOM     11  C   UNL     1       5.813   4.802  15.417  0.00  0.00    +0.000 A 
ATOM     12  C   UNL     1       4.718   4.259  16.085  0.00  0.00    +0.000 A 
ATOM     13  C   UNL     1       4.640   4.337  17.478  0.00  0.00    +0.000 A 
ATOM     14  C   UNL     1       5.684   4.929  18.202  0.00  0.00    +0.000 A 
BRANCH   9  16
ATOM     15  C   UNL     1       7.856   7.571  17.952  0.00  0.00    +0.000 C 
ATOM     16  O   UNL     1       7.812   6.159  18.121  0.00  0.00    +0.000 OA
ENDBRANCH   9  16
ENDBRANCH   1  13
BRANCH   7  17
ATOM     17  S   UNL     1       3.155   7.031  19.326  0.00  0.00    +0.000 S 
BRANCH  17  18
ATOM     18  C   UNL     1       2.213   7.655  17.887  0.00  0.00    +0.000 C 
BRANCH  18  19
ATOM     19  C   UNL     1       1.793   9.113  18.103  0.00  0.00    +0.000 C 
ATOM     20  O   UNL     1       2.247  10.032  17.432  0.00  0.00    +0.000 OA
ATOM     21  N   UNL     1       0.794   9.300  19.038  0.00  0.00    +0.000 N 
ATOM     22  H   UNL     1       0.641   8.560  19.717  0.00  0.00    +0.000 HD
BRANCH  21  23
ATOM     23  C   UNL     1       0.324  10.623  19.387  0.00  0.00    +0.000 C 
BRANCH  23  24
ATOM     24  C   UNL     1      -1.069  10.790  18.862  0.00  0.00    +0.000 A 
ATOM     25  C   UNL     1      -1.703  10.052  17.881  0.00  0.00    +0.000 A 
ATOM     26  C   UNL     1      -3.020  10.525  17.606  0.00  0.00    +0.000 A 
ATOM     27  C   UNL     1      -3.353  11.603  18.394  0.00  0.00    +0.000 A 
ATOM     28  S   UNL     1      -2.090  12.028  19.467  0.00  0.00    +0.000 S 
ENDBRANCH  23  24
ENDBRANCH  21  23
ENDBRANCH  18  19
ENDBRANCH  17  18
ENDBRANCH   7  17
TORSDOF 7
ENDMDL
MODEL 4
REMARK VINA RESULT:      -7.2      2.059      2.849
REMARK  Name = 
REMARK  8 active torsions:
REMARK  status: ('A' for Active; 'I' for Inactive)
REMARK    1  A    between atoms: C_1  and  O_2
REMARK    2  A    between atoms: O_2  and  C_3
REMARK    3  A    between atoms: C_7  and  C_8
REMARK    4  A    between atoms: C_14  and  S_15
REMARK    5  A    between atoms: S_15  and  C_16
REMARK    6  A    between atoms: C_16  and  C_17
REMARK    7  A    between atoms: N_19  and  C_20
REMARK    8  A    between atoms: C_20  and  C_21
REMARK                            x       y       z     vdW  Elec       q    Type
REMARK                         _______ _______ _______ _____ _____    ______ ____
ROOT
ATOM      1  C   UNL     1       3.753   3.677  18.362  0.00  0.00    +0.000 A 
ATOM      2  C   UNL     1       3.519   2.350  18.260  0.00  0.00    +0.000 A 
ATOM      3  S   UNL     1       2.036   1.837  19.068  0.00  0.00    +0.000 S 
ATOM      4  C   UNL     1       1.788   3.478  19.563  0.00  0.00    +0.000 A 
ATOM      5  N   UNL     1       0.896   4.098  20.279  0.00  0.00    +0.000 NA
ATOM      6  N   UNL     1       1.297   5.430  20.312  0.00  0.00    +0.000 NA
ATOM      7  C   UNL     1       2.412   5.547  19.610  0.00  0.00    +0.000 A 
ATOM      8  N   UNL     1       2.769   4.315  19.114  0.00  0.00    +0.000 N 
ENDROOT
BRANCH   1  13
ATOM      9  C   UNL     1       6.097   5.217  15.856  0.00  0.00    +0.000 A 
ATOM     10  C   UNL     1       7.203   5.482  16.667  0.00  0.00    +0.000 A 
ATOM     11  C   UNL     1       7.183   5.158  18.023  0.00  0.00    +0.000 A 
ATOM     12  C   UNL     1       6.058   4.549  18.575  0.00  0.00    +0.000 A 
ATOM     13  C   UNL     1       4.950   4.267  17.772  0.00  0.00    +0.000 A 
ATOM     14  C   UNL     1       4.960   4.633  16.418  0.00  0.00    +0.000 A 
BRANCH   9  16
ATOM     15  C   UNL     1       6.860   4.590  13.694  0.00  0.00    +0.000 C 
ATOM     16  O   UNL     1       6.252   5.558  14.541  0.00  0.00    +0.000 OA
ENDBRANCH   9  16
ENDBRANCH   1  13
BRANCH   7  17
ATOM     17  S   UNL     1       3.225   7.040  19.261  0.00  0.00    +0.000 S 
BRANCH  17  18
ATOM     18  C   UNL     1       2.078   7.879  18.109  0.00  0.00    +0.000 C 
BRANCH  18  19
ATOM     19  C   UNL     1       1.293   8.981  18.830  0.00  0.00    +0.000 C 
ATOM     20  O   UNL     1       1.327   9.120  20.047  0.00  0.00    +0.000 OA
ATOM     21  N   UNL     1       0.631   9.864  17.999  0.00  0.00    +0.000 N 
ATOM     22  H   UNL     1       0.440   9.561  17.049  0.00  0.00    +0.000 HD
BRANCH  21  23
ATOM     23  C   UNL     1      -0.191  10.929  18.531  0.00  0.00    +0.000 C 
BRANCH  23  24
ATOM     24  C   UNL     1      -1.576  10.784  17.981  0.00  0.00    +0.000 A 
ATOM     25  C   UNL     1      -1.997   9.986  16.935  0.00  0.00    +0.000 A 
ATOM     26  C   UNL     1      -3.388  10.137  16.657  0.00  0.00    +0.000 A 
ATOM     27  C   UNL     1      -3.986  11.039  17.507  0.00  0.00    +0.000 A 
ATOM     28  S   UNL     1      -2.879  11.684  18.640  0.00  0.00    +0.000 S 
ENDBRANCH  23  24
ENDBRANCH  21  23
ENDBRANCH  18  19
ENDBRANCH  17  18
ENDBRANCH   7  17
TORSDOF 7
ENDMDL
MODEL 5
REMARK VINA RESULT:      -7.1      2.972      7.957
REMARK  Name = 
REMARK  8 active torsions:
REMARK  status: ('A' for Active; 'I' for Inactive)
REMARK    1  A    between atoms: C_1  and  O_2
REMARK    2  A    between atoms: O_2  and  C_3
REMARK    3  A    between atoms: C_7  and  C_8
REMARK    4  A    between atoms: C_14  and  S_15
REMARK    5  A    between atoms: S_15  and  C_16
REMARK    6  A    between atoms: C_16  and  C_17
REMARK    7  A    between atoms: N_19  and  C_20
REMARK    8  A    between atoms: C_20  and  C_21
REMARK                            x       y       z     vdW  Elec       q    Type
REMARK                         _______ _______ _______ _____ _____    ______ ____
ROOT
ATOM      1  C   UNL     1       2.232   5.000  19.980  0.00  0.00    +0.000 A 
ATOM      2  C   UNL     1       1.199   4.318  20.521  0.00  0.00    +0.000 A 
ATOM      3  S   UNL     1       1.612   2.660  20.965  0.00  0.00    +0.000 S 
ATOM      4  C   UNL     1       3.209   2.939  20.357  0.00  0.00    +0.000 A 
ATOM      5  N   UNL     1       4.284   2.218  20.230  0.00  0.00    +0.000 NA
ATOM      6  N   UNL     1       5.229   3.048  19.635  0.00  0.00    +0.000 NA
ATOM      7  C   UNL     1       4.676   4.233  19.437  0.00  0.00    +0.000 A 
ATOM      8  N   UNL     1       3.374   4.208  19.880  0.00  0.00    +0.000 N 
ENDROOT
BRANCH   1  13
ATOM      9  C   UNL     1       1.537   8.697  20.028  0.00  0.00    +0.000 A 
ATOM     10  C   UNL     1       1.819   9.029  18.700  0.00  0.00    +0.000 A 
ATOM     11  C   UNL     1       2.232   8.050  17.796  0.00  0.00    +0.000 A 
ATOM     12  C   UNL     1       2.350   6.725  18.211  0.00  0.00    +0.000 A 
ATOM     13  C   UNL     1       2.059   6.379  19.533  0.00  0.00    +0.000 A 
ATOM     14  C   UNL     1       1.684   7.373  20.448  0.00  0.00    +0.000 A 
BRANCH   9  16
ATOM     15  C   UNL     1       0.268  10.699  20.188  0.00  0.00    +0.000 C 
ATOM     16  O   UNL     1       1.118   9.739  20.805  0.00  0.00    +0.000 OA
ENDBRANCH   9  16
ENDBRANCH   1  13
BRANCH   7  17
ATOM     17  S   UNL     1       5.499   5.636  18.832  0.00  0.00    +0.000 S 
BRANCH  17  18
ATOM     18  C   UNL     1       7.023   4.939  18.098  0.00  0.00    +0.000 C 
BRANCH  18  19
ATOM     19  C   UNL     1       7.297   5.559  16.723  0.00  0.00    +0.000 C 
ATOM     20  O   UNL     1       7.474   6.762  16.571  0.00  0.00    +0.000 OA
ATOM     21  N   UNL     1       7.432   4.653  15.690  0.00  0.00    +0.000 N 
ATOM     22  H   UNL     1       7.039   3.725  15.825  0.00  0.00    +0.000 HD
BRANCH  21  23
ATOM     23  C   UNL     1       7.646   5.087  14.327  0.00  0.00    +0.000 C 
BRANCH  23  24
ATOM     24  C   UNL     1       6.715   4.328  13.431  0.00  0.00    +0.000 A 
ATOM     25  C   UNL     1       6.967   3.833  12.166  0.00  0.00    +0.000 A 
ATOM     26  C   UNL     1       5.827   3.198  11.591  0.00  0.00    +0.000 A 
ATOM     27  C   UNL     1       4.744   3.221  12.439  0.00  0.00    +0.000 A 
ATOM     28  S   UNL     1       5.109   3.988  13.925  0.00  0.00    +0.000 S 
ENDBRANCH  23  24
ENDBRANCH  21  23
ENDBRANCH  18  19
ENDBRANCH  17  18
ENDBRANCH   7  17
TORSDOF 7
ENDMDL
MODEL 6
REMARK VINA RESULT:      -7.1      1.955      2.350
REMARK  Name = 
REMARK  8 active torsions:
REMARK  status: ('A' for Active; 'I' for Inactive)
REMARK    1  A    between atoms: C_1  and  O_2
REMARK    2  A    between atoms: O_2  and  C_3
REMARK    3  A    between atoms: C_7  and  C_8
REMARK    4  A    between atoms: C_14  and  S_15
REMARK    5  A    between atoms: S_15  and  C_16
REMARK    6  A    between atoms: C_16  and  C_17
REMARK    7  A    between atoms: N_19  and  C_20
REMARK    8  A    between atoms: C_20  and  C_21
REMARK                            x       y       z     vdW  Elec       q    Type
REMARK                         _______ _______ _______ _____ _____    ______ ____
ROOT
ATOM      1  C   UNL     1       3.732   3.638  18.344  0.00  0.00    +0.000 A 
ATOM      2  C   UNL     1       3.708   2.297  18.506  0.00  0.00    +0.000 A 
ATOM      3  S   UNL     1       2.432   1.748  19.595  0.00  0.00    +0.000 S 
ATOM      4  C   UNL     1       1.978   3.403  19.831  0.00  0.00    +0.000 A 
ATOM      5  N   UNL     1       1.086   4.018  20.550  0.00  0.00    +0.000 NA
ATOM      6  N   UNL     1       1.265   5.374  20.296  0.00  0.00    +0.000 NA
ATOM      7  C   UNL     1       2.257   5.508  19.430  0.00  0.00    +0.000 A 
ATOM      8  N   UNL     1       2.751   4.265  19.107  0.00  0.00    +0.000 N 
ENDROOT
BRANCH   1  13
ATOM      9  C   UNL     1       6.792   5.540  17.262  0.00  0.00    +0.000 A 
ATOM     10  C   UNL     1       6.717   5.381  15.876  0.00  0.00    +0.000 A 
ATOM     11  C   UNL     1       5.673   4.658  15.299  0.00  0.00    +0.000 A 
ATOM     12  C   UNL     1       4.683   4.102  16.108  0.00  0.00    +0.000 A 
ATOM     13  C   UNL     1       4.741   4.265  17.495  0.00  0.00    +0.000 A 
ATOM     14  C   UNL     1       5.815   4.957  18.071  0.00  0.00    +0.000 A 
BRANCH   9  16
ATOM     15  C   UNL     1       7.724   7.703  17.581  0.00  0.00    +0.000 C 
ATOM     16  O   UNL     1       7.847   6.290  17.699  0.00  0.00    +0.000 OA
ENDBRANCH   9  16
ENDBRANCH   1  13
BRANCH   7  17
ATOM     17  S   UNL     1       2.770   7.004  18.717  0.00  0.00    +0.000 S 
BRANCH  17  18
ATOM     18  C   UNL     1       1.828   8.258  19.658  0.00  0.00    +0.000 C 
BRANCH  18  19
ATOM     19  C   UNL     1       1.405   9.416  18.748  0.00  0.00    +0.000 C 
ATOM     20  O   UNL     1       1.856   9.560  17.618  0.00  0.00    +0.000 OA
ATOM     21  N   UNL     1       0.405  10.222  19.255  0.00  0.00    +0.000 N 
ATOM     22  H   UNL     1       0.254  10.207  20.260  0.00  0.00    +0.000 HD
BRANCH  21  23
ATOM     23  C   UNL     1      -0.069  11.384  18.534  0.00  0.00    +0.000 C 
BRANCH  23  24
ATOM     24  C   UNL     1      -1.530  11.212  18.256  0.00  0.00    +0.000 A 
ATOM     25  C   UNL     1      -2.589  11.906  18.808  0.00  0.00    +0.000 A 
ATOM     26  C   UNL     1      -3.853  11.441  18.339  0.00  0.00    +0.000 A 
ATOM     27  C   UNL     1      -3.717  10.412  17.435  0.00  0.00    +0.000 A 
ATOM     28  S   UNL     1      -2.076  10.024  17.146  0.00  0.00    +0.000 S 
ENDBRANCH  23  24
ENDBRANCH  21  23
ENDBRANCH  18  19
ENDBRANCH  17  18
ENDBRANCH   7  17
TORSDOF 7
ENDMDL
MODEL 7
REMARK VINA RESULT:      -7.1      1.754      2.330
REMARK  Name = 
REMARK  8 active torsions:
REMARK  status: ('A' for Active; 'I' for Inactive)
REMARK    1  A    between atoms: C_1  and  O_2
REMARK    2  A    between atoms: O_2  and  C_3
REMARK    3  A    between atoms: C_7  and  C_8
REMARK    4  A    between atoms: C_14  and  S_15
REMARK    5  A    between atoms: S_15  and  C_16
REMARK    6  A    between atoms: C_16  and  C_17
REMARK    7  A    between atoms: N_19  and  C_20
REMARK    8  A    between atoms: C_20  and  C_21
REMARK                            x       y       z     vdW  Elec       q    Type
REMARK                         _______ _______ _______ _____ _____    ______ ____
ROOT
ATOM      1  C   UNL     1       3.981   3.950  18.607  0.00  0.00    +0.000 A 
ATOM      2  C   UNL     1       4.217   2.678  18.995  0.00  0.00    +0.000 A 
ATOM      3  S   UNL     1       3.232   2.173  20.371  0.00  0.00    +0.000 S 
ATOM      4  C   UNL     1       2.534   3.758  20.399  0.00  0.00    +0.000 A 
ATOM      5  N   UNL     1       1.663   4.366  21.151  0.00  0.00    +0.000 NA
ATOM      6  N   UNL     1       1.561   5.657  20.643  0.00  0.00    +0.000 NA
ATOM      7  C   UNL     1       2.376   5.761  19.605  0.00  0.00    +0.000 A 
ATOM      8  N   UNL     1       3.028   4.565  19.415  0.00  0.00    +0.000 N 
ENDROOT
BRANCH   1  13
ATOM      9  C   UNL     1       6.147   6.300  16.623  0.00  0.00    +0.000 A 
ATOM     10  C   UNL     1       6.227   5.613  15.409  0.00  0.00    +0.000 A 
ATOM     11  C   UNL     1       5.577   4.391  15.240  0.00  0.00    +0.000 A 
ATOM     12  C   UNL     1       4.825   3.854  16.283  0.00  0.00    +0.000 A 
ATOM     13  C   UNL     1       4.726   4.538  17.498  0.00  0.00    +0.000 A 
ATOM     14  C   UNL     1       5.416   5.746  17.676  0.00  0.00    +0.000 A 
BRANCH   9  16
ATOM     15  C   UNL     1       7.762   7.679  17.691  0.00  0.00    +0.000 C 
ATOM     16  O   UNL     1       6.806   7.497  16.653  0.00  0.00    +0.000 OA
ENDBRANCH   9  16
ENDBRANCH   1  13
BRANCH   7  17
ATOM     17  S   UNL     1       2.506   7.147  18.569  0.00  0.00    +0.000 S 
BRANCH  17  18
ATOM     18  C   UNL     1       1.818   8.498  19.593  0.00  0.00    +0.000 C 
BRANCH  18  19
ATOM     19  C   UNL     1       1.272   9.625  18.709  0.00  0.00    +0.000 C 
ATOM     20  O   UNL     1       1.659   9.804  17.561  0.00  0.00    +0.000 OA
ATOM     21  N   UNL     1       0.240  10.354  19.266  0.00  0.00    +0.000 N 
ATOM     22  H   UNL     1       0.136  10.326  20.277  0.00  0.00    +0.000 HD
BRANCH  21  23
ATOM     23  C   UNL     1      -0.349  11.480  18.575  0.00  0.00    +0.000 C 
BRANCH  23  24
ATOM     24  C   UNL     1      -1.687  11.069  18.041  0.00  0.00    +0.000 A 
ATOM     25  C   UNL     1      -1.962  10.123  17.072  0.00  0.00    +0.000 A 
ATOM     26  C   UNL     1      -3.355  10.026  16.784  0.00  0.00    +0.000 A 
ATOM     27  C   UNL     1      -4.100  10.894  17.550  0.00  0.00    +0.000 A 
ATOM     28  S   UNL     1      -3.124  11.805  18.619  0.00  0.00    +0.000 S 
ENDBRANCH  23  24
ENDBRANCH  21  23
ENDBRANCH  18  19
ENDBRANCH  17  18
ENDBRANCH   7  17
TORSDOF 7
ENDMDL
MODEL 8
REMARK VINA RESULT:      -7.1      1.085      1.718
REMARK  Name = 
REMARK  8 active torsions:
REMARK  status: ('A' for Active; 'I' for Inactive)
REMARK    1  A    between atoms: C_1  and  O_2
REMARK    2  A    between atoms: O_2  and  C_3
REMARK    3  A    between atoms: C_7  and  C_8
REMARK    4  A    between atoms: C_14  and  S_15
REMARK    5  A    between atoms: S_15  and  C_16
REMARK    6  A    between atoms: C_16  and  C_17
REMARK    7  A    between atoms: N_19  and  C_20
REMARK    8  A    between atoms: C_20  and  C_21
REMARK                            x       y       z     vdW  Elec       q    Type
REMARK                         _______ _______ _______ _____ _____    ______ ____
ROOT
ATOM      1  C   UNL     1       3.840   3.888  18.473  0.00  0.00    +0.000 A 
ATOM      2  C   UNL     1       3.735   2.545  18.363  0.00  0.00    +0.000 A 
ATOM      3  S   UNL     1       2.269   1.896  19.101  0.00  0.00    +0.000 S 
ATOM      4  C   UNL     1       1.846   3.507  19.578  0.00  0.00    +0.000 A 
ATOM      5  N   UNL     1       0.867   4.040  20.247  0.00  0.00    +0.000 NA
ATOM      6  N   UNL     1       1.140   5.403  20.296  0.00  0.00    +0.000 NA
ATOM      7  C   UNL     1       2.272   5.624  19.648  0.00  0.00    +0.000 A 
ATOM      8  N   UNL     1       2.766   4.431  19.173  0.00  0.00    +0.000 N 
ENDROOT
BRANCH   1  13
ATOM      9  C   UNL     1       6.245   5.457  16.043  0.00  0.00    +0.000 A 
ATOM     10  C   UNL     1       7.180   6.006  16.925  0.00  0.00    +0.000 A 
ATOM     11  C   UNL     1       7.026   5.863  18.304  0.00  0.00    +0.000 A 
ATOM     12  C   UNL     1       5.940   5.152  18.811  0.00  0.00    +0.000 A 
ATOM     13  C   UNL     1       5.005   4.588  17.939  0.00  0.00    +0.000 A 
ATOM     14  C   UNL     1       5.143   4.770  16.556  0.00  0.00    +0.000 A 
BRANCH   9  16
ATOM     15  C   UNL     1       6.673   4.475  13.921  0.00  0.00    +0.000 C 
ATOM     16  O   UNL     1       6.524   5.645  14.719  0.00  0.00    +0.000 OA
ENDBRANCH   9  16
ENDBRANCH   1  13
BRANCH   7  17
ATOM     17  S   UNL     1       2.960   7.186  19.334  0.00  0.00    +0.000 S 
BRANCH  17  18
ATOM     18  C   UNL     1       1.901   7.846  17.996  0.00  0.00    +0.000 C 
BRANCH  18  19
ATOM     19  C   UNL     1       1.577   9.324  18.239  0.00  0.00    +0.000 C 
ATOM     20  O   UNL     1       2.194  10.229  17.690  0.00  0.00    +0.000 OA
ATOM     21  N   UNL     1       0.474   9.556  19.038  0.00  0.00    +0.000 N 
ATOM     22  H   UNL     1       0.168   8.801  19.646  0.00  0.00    +0.000 HD
BRANCH  21  23
ATOM     23  C   UNL     1       0.070  10.898  19.397  0.00  0.00    +0.000 C 
BRANCH  23  24
ATOM     24  C   UNL     1      -0.360  10.900  20.832  0.00  0.00    +0.000 A 
ATOM     25  C   UNL     1       0.003  10.018  21.831  0.00  0.00    +0.000 A 
ATOM     26  C   UNL     1      -0.640  10.301  23.072  0.00  0.00    +0.000 A 
ATOM     27  C   UNL     1      -1.467  11.398  22.982  0.00  0.00    +0.000 A 
ATOM     28  S   UNL     1      -1.452  12.086  21.416  0.00  0.00    +0.000 S 
ENDBRANCH  23  24
ENDBRANCH  21  23
ENDBRANCH  18  19
ENDBRANCH  17  18
ENDBRANCH   7  17
TORSDOF 7
ENDMDL
MODEL 9
REMARK VINA RESULT:      -7.0      2.038      2.708
REMARK  Name = 
REMARK  8 active torsions:
REMARK  status: ('A' for Active; 'I' for Inactive)
REMARK    1  A    between atoms: C_1  and  O_2
REMARK    2  A    between atoms: O_2  and  C_3
REMARK    3  A    between atoms: C_7  and  C_8
REMARK    4  A    between atoms: C_14  and  S_15
REMARK    5  A    between atoms: S_15  and  C_16
REMARK    6  A    between atoms: C_16  and  C_17
REMARK    7  A    between atoms: N_19  and  C_20
REMARK    8  A    between atoms: C_20  and  C_21
REMARK                            x       y       z     vdW  Elec       q    Type
REMARK                         _______ _______ _______ _____ _____    ______ ____
ROOT
ATOM      1  C   UNL     1       3.774   3.867  18.510  0.00  0.00    +0.000 A 
ATOM      2  C   UNL     1       3.666   2.527  18.368  0.00  0.00    +0.000 A 
ATOM      3  S   UNL     1       2.203   1.862  19.097  0.00  0.00    +0.000 S 
ATOM      4  C   UNL     1       1.785   3.461  19.617  0.00  0.00    +0.000 A 
ATOM      5  N   UNL     1       0.811   3.979  20.305  0.00  0.00    +0.000 NA
ATOM      6  N   UNL     1       1.087   5.340  20.387  0.00  0.00    +0.000 NA
ATOM      7  C   UNL     1       2.216   5.576  19.738  0.00  0.00    +0.000 A 
ATOM      8  N   UNL     1       2.705   4.394  19.231  0.00  0.00    +0.000 N 
ENDROOT
BRANCH   1  13
ATOM      9  C   UNL     1       6.129   5.565  16.119  0.00  0.00    +0.000 A 
ATOM     10  C   UNL     1       7.111   6.019  17.003  0.00  0.00    +0.000 A 
ATOM     11  C   UNL     1       7.005   5.769  18.371  0.00  0.00    +0.000 A 
ATOM     12  C   UNL     1       5.919   5.047  18.864  0.00  0.00    +0.000 A 
ATOM     13  C   UNL     1       4.937   4.578  17.988  0.00  0.00    +0.000 A 
ATOM     14  C   UNL     1       5.027   4.867  16.619  0.00  0.00    +0.000 A 
BRANCH   9  16
ATOM     15  C   UNL     1       6.975   4.831  14.023  0.00  0.00    +0.000 C 
ATOM     16  O   UNL     1       6.362   5.851  14.803  0.00  0.00    +0.000 OA
ENDBRANCH   9  16
ENDBRANCH   1  13
BRANCH   7  17
ATOM     17  S   UNL     1       2.904   7.144  19.460  0.00  0.00    +0.000 S 
BRANCH  17  18
ATOM     18  C   UNL     1       2.059   7.705  17.938  0.00  0.00    +0.000 C 
BRANCH  18  19
ATOM     19  C   UNL     1       1.736   9.201  18.016  0.00  0.00    +0.000 C 
ATOM     20  O   UNL     1       2.471  10.057  17.536  0.00  0.00    +0.000 OA
ATOM     21  N   UNL     1       0.509   9.505  18.574  0.00  0.00    +0.000 N 
ATOM     22  H   UNL     1       0.073   8.800  19.161  0.00  0.00    +0.000 HD
BRANCH  21  23
ATOM     23  C   UNL     1       0.083  10.875  18.761  0.00  0.00    +0.000 C 
BRANCH  23  24
ATOM     24  C   UNL     1      -1.366  10.979  18.394  0.00  0.00    +0.000 A 
ATOM     25  C   UNL     1      -2.327  11.801  18.950  0.00  0.00    +0.000 A 
ATOM     26  C   UNL     1      -3.617  11.598  18.377  0.00  0.00    +0.000 A 
ATOM     27  C   UNL     1      -3.597  10.634  17.396  0.00  0.00    +0.000 A 
ATOM     28  S   UNL     1      -2.029   9.992  17.158  0.00  0.00    +0.000 S 
ENDBRANCH  23  24
ENDBRANCH  21  23
ENDBRANCH  18  19
ENDBRANCH  17  18
ENDBRANCH   7  17
TORSDOF 7
ENDMDL
