MODEL 1
REMARK VINA RESULT:      -7.8      0.000      0.000
REMARK  Name = 
REMARK  4 active torsions:
REMARK  status: ('A' for Active; 'I' for Inactive)
REMARK    1  A    between atoms: C_2  and  C_9
REMARK    2  A    between atoms: N_3  and  C_4
REMARK    3  A    between atoms: C_11  and  C_12
REMARK    4  A    between atoms: C_13  and  C_14
REMARK                            x       y       z     vdW  Elec       q    Type
REMARK                         _______ _______ _______ _____ _____    ______ ____
ROOT
ATOM      1  C   UNL     1      -1.610  11.548  19.873  0.00  0.00    +0.000 A 
ATOM      2  C   UNL     1      -2.651  11.750  18.964  0.00  0.00    +0.000 A 
ATOM      3  N   UNL     1      -3.475  12.692  19.553  0.00  0.00    +0.000 N 
ATOM      4  C   UNL     1      -2.994  13.099  20.770  0.00  0.00    +0.000 A 
ATOM      5  C   UNL     1      -3.512  14.032  21.672  0.00  0.00    +0.000 A 
ATOM      6  F   UNL     1      -4.661  14.672  21.411  0.00  0.00    +0.000 F 
ATOM      7  C   UNL     1      -2.824  14.299  22.847  0.00  0.00    +0.000 A 
ATOM      8  C   UNL     1      -1.629  13.649  23.089  0.00  0.00    +0.000 A 
ATOM      9  F   UNL     1      -0.950  13.907  24.215  0.00  0.00    +0.000 F 
ATOM     10  C   UNL     1      -1.100  12.728  22.183  0.00  0.00    +0.000 A 
ATOM     11  C   UNL     1      -1.801  12.414  20.998  0.00  0.00    +0.000 A 
ATOM     12  H   UNL     1      -4.312  13.070  19.128  0.00  0.00    +0.000 HD
ENDROOT
BRANCH   2  13
ATOM     13  C   UNL     1      -2.967  11.199  17.633  0.00  0.00    +0.000 A 
ATOM     14  C   UNL     1      -4.125  11.600  16.937  0.00  0.00    +0.000 A 
ATOM     15  C   UNL     1      -4.398  11.115  15.650  0.00  0.00    +0.000 A 
ATOM     16  C   UNL     1      -3.525  10.214  15.059  0.00  0.00    +0.000 A 
ATOM     17  F   UNL     1      -3.781   9.757  13.826  0.00  0.00    +0.000 F 
ATOM     18  C   UNL     1      -2.388   9.793  15.722  0.00  0.00    +0.000 A 
ATOM     19  C   UNL     1      -2.103  10.297  16.995  0.00  0.00    +0.000 A 
ENDBRANCH   2  13
BRANCH   1  22
ATOM     20  C   UNL     1       1.098   9.364  20.536  0.00  0.00    +0.000 C 
ATOM     21  C   UNL     1       0.961  10.873  20.213  0.00  0.00    +0.000 C 
ATOM     22  C   UNL     1      -0.446  10.580  19.663  0.00  0.00    +0.000 C 
ATOM     23  C   UNL     1      -0.458   9.330  20.581  0.00  0.00    +0.000 C 
BRANCH  20  25
ATOM     24  O   UNL     1       2.034   8.872  18.310  0.00  0.00    +0.000 OA
ATOM     25  C   UNL     1       1.823   8.503  19.467  0.00  0.00    +0.000 C 
ATOM     26  N   UNL     1       2.256   7.261  19.913  0.00  0.00    +0.000 N 
ATOM     27  H   UNL     1       1.945   6.931  20.818  0.00  0.00    +0.000 HD
BRANCH  26  28
ATOM     28  C   UNL     1       2.904   6.343  18.983  0.00  0.00    +0.000 C 
ATOM     29  C   UNL     1       1.948   5.354  18.352  0.00  0.00    +0.000 C 
ATOM     30  C   UNL     1       2.351   3.992  18.869  0.00  0.00    +0.000 C 
ATOM     31  O   UNL     1       3.595   4.100  19.547  0.00  0.00    +0.000 OA
ATOM     32  C   UNL     1       3.978   5.475  19.641  0.00  0.00    +0.000 C 
ENDBRANCH  26  28
ENDBRANCH  20  25
ENDBRANCH   1  22
TORSDOF 4
ENDMDL
MODEL 2
REMARK VINA RESULT:      -7.8      8.654     10.561
REMARK  Name = 
REMARK  4 active torsions:
REMARK  status: ('A' for Active; 'I' for Inactive)
REMARK    1  A    between atoms: C_2  and  C_9
REMARK    2  A    between atoms: N_3  and  C_4
REMARK    3  A    between atoms: C_11  and  C_12
REMARK    4  A    between atoms: C_13  and  C_14
REMARK                            x       y       z     vdW  Elec       q    Type
REMARK                         _______ _______ _______ _____ _____    ______ ____
ROOT
ATOM      1  C   UNL     1       5.046   5.001  17.574  0.00  0.00    +0.000 A 
ATOM      2  C   UNL     1       4.958   4.252  16.399  0.00  0.00    +0.000 A 
ATOM      3  N   UNL     1       3.996   3.289  16.647  0.00  0.00    +0.000 N 
ATOM      4  C   UNL     1       3.469   3.409  17.906  0.00  0.00    +0.000 A 
ATOM      5  C   UNL     1       2.479   2.654  18.540  0.00  0.00    +0.000 A 
ATOM      6  F   UNL     1       1.903   1.618  17.914  0.00  0.00    +0.000 F 
ATOM      7  C   UNL     1       2.089   2.986  19.829  0.00  0.00    +0.000 A 
ATOM      8  C   UNL     1       2.675   4.071  20.450  0.00  0.00    +0.000 A 
ATOM      9  F   UNL     1       2.298   4.409  21.692  0.00  0.00    +0.000 F 
ATOM     10  C   UNL     1       3.653   4.840  19.815  0.00  0.00    +0.000 A 
ATOM     11  C   UNL     1       4.092   4.497  18.517  0.00  0.00    +0.000 A 
ATOM     12  H   UNL     1       3.685   2.601  15.975  0.00  0.00    +0.000 HD
ENDROOT
BRANCH   2  13
ATOM     13  C   UNL     1       5.633   4.322  15.089  0.00  0.00    +0.000 A 
ATOM     14  C   UNL     1       6.913   4.897  14.961  0.00  0.00    +0.000 A 
ATOM     15  C   UNL     1       7.576   4.915  13.724  0.00  0.00    +0.000 A 
ATOM     16  C   UNL     1       6.955   4.377  12.608  0.00  0.00    +0.000 A 
ATOM     17  F   UNL     1       7.591   4.386  11.429  0.00  0.00    +0.000 F 
ATOM     18  C   UNL     1       5.695   3.816  12.700  0.00  0.00    +0.000 A 
ATOM     19  C   UNL     1       5.046   3.775  13.938  0.00  0.00    +0.000 A 
ENDBRANCH   2  13
BRANCH   1  22
ATOM     20  C   UNL     1       7.986   6.882  18.169  0.00  0.00    +0.000 C 
ATOM     21  C   UNL     1       6.845   6.323  19.055  0.00  0.00    +0.000 C 
ATOM     22  C   UNL     1       5.989   6.185  17.784  0.00  0.00    +0.000 C 
ATOM     23  C   UNL     1       7.320   6.114  16.990  0.00  0.00    +0.000 C 
BRANCH  20  25
ATOM     24  O   UNL     1       7.466   9.113  17.256  0.00  0.00    +0.000 OA
ATOM     25  C   UNL     1       8.080   8.430  18.078  0.00  0.00    +0.000 C 
ATOM     26  N   UNL     1       8.906   9.020  19.026  0.00  0.00    +0.000 N 
ATOM     27  H   UNL     1       9.503   8.430  19.591  0.00  0.00    +0.000 HD
BRANCH  26  28
ATOM     28  C   UNL     1       9.114  10.464  19.006  0.00  0.00    +0.000 C 
ATOM     29  C   UNL     1      10.297  10.889  18.163  0.00  0.00    +0.000 C 
ATOM     30  C   UNL     1      11.310  11.470  19.122  0.00  0.00    +0.000 C 
ATOM     31  O   UNL     1      10.706  11.627  20.399  0.00  0.00    +0.000 OA
ATOM     32  C   UNL     1       9.396  11.053  20.389  0.00  0.00    +0.000 C 
ENDBRANCH  26  28
ENDBRANCH  20  25
ENDBRANCH   1  22
TORSDOF 4
ENDMDL
MODEL 3
REMARK VINA RESULT:      -7.5      4.054      6.708
REMARK  Name = 
REMARK  4 active torsions:
REMARK  status: ('A' for Active; 'I' for Inactive)
REMARK    1  A    between atoms: C_2  and  C_9
REMARK    2  A    between atoms: N_3  and  C_4
REMARK    3  A    between atoms: C_11  and  C_12
REMARK    4  A    between atoms: C_13  and  C_14
REMARK                            x       y       z     vdW  Elec       q    Type
REMARK                         _______ _______ _______ _____ _____    ______ ____
ROOT
ATOM      1  C   UNL     1      -3.199  13.461  22.572  0.00  0.00    +0.000 A 
ATOM      2  C   UNL     1      -1.948  13.013  23.002  0.00  0.00    +0.000 A 
ATOM      3  N   UNL     1      -1.593  13.856  24.040  0.00  0.00    +0.000 N 
ATOM      4  C   UNL     1      -2.562  14.793  24.289  0.00  0.00    +0.000 A 
ATOM      5  C   UNL     1      -2.601  15.810  25.246  0.00  0.00    +0.000 A 
ATOM      6  F   UNL     1      -1.576  15.995  26.090  0.00  0.00    +0.000 F 
ATOM      7  C   UNL     1      -3.716  16.630  25.324  0.00  0.00    +0.000 A 
ATOM      8  C   UNL     1      -4.775  16.410  24.464  0.00  0.00    +0.000 A 
ATOM      9  F   UNL     1      -5.863  17.189  24.536  0.00  0.00    +0.000 F 
ATOM     10  C   UNL     1      -4.747  15.385  23.515  0.00  0.00    +0.000 A 
ATOM     11  C   UNL     1      -3.606  14.561  23.394  0.00  0.00    +0.000 A 
ATOM     12  H   UNL     1      -0.742  13.776  24.580  0.00  0.00    +0.000 HD
ENDROOT
BRANCH   2  13
ATOM     13  C   UNL     1      -1.059  11.911  22.589  0.00  0.00    +0.000 A 
ATOM     14  C   UNL     1      -1.117  10.654  23.222  0.00  0.00    +0.000 A 
ATOM     15  C   UNL     1      -0.308   9.591  22.793  0.00  0.00    +0.000 A 
ATOM     16  C   UNL     1       0.576   9.785  21.743  0.00  0.00    +0.000 A 
ATOM     17  F   UNL     1       1.342   8.768  21.327  0.00  0.00    +0.000 F 
ATOM     18  C   UNL     1       0.663  11.011  21.110  0.00  0.00    +0.000 A 
ATOM     19  C   UNL     1      -0.161  12.062  21.521  0.00  0.00    +0.000 A 
ENDBRANCH   2  13
BRANCH   1  22
ATOM     20  C   UNL     1      -5.709  12.947  20.127  0.00  0.00    +0.000 C 
ATOM     21  C   UNL     1      -5.487  12.476  21.586  0.00  0.00    +0.000 C 
ATOM     22  C   UNL     1      -4.001  12.839  21.429  0.00  0.00    +0.000 C 
ATOM     23  C   UNL     1      -4.442  13.831  20.321  0.00  0.00    +0.000 C 
BRANCH  20  25
ATOM     24  O   UNL     1      -6.642  11.138  18.736  0.00  0.00    +0.000 OA
ATOM     25  C   UNL     1      -5.673  11.837  19.042  0.00  0.00    +0.000 C 
ATOM     26  N   UNL     1      -4.452  11.690  18.397  0.00  0.00    +0.000 N 
ATOM     27  H   UNL     1      -3.643  12.176  18.764  0.00  0.00    +0.000 HD
BRANCH  26  28
ATOM     28  C   UNL     1      -4.284  10.644  17.395  0.00  0.00    +0.000 C 
ATOM     29  C   UNL     1      -3.129   9.712  17.689  0.00  0.00    +0.000 C 
ATOM     30  C   UNL     1      -2.114   9.941  16.592  0.00  0.00    +0.000 C 
ATOM     31  O   UNL     1      -2.698  10.745  15.577  0.00  0.00    +0.000 OA
ATOM     32  C   UNL     1      -3.992  11.189  15.996  0.00  0.00    +0.000 C 
ENDBRANCH  26  28
ENDBRANCH  20  25
ENDBRANCH   1  22
TORSDOF 4
ENDMDL
MODEL 4
REMARK VINA RESULT:      -7.5      3.176      3.834
REMARK  Name = 
REMARK  4 active torsions:
REMARK  status: ('A' for Active; 'I' for Inactive)
REMARK    1  A    between atoms: C_2  and  C_9
REMARK    2  A    between atoms: N_3  and  C_4
REMARK    3  A    between atoms: C_11  and  C_12
REMARK    4  A    between atoms: C_13  and  C_14
REMARK                            x       y       z     vdW  Elec       q    Type
REMARK                         _______ _______ _______ _____ _____    ______ ____
ROOT
ATOM      1  C   UNL     1       0.689  12.407  18.815  0.00  0.00    +0.000 A 
ATOM      2  C   UNL     1      -0.606  12.878  18.593  0.00  0.00    +0.000 A 
ATOM      3  N   UNL     1      -0.492  14.255  18.531  0.00  0.00    +0.000 N 
ATOM      4  C   UNL     1       0.807  14.665  18.687  0.00  0.00    +0.000 A 
ATOM      5  C   UNL     1       1.349  15.953  18.679  0.00  0.00    +0.000 A 
ATOM      6  F   UNL     1       0.561  17.026  18.518  0.00  0.00    +0.000 F 
ATOM      7  C   UNL     1       2.717  16.118  18.834  0.00  0.00    +0.000 A 
ATOM      8  C   UNL     1       3.518  15.001  18.973  0.00  0.00    +0.000 A 
ATOM      9  F   UNL     1       4.843  15.148  19.113  0.00  0.00    +0.000 F 
ATOM     10  C   UNL     1       2.983  13.711  18.966  0.00  0.00    +0.000 A 
ATOM     11  C   UNL     1       1.589  13.521  18.847  0.00  0.00    +0.000 A 
ATOM     12  H   UNL     1      -1.260  14.889  18.355  0.00  0.00    +0.000 HD
ENDROOT
BRANCH   2  13
ATOM     13  C   UNL     1      -1.917  12.223  18.419  0.00  0.00    +0.000 A 
ATOM     14  C   UNL     1      -2.909  12.306  19.416  0.00  0.00    +0.000 A 
ATOM     15  C   UNL     1      -4.173  11.728  19.227  0.00  0.00    +0.000 A 
ATOM     16  C   UNL     1      -4.445  11.049  18.049  0.00  0.00    +0.000 A 
ATOM     17  F   UNL     1      -5.655  10.505  17.865  0.00  0.00    +0.000 F 
ATOM     18  C   UNL     1      -3.488  10.942  17.058  0.00  0.00    +0.000 A 
ATOM     19  C   UNL     1      -2.237  11.540  17.236  0.00  0.00    +0.000 A 
ENDBRANCH   2  13
BRANCH   1  22
ATOM     20  C   UNL     1       1.554   9.069  18.009  0.00  0.00    +0.000 C 
ATOM     21  C   UNL     1       0.231   9.814  18.318  0.00  0.00    +0.000 C 
ATOM     22  C   UNL     1       1.066  10.933  18.963  0.00  0.00    +0.000 C 
ATOM     23  C   UNL     1       2.242  10.464  18.067  0.00  0.00    +0.000 C 
BRANCH  20  25
ATOM     24  O   UNL     1       1.714   8.040  20.243  0.00  0.00    +0.000 OA
ATOM     25  C   UNL     1       1.984   7.992  19.042  0.00  0.00    +0.000 C 
ATOM     26  N   UNL     1       2.694   6.924  18.509  0.00  0.00    +0.000 N 
ATOM     27  H   UNL     1       3.022   6.982  17.553  0.00  0.00    +0.000 HD
BRANCH  26  28
ATOM     28  C   UNL     1       3.196   5.877  19.391  0.00  0.00    +0.000 C 
ATOM     29  C   UNL     1       4.620   5.465  19.084  0.00  0.00    +0.000 C 
ATOM     30  C   UNL     1       4.548   4.036  18.597  0.00  0.00    +0.000 C 
ATOM     31  O   UNL     1       3.241   3.530  18.828  0.00  0.00    +0.000 OA
ATOM     32  C   UNL     1       2.393   4.578  19.307  0.00  0.00    +0.000 C 
ENDBRANCH  26  28
ENDBRANCH  20  25
ENDBRANCH   1  22
TORSDOF 4
ENDMDL
MODEL 5
REMARK VINA RESULT:      -7.4      5.113     10.170
REMARK  Name = 
REMARK  4 active torsions:
REMARK  status: ('A' for Active; 'I' for Inactive)
REMARK    1  A    between atoms: C_2  and  C_9
REMARK    2  A    between atoms: N_3  and  C_4
REMARK    3  A    between atoms: C_11  and  C_12
REMARK    4  A    between atoms: C_13  and  C_14
REMARK                            x       y       z     vdW  Elec       q    Type
REMARK                         _______ _______ _______ _____ _____    ______ ____
ROOT
ATOM      1  C   UNL     1       3.454   5.425  18.540  0.00  0.00    +0.000 A 
ATOM      2  C   UNL     1       4.819   5.192  18.360  0.00  0.00    +0.000 A 
ATOM      3  N   UNL     1       4.951   3.818  18.282  0.00  0.00    +0.000 N 
ATOM      4  C   UNL     1       3.740   3.184  18.387  0.00  0.00    +0.000 A 
ATOM      5  C   UNL     1       3.435   1.821  18.347  0.00  0.00    +0.000 A 
ATOM      6  F   UNL     1       4.405   0.906  18.205  0.00  0.00    +0.000 F 
ATOM      7  C   UNL     1       2.113   1.415  18.451  0.00  0.00    +0.000 A 
ATOM      8  C   UNL     1       1.123   2.371  18.572  0.00  0.00    +0.000 A 
ATOM      9  F   UNL     1      -0.159   1.992  18.662  0.00  0.00    +0.000 F 
ATOM     10  C   UNL     1       1.422   3.736  18.596  0.00  0.00    +0.000 A 
ATOM     11  C   UNL     1       2.764   4.170  18.529  0.00  0.00    +0.000 A 
ATOM     12  H   UNL     1       5.824   3.331  18.128  0.00  0.00    +0.000 HD
ENDROOT
BRANCH   2  13
ATOM     13  C   UNL     1       5.999   6.070  18.240  0.00  0.00    +0.000 A 
ATOM     14  C   UNL     1       6.045   7.097  17.277  0.00  0.00    +0.000 A 
ATOM     15  C   UNL     1       7.145   7.964  17.197  0.00  0.00    +0.000 A 
ATOM     16  C   UNL     1       8.211   7.798  18.068  0.00  0.00    +0.000 A 
ATOM     17  F   UNL     1       9.258   8.631  18.000  0.00  0.00    +0.000 F 
ATOM     18  C   UNL     1       8.199   6.792  19.016  0.00  0.00    +0.000 A 
ATOM     19  C   UNL     1       7.091   5.944  19.111  0.00  0.00    +0.000 A 
ENDBRANCH   2  13
BRANCH   1  22
ATOM     20  C   UNL     1       1.739   8.427  17.775  0.00  0.00    +0.000 C 
ATOM     21  C   UNL     1       3.224   7.986  17.787  0.00  0.00    +0.000 C 
ATOM     22  C   UNL     1       2.818   6.807  18.688  0.00  0.00    +0.000 C 
ATOM     23  C   UNL     1       1.394   6.942  18.088  0.00  0.00    +0.000 C 
BRANCH  20  25
ATOM     24  O   UNL     1       0.948   9.261  19.956  0.00  0.00    +0.000 OA
ATOM     25  C   UNL     1       1.342   9.510  18.815  0.00  0.00    +0.000 C 
ATOM     26  N   UNL     1       1.487  10.820  18.377  0.00  0.00    +0.000 N 
ATOM     27  H   UNL     1       1.675  10.991  17.397  0.00  0.00    +0.000 HD
BRANCH  26  28
ATOM     28  C   UNL     1       1.096  11.922  19.249  0.00  0.00    +0.000 C 
ATOM     29  C   UNL     1      -0.325  12.391  19.023  0.00  0.00    +0.000 C 
ATOM     30  C   UNL     1      -0.222  13.796  18.475  0.00  0.00    +0.000 C 
ATOM     31  O   UNL     1       1.121  14.246  18.597  0.00  0.00    +0.000 OA
ATOM     32  C   UNL     1       1.951  13.176  19.058  0.00  0.00    +0.000 C 
ENDBRANCH  26  28
ENDBRANCH  20  25
ENDBRANCH   1  22
TORSDOF 4
ENDMDL
MODEL 6
REMARK VINA RESULT:      -7.4      9.026     11.306
REMARK  Name = 
REMARK  4 active torsions:
REMARK  status: ('A' for Active; 'I' for Inactive)
REMARK    1  A    between atoms: C_2  and  C_9
REMARK    2  A    between atoms: N_3  and  C_4
REMARK    3  A    between atoms: C_11  and  C_12
REMARK    4  A    between atoms: C_13  and  C_14
REMARK                            x       y       z     vdW  Elec       q    Type
REMARK                         _______ _______ _______ _____ _____    ______ ____
ROOT
ATOM      1  C   UNL     1       9.178  13.383  19.801  0.00  0.00    +0.000 A 
ATOM      2  C   UNL     1       8.873  13.795  21.099  0.00  0.00    +0.000 A 
ATOM      3  N   UNL     1       9.352  15.088  21.198  0.00  0.00    +0.000 N 
ATOM      4  C   UNL     1       9.924  15.509  20.026  0.00  0.00    +0.000 A 
ATOM      5  C   UNL     1      10.510  16.737  19.704  0.00  0.00    +0.000 A 
ATOM      6  F   UNL     1      10.593  17.716  20.615  0.00  0.00    +0.000 F 
ATOM      7  C   UNL     1      11.006  16.940  18.425  0.00  0.00    +0.000 A 
ATOM      8  C   UNL     1      10.890  15.930  17.489  0.00  0.00    +0.000 A 
ATOM      9  F   UNL     1      11.355  16.120  16.247  0.00  0.00    +0.000 F 
ATOM     10  C   UNL     1      10.291  14.708  17.802  0.00  0.00    +0.000 A 
ATOM     11  C   UNL     1       9.812  14.465  19.108  0.00  0.00    +0.000 A 
ATOM     12  H   UNL     1       9.263  15.674  22.018  0.00  0.00    +0.000 HD
ENDROOT
BRANCH   2  13
ATOM     13  C   UNL     1       8.191  13.155  22.241  0.00  0.00    +0.000 A 
ATOM     14  C   UNL     1       6.794  13.245  22.396  0.00  0.00    +0.000 A 
ATOM     15  C   UNL     1       6.141  12.593  23.452  0.00  0.00    +0.000 A 
ATOM     16  C   UNL     1       6.883  11.863  24.369  0.00  0.00    +0.000 A 
ATOM     17  F   UNL     1       6.259  11.233  25.373  0.00  0.00    +0.000 F 
ATOM     18  C   UNL     1       8.257  11.767  24.249  0.00  0.00    +0.000 A 
ATOM     19  C   UNL     1       8.904  12.396  23.181  0.00  0.00    +0.000 A 
ENDBRANCH   2  13
BRANCH   1  22
ATOM     20  C   UNL     1       9.518  10.028  18.720  0.00  0.00    +0.000 C 
ATOM     21  C   UNL     1       9.634  11.415  18.040  0.00  0.00    +0.000 C 
ATOM     22  C   UNL     1       8.846  12.008  19.222  0.00  0.00    +0.000 C 
ATOM     23  C   UNL     1       9.351  10.804  20.059  0.00  0.00    +0.000 C 
BRANCH  20  25
ATOM     24  O   UNL     1       7.392   9.538  17.573  0.00  0.00    +0.000 OA
ATOM     25  C   UNL     1       8.347   9.130  18.238  0.00  0.00    +0.000 C 
ATOM     26  N   UNL     1       8.453   7.792  18.591  0.00  0.00    +0.000 N 
ATOM     27  H   UNL     1       9.168   7.515  19.253  0.00  0.00    +0.000 HD
BRANCH  26  28
ATOM     28  C   UNL     1       7.387   6.862  18.239  0.00  0.00    +0.000 C 
ATOM     29  C   UNL     1       7.536   5.503  18.888  0.00  0.00    +0.000 C 
ATOM     30  C   UNL     1       7.792   4.526  17.763  0.00  0.00    +0.000 C 
ATOM     31  O   UNL     1       7.565   5.176  16.520  0.00  0.00    +0.000 OA
ATOM     32  C   UNL     1       7.313   6.567  16.740  0.00  0.00    +0.000 C 
ENDBRANCH  26  28
ENDBRANCH  20  25
ENDBRANCH   1  22
TORSDOF 4
ENDMDL
MODEL 7
REMARK VINA RESULT:      -7.3      8.334     10.401
REMARK  Name = 
REMARK  4 active torsions:
REMARK  status: ('A' for Active; 'I' for Inactive)
REMARK    1  A    between atoms: C_2  and  C_9
REMARK    2  A    between atoms: N_3  and  C_4
REMARK    3  A    between atoms: C_11  and  C_12
REMARK    4  A    between atoms: C_13  and  C_14
REMARK                            x       y       z     vdW  Elec       q    Type
REMARK                         _______ _______ _______ _____ _____    ______ ____
ROOT
ATOM      1  C   UNL     1       4.997   5.109  17.658  0.00  0.00    +0.000 A 
ATOM      2  C   UNL     1       4.827   4.350  16.499  0.00  0.00    +0.000 A 
ATOM      3  N   UNL     1       3.757   3.512  16.761  0.00  0.00    +0.000 N 
ATOM      4  C   UNL     1       3.242   3.722  18.014  0.00  0.00    +0.000 A 
ATOM      5  C   UNL     1       2.168   3.102  18.657  0.00  0.00    +0.000 A 
ATOM      6  F   UNL     1       1.476   2.127  18.049  0.00  0.00    +0.000 F 
ATOM      7  C   UNL     1       1.813   3.506  19.935  0.00  0.00    +0.000 A 
ATOM      8  C   UNL     1       2.520   4.529  20.538  0.00  0.00    +0.000 A 
ATOM      9  F   UNL     1       2.180   4.935  21.769  0.00  0.00    +0.000 F 
ATOM     10  C   UNL     1       3.585   5.162  19.893  0.00  0.00    +0.000 A 
ATOM     11  C   UNL     1       3.986   4.742  18.606  0.00  0.00    +0.000 A 
ATOM     12  H   UNL     1       3.370   2.850  16.102  0.00  0.00    +0.000 HD
ENDROOT
BRANCH   2  13
ATOM     13  C   UNL     1       5.511   4.311  15.193  0.00  0.00    +0.000 A 
ATOM     14  C   UNL     1       6.878   4.630  15.079  0.00  0.00    +0.000 A 
ATOM     15  C   UNL     1       7.541   4.542  13.845  0.00  0.00    +0.000 A 
ATOM     16  C   UNL     1       6.835   4.152  12.717  0.00  0.00    +0.000 A 
ATOM     17  F   UNL     1       7.469   4.059  11.540  0.00  0.00    +0.000 F 
ATOM     18  C   UNL     1       5.490   3.844  12.796  0.00  0.00    +0.000 A 
ATOM     19  C   UNL     1       4.836   3.908  14.030  0.00  0.00    +0.000 A 
ENDBRANCH   2  13
BRANCH   1  22
ATOM     20  C   UNL     1       7.590   7.419  16.968  0.00  0.00    +0.000 C 
ATOM     21  C   UNL     1       7.533   5.942  17.432  0.00  0.00    +0.000 C 
ATOM     22  C   UNL     1       6.071   6.178  17.850  0.00  0.00    +0.000 C 
ATOM     23  C   UNL     1       6.044   7.330  16.811  0.00  0.00    +0.000 C 
BRANCH  20  25
ATOM     24  O   UNL     1       8.556   8.126  19.122  0.00  0.00    +0.000 OA
ATOM     25  C   UNL     1       8.170   8.431  17.992  0.00  0.00    +0.000 C 
ATOM     26  N   UNL     1       8.251   9.741  17.537  0.00  0.00    +0.000 N 
ATOM     27  H   UNL     1       7.798   9.985  16.665  0.00  0.00    +0.000 HD
BRANCH  26  28
ATOM     28  C   UNL     1       8.731  10.790  18.429  0.00  0.00    +0.000 C 
ATOM     29  C   UNL     1       8.468  12.186  17.910  0.00  0.00    +0.000 C 
ATOM     30  C   UNL     1       9.823  12.791  17.625  0.00  0.00    +0.000 C 
ATOM     31  O   UNL     1      10.832  11.947  18.162  0.00  0.00    +0.000 OA
ATOM     32  C   UNL     1      10.242  10.743  18.660  0.00  0.00    +0.000 C 
ENDBRANCH  26  28
ENDBRANCH  20  25
ENDBRANCH   1  22
TORSDOF 4
ENDMDL
MODEL 8
REMARK VINA RESULT:      -7.2      3.487      4.472
REMARK  Name = 
REMARK  4 active torsions:
REMARK  status: ('A' for Active; 'I' for Inactive)
REMARK    1  A    between atoms: C_2  and  C_9
REMARK    2  A    between atoms: N_3  and  C_4
REMARK    3  A    between atoms: C_11  and  C_12
REMARK    4  A    between atoms: C_13  and  C_14
REMARK                            x       y       z     vdW  Elec       q    Type
REMARK                         _______ _______ _______ _____ _____    ______ ____
ROOT
ATOM      1  C   UNL     1       0.195  12.145  21.347  0.00  0.00    +0.000 A 
ATOM      2  C   UNL     1       0.749  13.356  20.929  0.00  0.00    +0.000 A 
ATOM      3  N   UNL     1      -0.050  14.338  21.486  0.00  0.00    +0.000 N 
ATOM      4  C   UNL     1      -1.062  13.803  22.241  0.00  0.00    +0.000 A 
ATOM      5  C   UNL     1      -2.068  14.440  22.973  0.00  0.00    +0.000 A 
ATOM      6  F   UNL     1      -2.159  15.777  22.991  0.00  0.00    +0.000 F 
ATOM      7  C   UNL     1      -2.977  13.676  23.689  0.00  0.00    +0.000 A 
ATOM      8  C   UNL     1      -2.854  12.300  23.679  0.00  0.00    +0.000 A 
ATOM      9  F   UNL     1      -3.720  11.551  24.377  0.00  0.00    +0.000 F 
ATOM     10  C   UNL     1      -1.841  11.660  22.963  0.00  0.00    +0.000 A 
ATOM     11  C   UNL     1      -0.927  12.416  22.197  0.00  0.00    +0.000 A 
ATOM     12  H   UNL     1       0.106  15.332  21.386  0.00  0.00    +0.000 HD
ENDROOT
BRANCH   2  13
ATOM     13  C   UNL     1       1.916  13.715  20.102  0.00  0.00    +0.000 A 
ATOM     14  C   UNL     1       1.933  13.457  18.717  0.00  0.00    +0.000 A 
ATOM     15  C   UNL     1       3.021  13.846  17.922  0.00  0.00    +0.000 A 
ATOM     16  C   UNL     1       4.105  14.479  18.511  0.00  0.00    +0.000 A 
ATOM     17  F   UNL     1       5.141  14.859  17.751  0.00  0.00    +0.000 F 
ATOM     18  C   UNL     1       4.123  14.736  19.869  0.00  0.00    +0.000 A 
ATOM     19  C   UNL     1       3.027  14.370  20.656  0.00  0.00    +0.000 A 
ENDBRANCH   2  13
BRANCH   1  22
ATOM     20  C   UNL     1       0.554   8.628  21.135  0.00  0.00    +0.000 C 
ATOM     21  C   UNL     1       1.139   9.737  22.046  0.00  0.00    +0.000 C 
ATOM     22  C   UNL     1       0.736  10.765  20.975  0.00  0.00    +0.000 C 
ATOM     23  C   UNL     1      -0.335   9.743  20.511  0.00  0.00    +0.000 C 
BRANCH  20  25
ATOM     24  O   UNL     1       2.138   8.421  19.258  0.00  0.00    +0.000 OA
ATOM     25  C   UNL     1       1.570   7.896  20.217  0.00  0.00    +0.000 C 
ATOM     26  N   UNL     1       1.827   6.577  20.567  0.00  0.00    +0.000 N 
ATOM     27  H   UNL     1       1.244   6.133  21.266  0.00  0.00    +0.000 HD
BRANCH  26  28
ATOM     28  C   UNL     1       2.725   5.772  19.747  0.00  0.00    +0.000 C 
ATOM     29  C   UNL     1       2.183   5.491  18.363  0.00  0.00    +0.000 C 
ATOM     30  C   UNL     1       1.939   4.000  18.302  0.00  0.00    +0.000 C 
ATOM     31  O   UNL     1       2.518   3.386  19.445  0.00  0.00    +0.000 OA
ATOM     32  C   UNL     1       3.008   4.390  20.338  0.00  0.00    +0.000 C 
ENDBRANCH  26  28
ENDBRANCH  20  25
ENDBRANCH   1  22
TORSDOF 4
ENDMDL
MODEL 9
REMARK VINA RESULT:      -7.2      4.287      7.533
REMARK  Name = 
REMARK  4 active torsions:
REMARK  status: ('A' for Active; 'I' for Inactive)
REMARK    1  A    between atoms: C_2  and  C_9
REMARK    2  A    between atoms: N_3  and  C_4
REMARK    3  A    between atoms: C_11  and  C_12
REMARK    4  A    between atoms: C_13  and  C_14
REMARK                            x       y       z     vdW  Elec       q    Type
REMARK                         _______ _______ _______ _____ _____    ______ ____
ROOT
ATOM      1  C   UNL     1      -0.058  12.762  18.604  0.00  0.00    +0.000 A 
ATOM      2  C   UNL     1       1.047  11.995  18.978  0.00  0.00    +0.000 A 
ATOM      3  N   UNL     1       2.043  12.907  19.278  0.00  0.00    +0.000 N 
ATOM      4  C   UNL     1       1.612  14.199  19.126  0.00  0.00    +0.000 A 
ATOM      5  C   UNL     1       2.293  15.402  19.335  0.00  0.00    +0.000 A 
ATOM      6  F   UNL     1       3.574  15.404  19.728  0.00  0.00    +0.000 F 
ATOM      7  C   UNL     1       1.629  16.603  19.137  0.00  0.00    +0.000 A 
ATOM      8  C   UNL     1       0.301  16.584  18.756  0.00  0.00    +0.000 A 
ATOM      9  F   UNL     1      -0.353  17.739  18.572  0.00  0.00    +0.000 F 
ATOM     10  C   UNL     1      -0.388  15.385  18.562  0.00  0.00    +0.000 A 
ATOM     11  C   UNL     1       0.278  14.150  18.722  0.00  0.00    +0.000 A 
ATOM     12  H   UNL     1       2.967  12.661  19.606  0.00  0.00    +0.000 HD
ENDROOT
BRANCH   2  13
ATOM     13  C   UNL     1       1.290  10.546  19.104  0.00  0.00    +0.000 A 
ATOM     14  C   UNL     1       1.853   9.808  18.044  0.00  0.00    +0.000 A 
ATOM     15  C   UNL     1       2.132   8.440  18.183  0.00  0.00    +0.000 A 
ATOM     16  C   UNL     1       1.834   7.800  19.376  0.00  0.00    +0.000 A 
ATOM     17  F   UNL     1       2.109   6.496  19.514  0.00  0.00    +0.000 F 
ATOM     18  C   UNL     1       1.271   8.495  20.430  0.00  0.00    +0.000 A 
ATOM     19  C   UNL     1       1.016   9.863  20.300  0.00  0.00    +0.000 A 
ENDBRANCH   2  13
BRANCH   1  22
ATOM     20  C   UNL     1      -2.826  10.577  18.279  0.00  0.00    +0.000 C 
ATOM     21  C   UNL     1      -1.527  10.827  17.473  0.00  0.00    +0.000 C 
ATOM     22  C   UNL     1      -1.409  12.191  18.174  0.00  0.00    +0.000 C 
ATOM     23  C   UNL     1      -2.261  11.586  19.321  0.00  0.00    +0.000 C 
BRANCH  20  25
ATOM     24  O   UNL     1      -4.333  10.813  16.342  0.00  0.00    +0.000 OA
ATOM     25  C   UNL     1      -4.154  10.932  17.556  0.00  0.00    +0.000 C 
ATOM     26  N   UNL     1      -5.169  11.385  18.388  0.00  0.00    +0.000 N 
ATOM     27  H   UNL     1      -4.950  11.607  19.352  0.00  0.00    +0.000 HD
BRANCH  26  28
ATOM     28  C   UNL     1      -6.445  11.799  17.816  0.00  0.00    +0.000 C 
ATOM     29  C   UNL     1      -6.360  13.089  17.030  0.00  0.00    +0.000 C 
ATOM     30  C   UNL     1      -7.183  14.101  17.794  0.00  0.00    +0.000 C 
ATOM     31  O   UNL     1      -7.917  13.433  18.811  0.00  0.00    +0.000 OA
ATOM     32  C   UNL     1      -7.524  12.058  18.868  0.00  0.00    +0.000 C 
ENDBRANCH  26  28
ENDBRANCH  20  25
ENDBRANCH   1  22
TORSDOF 4
ENDMDL
