MODEL 1
REMARK VINA RESULT:      -6.4      0.000      0.000
REMARK  Name = 
REMARK  8 active torsions:
REMARK  status: ('A' for Active; 'I' for Inactive)
REMARK    1  A    between atoms: C_1  and  C_2
REMARK    2  A    between atoms: C_2  and  C_3
REMARK    3  A    between atoms: C_2  and  C_4
REMARK    4  A    between atoms: C_4  and  N_5
REMARK    5  A    between atoms: N_11  and  C_12
REMARK    6  A    between atoms: C_12  and  C_13
REMARK    7  A    between atoms: C_13  and  C_14
REMARK    8  A    between atoms: C_13  and  C_15
REMARK                            x       y       z     vdW  Elec       q    Type
REMARK                         _______ _______ _______ _____ _____    ______ ____
ROOT
ATOM      1  N   UNL     1       4.298   4.832  18.350  0.00  0.00    +0.000 N 
ATOM      2  C   UNL     1       5.325   5.384  19.089  0.00  0.00    +0.000 A 
ATOM      3  C   UNL     1       6.603   5.227  18.745  0.00  0.00    +0.000 A 
ATOM      4 CL   UNL     1       7.884   5.794  19.740  0.00  0.00    +0.000 Cl
ATOM      5  C   UNL     1       6.925   4.557  17.455  0.00  0.00    +0.000 A 
ATOM      6  O   UNL     1       8.092   4.392  17.103  0.00  0.00    +0.000 OA
ATOM      7  N   UNL     1       5.829   4.137  16.705  0.00  0.00    +0.000 N 
ATOM      8  C   UNL     1       4.580   3.957  17.294  0.00  0.00    +0.000 A 
ATOM      9  O   UNL     1       3.772   3.101  16.927  0.00  0.00    +0.000 OA
ENDROOT
BRANCH   1  10
ATOM     10  C   UNL     1       2.904   4.996  18.792  0.00  0.00    +0.000 C 
BRANCH  10  12
ATOM     11  C   UNL     1       1.126   4.521  20.579  0.00  0.00    +0.000 C 
ATOM     12  C   UNL     1       2.612   4.436  20.208  0.00  0.00    +0.000 C 
ATOM     13  C   UNL     1       3.062   2.976  20.314  0.00  0.00    +0.000 C 
ENDBRANCH  10  12
ENDBRANCH   1  10
BRANCH   7  14
ATOM     14  C   UNL     1       6.106   3.508  15.407  0.00  0.00    +0.000 C 
BRANCH  14  15
ATOM     15  C   UNL     1       6.002   4.448  14.180  0.00  0.00    +0.000 C 
ATOM     16  C   UNL     1       7.350   5.056  13.787  0.00  0.00    +0.000 C 
ATOM     17  C   UNL     1       5.403   3.708  12.981  0.00  0.00    +0.000 C 
ENDBRANCH  14  15
ENDBRANCH   7  14
TORSDOF 4
ENDMDL
MODEL 2
REMARK VINA RESULT:      -6.2      1.103      1.558
REMARK  Name = 
REMARK  8 active torsions:
REMARK  status: ('A' for Active; 'I' for Inactive)
REMARK    1  A    between atoms: C_1  and  C_2
REMARK    2  A    between atoms: C_2  and  C_3
REMARK    3  A    between atoms: C_2  and  C_4
REMARK    4  A    between atoms: C_4  and  N_5
REMARK    5  A    between atoms: N_11  and  C_12
REMARK    6  A    between atoms: C_12  and  C_13
REMARK    7  A    between atoms: C_13  and  C_14
REMARK    8  A    between atoms: C_13  and  C_15
REMARK                            x       y       z     vdW  Elec       q    Type
REMARK                         _______ _______ _______ _____ _____    ______ ____
ROOT
ATOM      1  N   UNL     1       4.837   4.513  18.414  0.00  0.00    +0.000 N 
ATOM      2  C   UNL     1       5.851   5.165  19.087  0.00  0.00    +0.000 A 
ATOM      3  C   UNL     1       6.850   5.767  18.441  0.00  0.00    +0.000 A 
ATOM      4 CL   UNL     1       8.182   6.455  19.279  0.00  0.00    +0.000 Cl
ATOM      5  C   UNL     1       6.797   5.859  16.958  0.00  0.00    +0.000 A 
ATOM      6  O   UNL     1       7.700   6.406  16.326  0.00  0.00    +0.000 OA
ATOM      7  N   UNL     1       5.678   5.285  16.358  0.00  0.00    +0.000 N 
ATOM      8  C   UNL     1       4.911   4.336  17.028  0.00  0.00    +0.000 A 
ATOM      9  O   UNL     1       4.333   3.406  16.460  0.00  0.00    +0.000 OA
ENDROOT
BRANCH   1  10
ATOM     10  C   UNL     1       3.777   3.825  19.170  0.00  0.00    +0.000 C 
BRANCH  10  12
ATOM     11  C   UNL     1       1.342   3.815  18.364  0.00  0.00    +0.000 C 
ATOM     12  C   UNL     1       2.413   4.561  19.171  0.00  0.00    +0.000 C 
ATOM     13  C   UNL     1       1.905   4.753  20.602  0.00  0.00    +0.000 C 
ENDBRANCH  10  12
ENDBRANCH   1  10
BRANCH   7  14
ATOM     14  C   UNL     1       5.571   5.392  14.897  0.00  0.00    +0.000 C 
BRANCH  14  15
ATOM     15  C   UNL     1       6.402   4.358  14.097  0.00  0.00    +0.000 C 
ATOM     16  C   UNL     1       5.551   3.549  13.115  0.00  0.00    +0.000 C 
ATOM     17  C   UNL     1       7.541   5.048  13.341  0.00  0.00    +0.000 C 
ENDBRANCH  14  15
ENDBRANCH   7  14
TORSDOF 4
ENDMDL
MODEL 3
REMARK VINA RESULT:      -6.2      2.374      3.090
REMARK  Name = 
REMARK  8 active torsions:
REMARK  status: ('A' for Active; 'I' for Inactive)
REMARK    1  A    between atoms: C_1  and  C_2
REMARK    2  A    between atoms: C_2  and  C_3
REMARK    3  A    between atoms: C_2  and  C_4
REMARK    4  A    between atoms: C_4  and  N_5
REMARK    5  A    between atoms: N_11  and  C_12
REMARK    6  A    between atoms: C_12  and  C_13
REMARK    7  A    between atoms: C_13  and  C_14
REMARK    8  A    between atoms: C_13  and  C_15
REMARK                            x       y       z     vdW  Elec       q    Type
REMARK                         _______ _______ _______ _____ _____    ______ ____
ROOT
ATOM      1  N   UNL     1       3.179   5.086  19.675  0.00  0.00    +0.000 N 
ATOM      2  C   UNL     1       2.663   6.322  19.338  0.00  0.00    +0.000 A 
ATOM      3  C   UNL     1       3.076   6.985  18.258  0.00  0.00    +0.000 A 
ATOM      4 CL   UNL     1       2.538   8.580  17.917  0.00  0.00    +0.000 Cl
ATOM      5  C   UNL     1       4.015   6.317  17.317  0.00  0.00    +0.000 A 
ATOM      6  O   UNL     1       4.420   6.897  16.311  0.00  0.00    +0.000 OA
ATOM      7  N   UNL     1       4.394   5.021  17.662  0.00  0.00    +0.000 N 
ATOM      8  C   UNL     1       4.267   4.560  18.970  0.00  0.00    +0.000 A 
ATOM      9  O   UNL     1       5.043   3.749  19.483  0.00  0.00    +0.000 OA
ENDROOT
BRANCH   1  10
ATOM     10  C   UNL     1       2.723   4.409  20.900  0.00  0.00    +0.000 C 
BRANCH  10  12
ATOM     11  C   UNL     1       1.186   3.070  19.344  0.00  0.00    +0.000 C 
ATOM     12  C   UNL     1       1.379   3.653  20.750  0.00  0.00    +0.000 C 
ATOM     13  C   UNL     1       1.282   2.516  21.770  0.00  0.00    +0.000 C 
ENDBRANCH  10  12
ENDBRANCH   1  10
BRANCH   7  14
ATOM     14  C   UNL     1       5.289   4.315  16.737  0.00  0.00    +0.000 C 
BRANCH  14  15
ATOM     15  C   UNL     1       6.664   4.989  16.502  0.00  0.00    +0.000 C 
ATOM     16  C   UNL     1       7.733   4.509  17.486  0.00  0.00    +0.000 C 
ATOM     17  C   UNL     1       7.144   4.755  15.067  0.00  0.00    +0.000 C 
ENDBRANCH  14  15
ENDBRANCH   7  14
TORSDOF 4
ENDMDL
MODEL 4
REMARK VINA RESULT:      -6.2      2.382      2.938
REMARK  Name = 
REMARK  8 active torsions:
REMARK  status: ('A' for Active; 'I' for Inactive)
REMARK    1  A    between atoms: C_1  and  C_2
REMARK    2  A    between atoms: C_2  and  C_3
REMARK    3  A    between atoms: C_2  and  C_4
REMARK    4  A    between atoms: C_4  and  N_5
REMARK    5  A    between atoms: N_11  and  C_12
REMARK    6  A    between atoms: C_12  and  C_13
REMARK    7  A    between atoms: C_13  and  C_14
REMARK    8  A    between atoms: C_13  and  C_15
REMARK                            x       y       z     vdW  Elec       q    Type
REMARK                         _______ _______ _______ _____ _____    ______ ____
ROOT
ATOM      1  N   UNL     1       3.659   4.566  19.173  0.00  0.00    +0.000 N 
ATOM      2  C   UNL     1       2.847   5.645  18.884  0.00  0.00    +0.000 A 
ATOM      3  C   UNL     1       3.257   6.645  18.105  0.00  0.00    +0.000 A 
ATOM      4 CL   UNL     1       2.300   8.051  17.861  0.00  0.00    +0.000 Cl
ATOM      5  C   UNL     1       4.571   6.530  17.417  0.00  0.00    +0.000 A 
ATOM      6  O   UNL     1       4.984   7.433  16.690  0.00  0.00    +0.000 OA
ATOM      7  N   UNL     1       5.278   5.355  17.660  0.00  0.00    +0.000 N 
ATOM      8  C   UNL     1       5.001   4.567  18.774  0.00  0.00    +0.000 A 
ATOM      9  O   UNL     1       5.857   3.912  19.374  0.00  0.00    +0.000 OA
ENDROOT
BRANCH   1  10
ATOM     10  C   UNL     1       3.180   3.504  20.073  0.00  0.00    +0.000 C 
BRANCH  10  12
ATOM     11  C   UNL     1       1.004   2.598  19.063  0.00  0.00    +0.000 C 
ATOM     12  C   UNL     1       1.637   3.418  20.194  0.00  0.00    +0.000 C 
ATOM     13  C   UNL     1       1.235   2.797  21.534  0.00  0.00    +0.000 C 
ENDBRANCH  10  12
ENDBRANCH   1  10
BRANCH   7  14
ATOM     14  C   UNL     1       6.562   5.188  16.966  0.00  0.00    +0.000 C 
BRANCH  14  15
ATOM     15  C   UNL     1       6.524   4.273  15.717  0.00  0.00    +0.000 C 
ATOM     16  C   UNL     1       5.112   3.783  15.386  0.00  0.00    +0.000 C 
ATOM     17  C   UNL     1       7.116   4.992  14.501  0.00  0.00    +0.000 C 
ENDBRANCH  14  15
ENDBRANCH   7  14
TORSDOF 4
ENDMDL
MODEL 5
REMARK VINA RESULT:      -6.2      0.856      1.108
REMARK  Name = 
REMARK  8 active torsions:
REMARK  status: ('A' for Active; 'I' for Inactive)
REMARK    1  A    between atoms: C_1  and  C_2
REMARK    2  A    between atoms: C_2  and  C_3
REMARK    3  A    between atoms: C_2  and  C_4
REMARK    4  A    between atoms: C_4  and  N_5
REMARK    5  A    between atoms: N_11  and  C_12
REMARK    6  A    between atoms: C_12  and  C_13
REMARK    7  A    between atoms: C_13  and  C_14
REMARK    8  A    between atoms: C_13  and  C_15
REMARK                            x       y       z     vdW  Elec       q    Type
REMARK                         _______ _______ _______ _____ _____    ______ ____
ROOT
ATOM      1  N   UNL     1       4.102   4.644  18.707  0.00  0.00    +0.000 N 
ATOM      2  C   UNL     1       5.141   5.205  19.425  0.00  0.00    +0.000 A 
ATOM      3  C   UNL     1       6.404   5.134  19.006  0.00  0.00    +0.000 A 
ATOM      4 CL   UNL     1       7.708   5.707  19.967  0.00  0.00    +0.000 Cl
ATOM      5  C   UNL     1       6.687   4.560  17.663  0.00  0.00    +0.000 A 
ATOM      6  O   UNL     1       7.839   4.476  17.242  0.00  0.00    +0.000 OA
ATOM      7  N   UNL     1       5.573   4.129  16.945  0.00  0.00    +0.000 N 
ATOM      8  C   UNL     1       4.369   3.849  17.586  0.00  0.00    +0.000 A 
ATOM      9  O   UNL     1       3.585   2.975  17.209  0.00  0.00    +0.000 OA
ENDROOT
BRANCH   1  10
ATOM     10  C   UNL     1       2.728   4.709  19.230  0.00  0.00    +0.000 C 
BRANCH  10  12
ATOM     11  C   UNL     1       2.211   3.755  21.554  0.00  0.00    +0.000 C 
ATOM     12  C   UNL     1       2.297   3.466  20.049  0.00  0.00    +0.000 C 
ATOM     13  C   UNL     1       0.939   2.948  19.571  0.00  0.00    +0.000 C 
ENDBRANCH  10  12
ENDBRANCH   1  10
BRANCH   7  14
ATOM     14  C   UNL     1       5.809   3.592  15.598  0.00  0.00    +0.000 C 
BRANCH  14  15
ATOM     15  C   UNL     1       5.694   4.621  14.447  0.00  0.00    +0.000 C 
ATOM     16  C   UNL     1       5.336   6.024  14.943  0.00  0.00    +0.000 C 
ATOM     17  C   UNL     1       6.994   4.678  13.639  0.00  0.00    +0.000 C 
ENDBRANCH  14  15
ENDBRANCH   7  14
TORSDOF 4
ENDMDL
MODEL 6
REMARK VINA RESULT:      -6.1      1.011      1.678
REMARK  Name = 
REMARK  8 active torsions:
REMARK  status: ('A' for Active; 'I' for Inactive)
REMARK    1  A    between atoms: C_1  and  C_2
REMARK    2  A    between atoms: C_2  and  C_3
REMARK    3  A    between atoms: C_2  and  C_4
REMARK    4  A    between atoms: C_4  and  N_5
REMARK    5  A    between atoms: N_11  and  C_12
REMARK    6  A    between atoms: C_12  and  C_13
REMARK    7  A    between atoms: C_13  and  C_14
REMARK    8  A    between atoms: C_13  and  C_15
REMARK                            x       y       z     vdW  Elec       q    Type
REMARK                         _______ _______ _______ _____ _____    ______ ____
ROOT
ATOM      1  N   UNL     1       4.410   4.896  18.575  0.00  0.00    +0.000 N 
ATOM      2  C   UNL     1       5.495   5.423  19.247  0.00  0.00    +0.000 A 
ATOM      3  C   UNL     1       6.747   5.204  18.843  0.00  0.00    +0.000 A 
ATOM      4 CL   UNL     1       8.098   5.741  19.758  0.00  0.00    +0.000 Cl
ATOM      5  C   UNL     1       6.974   4.492  17.557  0.00  0.00    +0.000 A 
ATOM      6  O   UNL     1       8.114   4.270  17.151  0.00  0.00    +0.000 OA
ATOM      7  N   UNL     1       5.825   4.100  16.873  0.00  0.00    +0.000 N 
ATOM      8  C   UNL     1       4.603   3.986  17.529  0.00  0.00    +0.000 A 
ATOM      9  O   UNL     1       3.743   3.155  17.225  0.00  0.00    +0.000 OA
ENDROOT
BRANCH   1  10
ATOM     10  C   UNL     1       3.048   5.128  19.083  0.00  0.00    +0.000 C 
BRANCH  10  12
ATOM     11  C   UNL     1       2.392   7.481  18.300  0.00  0.00    +0.000 C 
ATOM     12  C   UNL     1       2.761   6.593  19.497  0.00  0.00    +0.000 C 
ATOM     13  C   UNL     1       1.625   6.653  20.520  0.00  0.00    +0.000 C 
ENDBRANCH  10  12
ENDBRANCH   1  10
BRANCH   7  14
ATOM     14  C   UNL     1       6.010   3.429  15.580  0.00  0.00    +0.000 C 
BRANCH  14  15
ATOM     15  C   UNL     1       6.224   4.373  14.370  0.00  0.00    +0.000 C 
ATOM     16  C   UNL     1       5.862   3.715  13.037  0.00  0.00    +0.000 C 
ATOM     17  C   UNL     1       5.417   5.663  14.541  0.00  0.00    +0.000 C 
ENDBRANCH  14  15
ENDBRANCH   7  14
TORSDOF 4
ENDMDL
MODEL 7
REMARK VINA RESULT:      -6.1      2.156      5.774
REMARK  Name = 
REMARK  8 active torsions:
REMARK  status: ('A' for Active; 'I' for Inactive)
REMARK    1  A    between atoms: C_1  and  C_2
REMARK    2  A    between atoms: C_2  and  C_3
REMARK    3  A    between atoms: C_2  and  C_4
REMARK    4  A    between atoms: C_4  and  N_5
REMARK    5  A    between atoms: N_11  and  C_12
REMARK    6  A    between atoms: C_12  and  C_13
REMARK    7  A    between atoms: C_13  and  C_14
REMARK    8  A    between atoms: C_13  and  C_15
REMARK                            x       y       z     vdW  Elec       q    Type
REMARK                         _______ _______ _______ _____ _____    ______ ____
ROOT
ATOM      1  N   UNL     1       4.782   4.377  16.921  0.00  0.00    +0.000 N 
ATOM      2  C   UNL     1       4.504   5.729  16.883  0.00  0.00    +0.000 A 
ATOM      3  C   UNL     1       3.695   6.306  17.772  0.00  0.00    +0.000 A 
ATOM      4 CL   UNL     1       3.239   7.957  17.640  0.00  0.00    +0.000 Cl
ATOM      5  C   UNL     1       3.189   5.500  18.915  0.00  0.00    +0.000 A 
ATOM      6  O   UNL     1       2.439   5.996  19.755  0.00  0.00    +0.000 OA
ATOM      7  N   UNL     1       3.614   4.174  18.953  0.00  0.00    +0.000 N 
ATOM      8  C   UNL     1       4.095   3.541  17.810  0.00  0.00    +0.000 A 
ATOM      9  O   UNL     1       3.942   2.338  17.583  0.00  0.00    +0.000 OA
ENDROOT
BRANCH   1  10
ATOM     10  C   UNL     1       5.647   3.775  15.894  0.00  0.00    +0.000 C 
BRANCH  10  12
ATOM     11  C   UNL     1       7.203   5.039  14.295  0.00  0.00    +0.000 C 
ATOM     12  C   UNL     1       5.762   4.604  14.590  0.00  0.00    +0.000 C 
ATOM     13  C   UNL     1       5.236   3.806  13.394  0.00  0.00    +0.000 C 
ENDBRANCH  10  12
ENDBRANCH   1  10
BRANCH   7  14
ATOM     14  C   UNL     1       3.166   3.358  20.089  0.00  0.00    +0.000 C 
BRANCH  14  15
ATOM     15  C   UNL     1       1.633   3.306  20.302  0.00  0.00    +0.000 C 
ATOM     16  C   UNL     1       0.905   2.566  19.177  0.00  0.00    +0.000 C 
ATOM     17  C   UNL     1       1.295   2.655  21.647  0.00  0.00    +0.000 C 
ENDBRANCH  14  15
ENDBRANCH   7  14
TORSDOF 4
ENDMDL
MODEL 8
REMARK VINA RESULT:      -6.1      2.387      2.996
REMARK  Name = 
REMARK  8 active torsions:
REMARK  status: ('A' for Active; 'I' for Inactive)
REMARK    1  A    between atoms: C_1  and  C_2
REMARK    2  A    between atoms: C_2  and  C_3
REMARK    3  A    between atoms: C_2  and  C_4
REMARK    4  A    between atoms: C_4  and  N_5
REMARK    5  A    between atoms: N_11  and  C_12
REMARK    6  A    between atoms: C_12  and  C_13
REMARK    7  A    between atoms: C_13  and  C_14
REMARK    8  A    between atoms: C_13  and  C_15
REMARK                            x       y       z     vdW  Elec       q    Type
REMARK                         _______ _______ _______ _____ _____    ______ ____
ROOT
ATOM      1  N   UNL     1       3.451   4.401  19.210  0.00  0.00    +0.000 N 
ATOM      2  C   UNL     1       2.726   5.536  18.903  0.00  0.00    +0.000 A 
ATOM      3  C   UNL     1       3.252   6.537  18.198  0.00  0.00    +0.000 A 
ATOM      4 CL   UNL     1       2.397   8.004  17.938  0.00  0.00    +0.000 Cl
ATOM      5  C   UNL     1       4.607   6.369  17.608  0.00  0.00    +0.000 A 
ATOM      6  O   UNL     1       5.127   7.272  16.953  0.00  0.00    +0.000 OA
ATOM      7  N   UNL     1       5.226   5.147  17.859  0.00  0.00    +0.000 N 
ATOM      8  C   UNL     1       4.818   4.338  18.916  0.00  0.00    +0.000 A 
ATOM      9  O   UNL     1       5.586   3.613  19.553  0.00  0.00    +0.000 OA
ENDROOT
BRANCH   1  10
ATOM     10  C   UNL     1       2.843   3.339  20.027  0.00  0.00    +0.000 C 
BRANCH  10  12
ATOM     11  C   UNL     1       0.664   2.540  18.936  0.00  0.00    +0.000 C 
ATOM     12  C   UNL     1       2.141   2.226  19.209  0.00  0.00    +0.000 C 
ATOM     13  C   UNL     1       2.851   2.010  17.870  0.00  0.00    +0.000 C 
ENDBRANCH  10  12
ENDBRANCH   1  10
BRANCH   7  14
ATOM     14  C   UNL     1       6.550   4.929  17.259  0.00  0.00    +0.000 C 
BRANCH  14  15
ATOM     15  C   UNL     1       6.547   4.174  15.907  0.00  0.00    +0.000 C 
ATOM     16  C   UNL     1       5.142   3.755  15.467  0.00  0.00    +0.000 C 
ATOM     17  C   UNL     1       7.196   5.023  14.811  0.00  0.00    +0.000 C 
ENDBRANCH  14  15
ENDBRANCH   7  14
TORSDOF 4
ENDMDL
MODEL 9
REMARK VINA RESULT:      -6.0      0.708      1.060
REMARK  Name = 
REMARK  8 active torsions:
REMARK  status: ('A' for Active; 'I' for Inactive)
REMARK    1  A    between atoms: C_1  and  C_2
REMARK    2  A    between atoms: C_2  and  C_3
REMARK    3  A    between atoms: C_2  and  C_4
REMARK    4  A    between atoms: C_4  and  N_5
REMARK    5  A    between atoms: N_11  and  C_12
REMARK    6  A    between atoms: C_12  and  C_13
REMARK    7  A    between atoms: C_13  and  C_14
REMARK    8  A    between atoms: C_13  and  C_15
REMARK                            x       y       z     vdW  Elec       q    Type
REMARK                         _______ _______ _______ _____ _____    ______ ____
ROOT
ATOM      1  N   UNL     1       4.205   4.606  18.488  0.00  0.00    +0.000 N 
ATOM      2  C   UNL     1       5.199   5.223  19.222  0.00  0.00    +0.000 A 
ATOM      3  C   UNL     1       6.481   5.157  18.865  0.00  0.00    +0.000 A 
ATOM      4 CL   UNL     1       7.728   5.805  19.853  0.00  0.00    +0.000 Cl
ATOM      5  C   UNL     1       6.836   4.519  17.569  0.00  0.00    +0.000 A 
ATOM      6  O   UNL     1       8.009   4.438  17.206  0.00  0.00    +0.000 OA
ATOM      7  N   UNL     1       5.765   4.029  16.825  0.00  0.00    +0.000 N 
ATOM      8  C   UNL     1       4.538   3.759  17.424  0.00  0.00    +0.000 A 
ATOM      9  O   UNL     1       3.788   2.851  17.058  0.00  0.00    +0.000 OA
ENDROOT
BRANCH   1  10
ATOM     10  C   UNL     1       2.807   4.670  18.943  0.00  0.00    +0.000 C 
BRANCH  10  12
ATOM     11  C   UNL     1       1.752   6.301  20.618  0.00  0.00    +0.000 C 
ATOM     12  C   UNL     1       2.638   5.061  20.433  0.00  0.00    +0.000 C 
ATOM     13  C   UNL     1       2.033   3.903  21.230  0.00  0.00    +0.000 C 
ENDBRANCH  10  12
ENDBRANCH   1  10
BRANCH   7  14
ATOM     14  C   UNL     1       6.074   3.428  15.520  0.00  0.00    +0.000 C 
BRANCH  14  15
ATOM     15  C   UNL     1       6.161   4.425  14.338  0.00  0.00    +0.000 C 
ATOM     16  C   UNL     1       5.659   3.825  13.022  0.00  0.00    +0.000 C 
ATOM     17  C   UNL     1       5.379   5.704  14.649  0.00  0.00    +0.000 C 
ENDBRANCH  14  15
ENDBRANCH   7  14
TORSDOF 4
ENDMDL
