MODEL 1
REMARK VINA RESULT:      -7.6      0.000      0.000
REMARK  Name = 
REMARK  10 active torsions:
REMARK  status: ('A' for Active; 'I' for Inactive)
REMARK    1  A    between atoms: C_1  and  C_2
REMARK    2  A    between atoms: C_3  and  C_4
REMARK    3  A    between atoms: C_14  and  C_15
REMARK    4  A    between atoms: C_15  and  C_16
REMARK    5  A    between atoms: C_15  and  C_17
REMARK    6  A    between atoms: C_15  and  C_18
REMARK    7  A    between atoms: C_21  and  C_22
REMARK    8  A    between atoms: N_24  and  C_25
REMARK    9  A    between atoms: C_28  and  C_29
REMARK   10  A    between atoms: C_29  and  O_31
REMARK                            x       y       z     vdW  Elec       q    Type
REMARK                         _______ _______ _______ _____ _____    ______ ____
ROOT
ATOM      1  C   UNL     1       4.951   7.089  15.118  0.00  0.00    +0.000 C 
ATOM      2  C   UNL     1       4.835   5.802  15.889  0.00  0.00    +0.000 A 
ATOM      3  C   UNL     1       5.265   4.575  15.367  0.00  0.00    +0.000 A 
ATOM      4  N   UNL     1       5.008   3.404  16.006  0.00  0.00    +0.000 NA
ATOM      5  C   UNL     1       4.329   3.389  17.158  0.00  0.00    +0.000 A 
ATOM      6  C   UNL     1       4.016   2.155  17.706  0.00  0.00    +0.000 A 
ATOM      7  C   UNL     1       3.293   2.030  18.897  0.00  0.00    +0.000 A 
ATOM      8  C   UNL     1       2.846   3.161  19.584  0.00  0.00    +0.000 A 
ATOM      9  C   UNL     1       3.187   4.408  19.029  0.00  0.00    +0.000 A 
ATOM     10  C   UNL     1       3.923   4.549  17.819  0.00  0.00    +0.000 A 
ATOM     11  C   UNL     1       4.240   5.782  17.183  0.00  0.00    +0.000 A 
ENDROOT
BRANCH   3  12
ATOM     12  C   UNL     1       6.028   4.370  14.106  0.00  0.00    +0.000 A 
ATOM     13  C   UNL     1       5.593   3.511  13.079  0.00  0.00    +0.000 A 
ATOM     14  C   UNL     1       6.349   3.326  11.908  0.00  0.00    +0.000 A 
ATOM     15  C   UNL     1       7.515   4.049  11.707  0.00  0.00    +0.000 A 
ATOM     16  C   UNL     1       7.948   4.946  12.679  0.00  0.00    +0.000 A 
ATOM     17  C   UNL     1       7.216   5.098  13.858  0.00  0.00    +0.000 A 
ENDBRANCH   3  12
BRANCH   8  18
ATOM     18  C   UNL     1       2.050   3.059  20.896  0.00  0.00    +0.000 C 
ATOM     19  C   UNL     1       0.554   2.948  20.545  0.00  0.00    +0.000 C 
ATOM     20  C   UNL     1       2.453   1.822  21.734  0.00  0.00    +0.000 C 
ATOM     21  C   UNL     1       2.254   4.287  21.813  0.00  0.00    +0.000 C 
ENDBRANCH   8  18
BRANCH  11  22
ATOM     22  C   UNL     1       3.856   7.065  17.858  0.00  0.00    +0.000 C 
ATOM     23  O   UNL     1       4.723   7.870  18.172  0.00  0.00    +0.000 OA
ATOM     24  N   UNL     1       2.501   7.229  18.127  0.00  0.00    +0.000 N 
ATOM     25  H   UNL     1       1.902   6.408  18.110  0.00  0.00    +0.000 HD
BRANCH  24  26
ATOM     26  C   UNL     1       1.935   8.415  18.658  0.00  0.00    +0.000 A 
ATOM     27  C   UNL     1       1.787   9.585  17.908  0.00  0.00    +0.000 A 
ATOM     28  C   UNL     1       1.232  10.735  18.485  0.00  0.00    +0.000 A 
ATOM     29  C   UNL     1       0.848  10.736  19.832  0.00  0.00    +0.000 A 
ATOM     30  C   UNL     1       0.965   9.565  20.584  0.00  0.00    +0.000 A 
ATOM     31  C   UNL     1       1.484   8.414  19.983  0.00  0.00    +0.000 A 
ATOM     32  F   UNL     1       1.591   7.299  20.719  0.00  0.00    +0.000 F 
BRANCH  29  33
ATOM     33  C   UNL     1       0.266  11.986  20.392  0.00  0.00    +0.000 C 
ATOM     34  O   UNL     1      -0.476  12.707  19.751  0.00  0.00    +0.000 OA
BRANCH  33  35
ATOM     35  O   UNL     1       0.653  12.261  21.654  0.00  0.00    +0.000 OA
ATOM     36  H   UNL     1      -0.003  12.717  22.211  0.00  0.00    +0.000 HD
ENDBRANCH  33  35
ENDBRANCH  29  33
ENDBRANCH  24  26
ENDBRANCH  11  22
TORSDOF 6
ENDMDL
MODEL 2
REMARK VINA RESULT:      -7.4      4.686      9.742
REMARK  Name = 
REMARK  10 active torsions:
REMARK  status: ('A' for Active; 'I' for Inactive)
REMARK    1  A    between atoms: C_1  and  C_2
REMARK    2  A    between atoms: C_3  and  C_4
REMARK    3  A    between atoms: C_14  and  C_15
REMARK    4  A    between atoms: C_15  and  C_16
REMARK    5  A    between atoms: C_15  and  C_17
REMARK    6  A    between atoms: C_15  and  C_18
REMARK    7  A    between atoms: C_21  and  C_22
REMARK    8  A    between atoms: N_24  and  C_25
REMARK    9  A    between atoms: C_28  and  C_29
REMARK   10  A    between atoms: C_29  and  O_31
REMARK                            x       y       z     vdW  Elec       q    Type
REMARK                         _______ _______ _______ _____ _____    ______ ____
ROOT
ATOM      1  C   UNL     1      -0.963   9.693  20.347  0.00  0.00    +0.000 C 
ATOM      2  C   UNL     1      -0.104  10.709  19.644  0.00  0.00    +0.000 A 
ATOM      3  C   UNL     1       1.152  10.388  19.113  0.00  0.00    +0.000 A 
ATOM      4  N   UNL     1       1.982  11.348  18.627  0.00  0.00    +0.000 NA
ATOM      5  C   UNL     1       1.622  12.635  18.645  0.00  0.00    +0.000 A 
ATOM      6  C   UNL     1       2.554  13.571  18.225  0.00  0.00    +0.000 A 
ATOM      7  C   UNL     1       2.284  14.944  18.223  0.00  0.00    +0.000 A 
ATOM      8  C   UNL     1       1.049  15.430  18.660  0.00  0.00    +0.000 A 
ATOM      9  C   UNL     1       0.105  14.469  19.065  0.00  0.00    +0.000 A 
ATOM     10  C   UNL     1       0.366  13.070  19.070  0.00  0.00    +0.000 A 
ATOM     11  C   UNL     1      -0.529  12.064  19.527  0.00  0.00    +0.000 A 
ENDROOT
BRANCH   3  12
ATOM     12  C   UNL     1       1.743   9.027  19.001  0.00  0.00    +0.000 A 
ATOM     13  C   UNL     1       1.713   8.090  20.052  0.00  0.00    +0.000 A 
ATOM     14  C   UNL     1       2.297   6.818  19.917  0.00  0.00    +0.000 A 
ATOM     15  C   UNL     1       2.858   6.430  18.710  0.00  0.00    +0.000 A 
ATOM     16  C   UNL     1       2.859   7.313  17.634  0.00  0.00    +0.000 A 
ATOM     17  C   UNL     1       2.313   8.589  17.782  0.00  0.00    +0.000 A 
ENDBRANCH   3  12
BRANCH   8  18
ATOM     18  C   UNL     1       0.720  16.932  18.669  0.00  0.00    +0.000 C 
ATOM     19  C   UNL     1       1.584  17.620  17.595  0.00  0.00    +0.000 C 
ATOM     20  C   UNL     1      -0.770  17.210  18.359  0.00  0.00    +0.000 C 
ATOM     21  C   UNL     1       1.008  17.595  20.036  0.00  0.00    +0.000 C 
ENDBRANCH   8  18
BRANCH  11  22
ATOM     22  C   UNL     1      -1.905  12.464  19.969  0.00  0.00    +0.000 C 
ATOM     23  O   UNL     1      -2.862  12.273  19.229  0.00  0.00    +0.000 OA
ATOM     24  N   UNL     1      -1.988  13.086  21.210  0.00  0.00    +0.000 N 
ATOM     25  H   UNL     1      -1.139  13.471  21.616  0.00  0.00    +0.000 HD
BRANCH  24  26
ATOM     26  C   UNL     1      -3.207  13.438  21.843  0.00  0.00    +0.000 A 
ATOM     27  C   UNL     1      -4.013  14.490  21.400  0.00  0.00    +0.000 A 
ATOM     28  C   UNL     1      -5.203  14.805  22.070  0.00  0.00    +0.000 A 
ATOM     29  C   UNL     1      -5.583  14.089  23.213  0.00  0.00    +0.000 A 
ATOM     30  C   UNL     1      -4.800  13.017  23.648  0.00  0.00    +0.000 A 
ATOM     31  C   UNL     1      -3.636  12.690  22.946  0.00  0.00    +0.000 A 
ATOM     32  F   UNL     1      -2.895  11.660  23.376  0.00  0.00    +0.000 F 
BRANCH  29  33
ATOM     33  C   UNL     1      -6.856  14.467  23.884  0.00  0.00    +0.000 C 
ATOM     34  O   UNL     1      -7.369  15.563  23.744  0.00  0.00    +0.000 OA
BRANCH  33  35
ATOM     35  O   UNL     1      -7.371  13.507  24.677  0.00  0.00    +0.000 OA
ATOM     36  H   UNL     1      -6.750  13.089  25.299  0.00  0.00    +0.000 HD
ENDBRANCH  33  35
ENDBRANCH  29  33
ENDBRANCH  24  26
ENDBRANCH  11  22
TORSDOF 6
ENDMDL
MODEL 3
REMARK VINA RESULT:      -7.4      4.523      9.507
REMARK  Name = 
REMARK  10 active torsions:
REMARK  status: ('A' for Active; 'I' for Inactive)
REMARK    1  A    between atoms: C_1  and  C_2
REMARK    2  A    between atoms: C_3  and  C_4
REMARK    3  A    between atoms: C_14  and  C_15
REMARK    4  A    between atoms: C_15  and  C_16
REMARK    5  A    between atoms: C_15  and  C_17
REMARK    6  A    between atoms: C_15  and  C_18
REMARK    7  A    between atoms: C_21  and  C_22
REMARK    8  A    between atoms: N_24  and  C_25
REMARK    9  A    between atoms: C_28  and  C_29
REMARK   10  A    between atoms: C_29  and  O_31
REMARK                            x       y       z     vdW  Elec       q    Type
REMARK                         _______ _______ _______ _____ _____    ______ ____
ROOT
ATOM      1  C   UNL     1      -0.854   9.489  20.333  0.00  0.00    +0.000 C 
ATOM      2  C   UNL     1       0.035  10.473  19.620  0.00  0.00    +0.000 A 
ATOM      3  C   UNL     1       1.281  10.110  19.093  0.00  0.00    +0.000 A 
ATOM      4  N   UNL     1       2.139  11.040  18.598  0.00  0.00    +0.000 NA
ATOM      5  C   UNL     1       1.817  12.338  18.603  0.00  0.00    +0.000 A 
ATOM      6  C   UNL     1       2.776  13.242  18.175  0.00  0.00    +0.000 A 
ATOM      7  C   UNL     1       2.546  14.621  18.159  0.00  0.00    +0.000 A 
ATOM      8  C   UNL     1       1.326  15.148  18.591  0.00  0.00    +0.000 A 
ATOM      9  C   UNL     1       0.354  14.219  19.005  0.00  0.00    +0.000 A 
ATOM     10  C   UNL     1       0.574  12.813  19.023  0.00  0.00    +0.000 A 
ATOM     11  C   UNL     1      -0.350  11.838  19.489  0.00  0.00    +0.000 A 
ENDROOT
BRANCH   3  12
ATOM     12  C   UNL     1       1.832   8.731  18.994  0.00  0.00    +0.000 A 
ATOM     13  C   UNL     1       2.435   8.229  17.825  0.00  0.00    +0.000 A 
ATOM     14  C   UNL     1       2.928   6.914  17.761  0.00  0.00    +0.000 A 
ATOM     15  C   UNL     1       2.895   6.099  18.882  0.00  0.00    +0.000 A 
ATOM     16  C   UNL     1       2.352   6.580  20.070  0.00  0.00    +0.000 A 
ATOM     17  C   UNL     1       1.828   7.873  20.120  0.00  0.00    +0.000 A 
ENDBRANCH   3  12
BRANCH   8  18
ATOM     18  C   UNL     1       1.040  16.659  18.585  0.00  0.00    +0.000 C 
ATOM     19  C   UNL     1       1.322  17.207  19.997  0.00  0.00    +0.000 C 
ATOM     20  C   UNL     1       1.927  17.422  17.573  0.00  0.00    +0.000 C 
ATOM     21  C   UNL     1      -0.424  16.986  18.210  0.00  0.00    +0.000 C 
ENDBRANCH   8  18
BRANCH  11  22
ATOM     22  C   UNL     1      -1.714  12.283  19.927  0.00  0.00    +0.000 C 
ATOM     23  O   UNL     1      -2.651  12.237  19.140  0.00  0.00    +0.000 OA
ATOM     24  N   UNL     1      -1.807  12.775  21.224  0.00  0.00    +0.000 N 
ATOM     25  H   UNL     1      -0.951  13.056  21.697  0.00  0.00    +0.000 HD
BRANCH  24  26
ATOM     26  C   UNL     1      -3.024  13.140  21.851  0.00  0.00    +0.000 A 
ATOM     27  C   UNL     1      -3.883  14.110  21.328  0.00  0.00    +0.000 A 
ATOM     28  C   UNL     1      -5.070  14.444  21.994  0.00  0.00    +0.000 A 
ATOM     29  C   UNL     1      -5.394  13.832  23.212  0.00  0.00    +0.000 A 
ATOM     30  C   UNL     1      -4.557  12.842  23.731  0.00  0.00    +0.000 A 
ATOM     31  C   UNL     1      -3.397  12.492  23.034  0.00  0.00    +0.000 A 
ATOM     32  F   UNL     1      -2.604  11.539  23.546  0.00  0.00    +0.000 F 
BRANCH  29  33
ATOM     33  C   UNL     1      -6.666  14.227  23.876  0.00  0.00    +0.000 C 
ATOM     34  O   UNL     1      -7.116  15.356  23.810  0.00  0.00    +0.000 OA
BRANCH  33  35
ATOM     35  O   UNL     1      -7.256  13.237  24.575  0.00  0.00    +0.000 OA
ATOM     36  H   UNL     1      -6.797  12.956  25.387  0.00  0.00    +0.000 HD
ENDBRANCH  33  35
ENDBRANCH  29  33
ENDBRANCH  24  26
ENDBRANCH  11  22
TORSDOF 6
ENDMDL
MODEL 4
REMARK VINA RESULT:      -7.4      4.764      9.781
REMARK  Name = 
REMARK  10 active torsions:
REMARK  status: ('A' for Active; 'I' for Inactive)
REMARK    1  A    between atoms: C_1  and  C_2
REMARK    2  A    between atoms: C_3  and  C_4
REMARK    3  A    between atoms: C_14  and  C_15
REMARK    4  A    between atoms: C_15  and  C_16
REMARK    5  A    between atoms: C_15  and  C_17
REMARK    6  A    between atoms: C_15  and  C_18
REMARK    7  A    between atoms: C_21  and  C_22
REMARK    8  A    between atoms: N_24  and  C_25
REMARK    9  A    between atoms: C_28  and  C_29
REMARK   10  A    between atoms: C_29  and  O_31
REMARK                            x       y       z     vdW  Elec       q    Type
REMARK                         _______ _______ _______ _____ _____    ______ ____
ROOT
ATOM      1  C   UNL     1      -0.906   9.637  20.387  0.00  0.00    +0.000 C 
ATOM      2  C   UNL     1      -0.056  10.644  19.660  0.00  0.00    +0.000 A 
ATOM      3  C   UNL     1       1.182  10.310  19.095  0.00  0.00    +0.000 A 
ATOM      4  N   UNL     1       2.008  11.260  18.586  0.00  0.00    +0.000 NA
ATOM      5  C   UNL     1       1.662  12.551  18.611  0.00  0.00    +0.000 A 
ATOM      6  C   UNL     1       2.592  13.477  18.165  0.00  0.00    +0.000 A 
ATOM      7  C   UNL     1       2.336  14.852  18.169  0.00  0.00    +0.000 A 
ATOM      8  C   UNL     1       1.118  15.351  18.638  0.00  0.00    +0.000 A 
ATOM      9  C   UNL     1       0.175  14.401  19.070  0.00  0.00    +0.000 A 
ATOM     10  C   UNL     1       0.423  12.999  19.069  0.00  0.00    +0.000 A 
ATOM     11  C   UNL     1      -0.470  12.002  19.552  0.00  0.00    +0.000 A 
ENDROOT
BRANCH   3  12
ATOM     12  C   UNL     1       1.755   8.942  18.969  0.00  0.00    +0.000 A 
ATOM     13  C   UNL     1       2.410   8.491  17.807  0.00  0.00    +0.000 A 
ATOM     14  C   UNL     1       2.925   7.185  17.715  0.00  0.00    +0.000 A 
ATOM     15  C   UNL     1       2.860   6.329  18.804  0.00  0.00    +0.000 A 
ATOM     16  C   UNL     1       2.264   6.760  19.987  0.00  0.00    +0.000 A 
ATOM     17  C   UNL     1       1.720   8.044  20.062  0.00  0.00    +0.000 A 
ENDBRANCH   3  12
BRANCH   8  18
ATOM     18  C   UNL     1       0.804  16.857  18.654  0.00  0.00    +0.000 C 
ATOM     19  C   UNL     1       1.218  17.420  20.027  0.00  0.00    +0.000 C 
ATOM     20  C   UNL     1       1.568  17.629  17.553  0.00  0.00    +0.000 C 
ATOM     21  C   UNL     1      -0.697  17.153  18.429  0.00  0.00    +0.000 C 
ENDBRANCH   8  18
BRANCH  11  22
ATOM     22  C   UNL     1      -1.830  12.417  20.031  0.00  0.00    +0.000 C 
ATOM     23  O   UNL     1      -2.805  12.255  19.309  0.00  0.00    +0.000 OA
ATOM     24  N   UNL     1      -1.876  13.019  21.284  0.00  0.00    +0.000 N 
ATOM     25  H   UNL     1      -1.012  13.383  21.678  0.00  0.00    +0.000 HD
BRANCH  24  26
ATOM     26  C   UNL     1      -3.074  13.379  21.949  0.00  0.00    +0.000 A 
ATOM     27  C   UNL     1      -3.670  12.574  22.924  0.00  0.00    +0.000 A 
ATOM     28  C   UNL     1      -4.863  12.969  23.543  0.00  0.00    +0.000 A 
ATOM     29  C   UNL     1      -5.493  14.164  23.168  0.00  0.00    +0.000 A 
ATOM     30  C   UNL     1      -4.892  14.991  22.215  0.00  0.00    +0.000 A 
ATOM     31  C   UNL     1      -3.681  14.601  21.636  0.00  0.00    +0.000 A 
ATOM     32  F   UNL     1      -3.118  15.405  20.723  0.00  0.00    +0.000 F 
BRANCH  29  33
ATOM     33  C   UNL     1      -6.758  14.533  23.857  0.00  0.00    +0.000 C 
ATOM     34  O   UNL     1      -7.266  15.635  23.748  0.00  0.00    +0.000 OA
BRANCH  33  35
ATOM     35  O   UNL     1      -7.273  13.557  24.631  0.00  0.00    +0.000 OA
ATOM     36  H   UNL     1      -6.632  13.046  25.156  0.00  0.00    +0.000 HD
ENDBRANCH  33  35
ENDBRANCH  29  33
ENDBRANCH  24  26
ENDBRANCH  11  22
TORSDOF 6
ENDMDL
MODEL 5
REMARK VINA RESULT:      -7.3      4.645      9.612
REMARK  Name = 
REMARK  10 active torsions:
REMARK  status: ('A' for Active; 'I' for Inactive)
REMARK    1  A    between atoms: C_1  and  C_2
REMARK    2  A    between atoms: C_3  and  C_4
REMARK    3  A    between atoms: C_14  and  C_15
REMARK    4  A    between atoms: C_15  and  C_16
REMARK    5  A    between atoms: C_15  and  C_17
REMARK    6  A    between atoms: C_15  and  C_18
REMARK    7  A    between atoms: C_21  and  C_22
REMARK    8  A    between atoms: N_24  and  C_25
REMARK    9  A    between atoms: C_28  and  C_29
REMARK   10  A    between atoms: C_29  and  O_31
REMARK                            x       y       z     vdW  Elec       q    Type
REMARK                         _______ _______ _______ _____ _____    ______ ____
ROOT
ATOM      1  C   UNL     1      -0.245   9.653  21.882  0.00  0.00    +0.000 C 
ATOM      2  C   UNL     1       0.340  10.495  20.780  0.00  0.00    +0.000 A 
ATOM      3  C   UNL     1       1.244   9.978  19.844  0.00  0.00    +0.000 A 
ATOM      4  N   UNL     1       1.885  10.783  18.957  0.00  0.00    +0.000 NA
ATOM      5  C   UNL     1       1.670  12.103  18.955  0.00  0.00    +0.000 A 
ATOM      6  C   UNL     1       2.428  12.878  18.092  0.00  0.00    +0.000 A 
ATOM      7  C   UNL     1       2.295  14.269  18.027  0.00  0.00    +0.000 A 
ATOM      8  C   UNL     1       1.385  14.939  18.848  0.00  0.00    +0.000 A 
ATOM      9  C   UNL     1       0.607  14.140  19.706  0.00  0.00    +0.000 A 
ATOM     10  C   UNL     1       0.732  12.724  19.780  0.00  0.00    +0.000 A 
ATOM     11  C   UNL     1       0.016  11.878  20.672  0.00  0.00    +0.000 A 
ENDROOT
BRANCH   3  12
ATOM     12  C   UNL     1       1.625   8.548  19.678  0.00  0.00    +0.000 A 
ATOM     13  C   UNL     1       1.458   7.589  20.695  0.00  0.00    +0.000 A 
ATOM     14  C   UNL     1       1.846   6.249  20.511  0.00  0.00    +0.000 A 
ATOM     15  C   UNL     1       2.340   5.827  19.286  0.00  0.00    +0.000 A 
ATOM     16  C   UNL     1       2.469   6.738  18.241  0.00  0.00    +0.000 A 
ATOM     17  C   UNL     1       2.120   8.075  18.440  0.00  0.00    +0.000 A 
ENDBRANCH   3  12
BRANCH   8  18
ATOM     18  C   UNL     1       1.212  16.467  18.800  0.00  0.00    +0.000 C 
ATOM     19  C   UNL     1       2.256  17.038  17.821  0.00  0.00    +0.000 C 
ATOM     20  C   UNL     1      -0.197  16.886  18.320  0.00  0.00    +0.000 C 
ATOM     21  C   UNL     1       1.413  17.132  20.182  0.00  0.00    +0.000 C 
ENDBRANCH   8  18
BRANCH  11  22
ATOM     22  C   UNL     1      -1.027  12.481  21.564  0.00  0.00    +0.000 C 
ATOM     23  O   UNL     1      -0.690  13.061  22.589  0.00  0.00    +0.000 OA
ATOM     24  N   UNL     1      -2.348  12.290  21.173  0.00  0.00    +0.000 N 
ATOM     25  H   UNL     1      -2.550  11.560  20.495  0.00  0.00    +0.000 HD
BRANCH  24  26
ATOM     26  C   UNL     1      -3.462  12.873  21.825  0.00  0.00    +0.000 A 
ATOM     27  C   UNL     1      -4.285  13.822  21.213  0.00  0.00    +0.000 A 
ATOM     28  C   UNL     1      -5.368  14.379  21.906  0.00  0.00    +0.000 A 
ATOM     29  C   UNL     1      -5.620  14.015  23.235  0.00  0.00    +0.000 A 
ATOM     30  C   UNL     1      -4.822  13.046  23.848  0.00  0.00    +0.000 A 
ATOM     31  C   UNL     1      -3.770  12.471  23.130  0.00  0.00    +0.000 A 
ATOM     32  F   UNL     1      -3.012  11.543  23.733  0.00  0.00    +0.000 F 
BRANCH  29  33
ATOM     33  C   UNL     1      -6.783  14.638  23.923  0.00  0.00    +0.000 C 
ATOM     34  O   UNL     1      -7.055  15.819  23.808  0.00  0.00    +0.000 OA
BRANCH  33  35
ATOM     35  O   UNL     1      -7.486  13.791  24.701  0.00  0.00    +0.000 OA
ATOM     36  H   UNL     1      -8.168  14.198  25.265  0.00  0.00    +0.000 HD
ENDBRANCH  33  35
ENDBRANCH  29  33
ENDBRANCH  24  26
ENDBRANCH  11  22
TORSDOF 6
ENDMDL
MODEL 6
REMARK VINA RESULT:      -7.3      4.582      9.517
REMARK  Name = 
REMARK  10 active torsions:
REMARK  status: ('A' for Active; 'I' for Inactive)
REMARK    1  A    between atoms: C_1  and  C_2
REMARK    2  A    between atoms: C_3  and  C_4
REMARK    3  A    between atoms: C_14  and  C_15
REMARK    4  A    between atoms: C_15  and  C_16
REMARK    5  A    between atoms: C_15  and  C_17
REMARK    6  A    between atoms: C_15  and  C_18
REMARK    7  A    between atoms: C_21  and  C_22
REMARK    8  A    between atoms: N_24  and  C_25
REMARK    9  A    between atoms: C_28  and  C_29
REMARK   10  A    between atoms: C_29  and  O_31
REMARK                            x       y       z     vdW  Elec       q    Type
REMARK                         _______ _______ _______ _____ _____    ______ ____
ROOT
ATOM      1  C   UNL     1      -0.131   9.215  22.022  0.00  0.00    +0.000 C 
ATOM      2  C   UNL     1       0.380  10.114  20.928  0.00  0.00    +0.000 A 
ATOM      3  C   UNL     1       1.269   9.664  19.944  0.00  0.00    +0.000 A 
ATOM      4  N   UNL     1       1.845  10.523  19.063  0.00  0.00    +0.000 NA
ATOM      5  C   UNL     1       1.581  11.833  19.114  0.00  0.00    +0.000 A 
ATOM      6  C   UNL     1       2.277  12.665  18.252  0.00  0.00    +0.000 A 
ATOM      7  C   UNL     1       2.088  14.051  18.239  0.00  0.00    +0.000 A 
ATOM      8  C   UNL     1       1.184  14.658  19.114  0.00  0.00    +0.000 A 
ATOM      9  C   UNL     1       0.469  13.801  19.971  0.00  0.00    +0.000 A 
ATOM     10  C   UNL     1       0.650  12.389  19.993  0.00  0.00    +0.000 A 
ATOM     11  C   UNL     1       0.001  11.486  20.879  0.00  0.00    +0.000 A 
ENDROOT
BRANCH   3  12
ATOM     12  C   UNL     1       1.697   8.257  19.716  0.00  0.00    +0.000 A 
ATOM     13  C   UNL     1       1.541   7.243  20.681  0.00  0.00    +0.000 A 
ATOM     14  C   UNL     1       1.974   5.927  20.439  0.00  0.00    +0.000 A 
ATOM     15  C   UNL     1       2.505   5.581  19.206  0.00  0.00    +0.000 A 
ATOM     16  C   UNL     1       2.627   6.547  18.211  0.00  0.00    +0.000 A 
ATOM     17  C   UNL     1       2.232   7.862  18.467  0.00  0.00    +0.000 A 
ENDBRANCH   3  12
BRANCH   8  18
ATOM     18  C   UNL     1       0.951  16.178  19.124  0.00  0.00    +0.000 C 
ATOM     19  C   UNL     1       2.016  16.833  18.224  0.00  0.00    +0.000 C 
ATOM     20  C   UNL     1      -0.450  16.563  18.594  0.00  0.00    +0.000 C 
ATOM     21  C   UNL     1       1.060  16.786  20.542  0.00  0.00    +0.000 C 
ENDBRANCH   8  18
BRANCH  11  22
ATOM     22  C   UNL     1      -1.031  12.018  21.828  0.00  0.00    +0.000 C 
ATOM     23  O   UNL     1      -0.684  12.488  22.905  0.00  0.00    +0.000 OA
ATOM     24  N   UNL     1      -2.355  11.892  21.422  0.00  0.00    +0.000 N 
ATOM     25  H   UNL     1      -2.571  11.237  20.675  0.00  0.00    +0.000 HD
BRANCH  24  26
ATOM     26  C   UNL     1      -3.459  12.430  22.129  0.00  0.00    +0.000 A 
ATOM     27  C   UNL     1      -3.588  12.331  23.517  0.00  0.00    +0.000 A 
ATOM     28  C   UNL     1      -4.707  12.869  24.168  0.00  0.00    +0.000 A 
ATOM     29  C   UNL     1      -5.727  13.484  23.431  0.00  0.00    +0.000 A 
ATOM     30  C   UNL     1      -5.595  13.613  22.046  0.00  0.00    +0.000 A 
ATOM     31  C   UNL     1      -4.455  13.107  21.416  0.00  0.00    +0.000 A 
ATOM     32  F   UNL     1      -4.344  13.239  20.087  0.00  0.00    +0.000 F 
BRANCH  29  33
ATOM     33  C   UNL     1      -6.891  14.036  24.174  0.00  0.00    +0.000 C 
ATOM     34  O   UNL     1      -7.826  13.344  24.535  0.00  0.00    +0.000 OA
BRANCH  33  35
ATOM     35  O   UNL     1      -6.834  15.366  24.386  0.00  0.00    +0.000 OA
ATOM     36  H   UNL     1      -7.526  15.897  23.952  0.00  0.00    +0.000 HD
ENDBRANCH  33  35
ENDBRANCH  29  33
ENDBRANCH  24  26
ENDBRANCH  11  22
TORSDOF 6
ENDMDL
MODEL 7
REMARK VINA RESULT:      -7.2      4.519      9.437
REMARK  Name = 
REMARK  10 active torsions:
REMARK  status: ('A' for Active; 'I' for Inactive)
REMARK    1  A    between atoms: C_1  and  C_2
REMARK    2  A    between atoms: C_3  and  C_4
REMARK    3  A    between atoms: C_14  and  C_15
REMARK    4  A    between atoms: C_15  and  C_16
REMARK    5  A    between atoms: C_15  and  C_17
REMARK    6  A    between atoms: C_15  and  C_18
REMARK    7  A    between atoms: C_21  and  C_22
REMARK    8  A    between atoms: N_24  and  C_25
REMARK    9  A    between atoms: C_28  and  C_29
REMARK   10  A    between atoms: C_29  and  O_31
REMARK                            x       y       z     vdW  Elec       q    Type
REMARK                         _______ _______ _______ _____ _____    ______ ____
ROOT
ATOM      1  C   UNL     1      -0.086   9.113  21.734  0.00  0.00    +0.000 C 
ATOM      2  C   UNL     1       0.420  10.090  20.707  0.00  0.00    +0.000 A 
ATOM      3  C   UNL     1       1.324   9.721  19.703  0.00  0.00    +0.000 A 
ATOM      4  N   UNL     1       1.894  10.645  18.887  0.00  0.00    +0.000 NA
ATOM      5  C   UNL     1       1.607  11.944  19.022  0.00  0.00    +0.000 A 
ATOM      6  C   UNL     1       2.296  12.843  18.223  0.00  0.00    +0.000 A 
ATOM      7  C   UNL     1       2.085  14.223  18.300  0.00  0.00    +0.000 A 
ATOM      8  C   UNL     1       1.164  14.756  19.205  0.00  0.00    +0.000 A 
ATOM      9  C   UNL     1       0.456  13.833  19.996  0.00  0.00    +0.000 A 
ATOM     10  C   UNL     1       0.660  12.426  19.926  0.00  0.00    +0.000 A 
ATOM     11  C   UNL     1       0.018  11.456  20.745  0.00  0.00    +0.000 A 
ENDROOT
BRANCH   3  12
ATOM     12  C   UNL     1       1.777   8.339  19.387  0.00  0.00    +0.000 A 
ATOM     13  C   UNL     1       2.258   7.962  18.118  0.00  0.00    +0.000 A 
ATOM     14  C   UNL     1       2.662   6.642  17.849  0.00  0.00    +0.000 A 
ATOM     15  C   UNL     1       2.661   5.691  18.858  0.00  0.00    +0.000 A 
ATOM     16  C   UNL     1       2.240   6.042  20.138  0.00  0.00    +0.000 A 
ATOM     17  C   UNL     1       1.803   7.343  20.392  0.00  0.00    +0.000 A 
ENDBRANCH   3  12
BRANCH   8  18
ATOM     18  C   UNL     1       0.907  16.269  19.314  0.00  0.00    +0.000 C 
ATOM     19  C   UNL     1      -0.432  16.580  18.617  0.00  0.00    +0.000 C 
ATOM     20  C   UNL     1       0.822  16.748  20.782  0.00  0.00    +0.000 C 
ATOM     21  C   UNL     1       2.019  17.110  18.647  0.00  0.00    +0.000 C 
ENDBRANCH   8  18
BRANCH  11  22
ATOM     22  C   UNL     1      -1.031  11.908  21.718  0.00  0.00    +0.000 C 
ATOM     23  O   UNL     1      -0.710  12.217  22.859  0.00  0.00    +0.000 OA
ATOM     24  N   UNL     1      -2.340  11.898  21.249  0.00  0.00    +0.000 N 
ATOM     25  H   UNL     1      -2.551  11.356  20.415  0.00  0.00    +0.000 HD
BRANCH  24  26
ATOM     26  C   UNL     1      -3.450  12.390  21.980  0.00  0.00    +0.000 A 
ATOM     27  C   UNL     1      -3.434  12.538  23.370  0.00  0.00    +0.000 A 
ATOM     28  C   UNL     1      -4.563  13.018  24.048  0.00  0.00    +0.000 A 
ATOM     29  C   UNL     1      -5.735  13.323  23.343  0.00  0.00    +0.000 A 
ATOM     30  C   UNL     1      -5.753  13.205  21.951  0.00  0.00    +0.000 A 
ATOM     31  C   UNL     1      -4.606  12.763  21.286  0.00  0.00    +0.000 A 
ATOM     32  F   UNL     1      -4.640  12.655  19.950  0.00  0.00    +0.000 F 
BRANCH  29  33
ATOM     33  C   UNL     1      -6.904  13.826  24.113  0.00  0.00    +0.000 C 
ATOM     34  O   UNL     1      -7.828  13.107  24.447  0.00  0.00    +0.000 OA
BRANCH  33  35
ATOM     35  O   UNL     1      -6.862  15.146  24.384  0.00  0.00    +0.000 OA
ATOM     36  H   UNL     1      -6.921  15.741  23.614  0.00  0.00    +0.000 HD
ENDBRANCH  33  35
ENDBRANCH  29  33
ENDBRANCH  24  26
ENDBRANCH  11  22
TORSDOF 6
ENDMDL
MODEL 8
REMARK VINA RESULT:      -7.2      4.854      9.915
REMARK  Name = 
REMARK  10 active torsions:
REMARK  status: ('A' for Active; 'I' for Inactive)
REMARK    1  A    between atoms: C_1  and  C_2
REMARK    2  A    between atoms: C_3  and  C_4
REMARK    3  A    between atoms: C_14  and  C_15
REMARK    4  A    between atoms: C_15  and  C_16
REMARK    5  A    between atoms: C_15  and  C_17
REMARK    6  A    between atoms: C_15  and  C_18
REMARK    7  A    between atoms: C_21  and  C_22
REMARK    8  A    between atoms: N_24  and  C_25
REMARK    9  A    between atoms: C_28  and  C_29
REMARK   10  A    between atoms: C_29  and  O_31
REMARK                            x       y       z     vdW  Elec       q    Type
REMARK                         _______ _______ _______ _____ _____    ______ ____
ROOT
ATOM      1  C   UNL     1      -0.997   9.711  20.482  0.00  0.00    +0.000 C 
ATOM      2  C   UNL     1      -0.152  10.723  19.756  0.00  0.00    +0.000 A 
ATOM      3  C   UNL     1       1.096  10.402  19.208  0.00  0.00    +0.000 A 
ATOM      4  N   UNL     1       1.915  11.359  18.700  0.00  0.00    +0.000 NA
ATOM      5  C   UNL     1       1.550  12.646  18.710  0.00  0.00    +0.000 A 
ATOM      6  C   UNL     1       2.472  13.581  18.266  0.00  0.00    +0.000 A 
ATOM      7  C   UNL     1       2.196  14.952  18.255  0.00  0.00    +0.000 A 
ATOM      8  C   UNL     1       0.966  15.438  18.706  0.00  0.00    +0.000 A 
ATOM      9  C   UNL     1       0.032  14.478  19.135  0.00  0.00    +0.000 A 
ATOM     10  C   UNL     1       0.299  13.080  19.150  0.00  0.00    +0.000 A 
ATOM     11  C   UNL     1      -0.585  12.075  19.631  0.00  0.00    +0.000 A 
ENDROOT
BRANCH   3  12
ATOM     12  C   UNL     1       1.690   9.041  19.100  0.00  0.00    +0.000 A 
ATOM     13  C   UNL     1       1.696   8.122  20.167  0.00  0.00    +0.000 A 
ATOM     14  C   UNL     1       2.283   6.850  20.035  0.00  0.00    +0.000 A 
ATOM     15  C   UNL     1       2.810   6.446  18.819  0.00  0.00    +0.000 A 
ATOM     16  C   UNL     1       2.775   7.311  17.729  0.00  0.00    +0.000 A 
ATOM     17  C   UNL     1       2.227   8.587  17.873  0.00  0.00    +0.000 A 
ENDBRANCH   3  12
BRANCH   8  18
ATOM     18  C   UNL     1       0.631  16.939  18.705  0.00  0.00    +0.000 C 
ATOM     19  C   UNL     1       1.025  17.520  20.076  0.00  0.00    +0.000 C 
ATOM     20  C   UNL     1       1.392  17.712  17.603  0.00  0.00    +0.000 C 
ATOM     21  C   UNL     1      -0.872  17.212  18.466  0.00  0.00    +0.000 C 
ENDBRANCH   8  18
BRANCH  11  22
ATOM     22  C   UNL     1      -1.955  12.474  20.091  0.00  0.00    +0.000 C 
ATOM     23  O   UNL     1      -2.920  12.294  19.358  0.00  0.00    +0.000 OA
ATOM     24  N   UNL     1      -2.025  13.084  21.339  0.00  0.00    +0.000 N 
ATOM     25  H   UNL     1      -1.171  13.461  21.741  0.00  0.00    +0.000 HD
BRANCH  24  26
ATOM     26  C   UNL     1      -3.236  13.432  21.987  0.00  0.00    +0.000 A 
ATOM     27  C   UNL     1      -3.843  12.615  22.946  0.00  0.00    +0.000 A 
ATOM     28  C   UNL     1      -5.048  12.999  23.549  0.00  0.00    +0.000 A 
ATOM     29  C   UNL     1      -5.678  14.193  23.172  0.00  0.00    +0.000 A 
ATOM     30  C   UNL     1      -5.068  15.030  22.236  0.00  0.00    +0.000 A 
ATOM     31  C   UNL     1      -3.845  14.652  21.673  0.00  0.00    +0.000 A 
ATOM     32  F   UNL     1      -3.272  15.466  20.776  0.00  0.00    +0.000 F 
BRANCH  29  33
ATOM     33  C   UNL     1      -6.957  14.550  23.844  0.00  0.00    +0.000 C 
ATOM     34  O   UNL     1      -7.600  13.749  24.497  0.00  0.00    +0.000 OA
BRANCH  33  35
ATOM     35  O   UNL     1      -7.351  15.824  23.644  0.00  0.00    +0.000 OA
ATOM     36  H   UNL     1      -7.701  16.289  24.425  0.00  0.00    +0.000 HD
ENDBRANCH  33  35
ENDBRANCH  29  33
ENDBRANCH  24  26
ENDBRANCH  11  22
TORSDOF 6
ENDMDL
MODEL 9
REMARK VINA RESULT:      -7.1      4.583      9.444
REMARK  Name = 
REMARK  10 active torsions:
REMARK  status: ('A' for Active; 'I' for Inactive)
REMARK    1  A    between atoms: C_1  and  C_2
REMARK    2  A    between atoms: C_3  and  C_4
REMARK    3  A    between atoms: C_14  and  C_15
REMARK    4  A    between atoms: C_15  and  C_16
REMARK    5  A    between atoms: C_15  and  C_17
REMARK    6  A    between atoms: C_15  and  C_18
REMARK    7  A    between atoms: C_21  and  C_22
REMARK    8  A    between atoms: N_24  and  C_25
REMARK    9  A    between atoms: C_28  and  C_29
REMARK   10  A    between atoms: C_29  and  O_31
REMARK                            x       y       z     vdW  Elec       q    Type
REMARK                         _______ _______ _______ _____ _____    ______ ____
ROOT
ATOM      1  C   UNL     1      -0.080   9.218  22.022  0.00  0.00    +0.000 C 
ATOM      2  C   UNL     1       0.453  10.071  20.902  0.00  0.00    +0.000 A 
ATOM      3  C   UNL     1       1.311   9.562  19.918  0.00  0.00    +0.000 A 
ATOM      4  N   UNL     1       1.910  10.377  19.011  0.00  0.00    +0.000 NA
ATOM      5  C   UNL     1       1.700  11.697  19.034  0.00  0.00    +0.000 A 
ATOM      6  C   UNL     1       2.418  12.481  18.145  0.00  0.00    +0.000 A 
ATOM      7  C   UNL     1       2.285  13.872  18.102  0.00  0.00    +0.000 A 
ATOM      8  C   UNL     1       1.417  14.535  18.974  0.00  0.00    +0.000 A 
ATOM      9  C   UNL     1       0.679  13.728  19.858  0.00  0.00    +0.000 A 
ATOM     10  C   UNL     1       0.804  12.311  19.910  0.00  0.00    +0.000 A 
ATOM     11  C   UNL     1       0.129  11.456  20.825  0.00  0.00    +0.000 A 
ENDROOT
BRANCH   3  12
ATOM     12  C   UNL     1       1.679   8.134  19.718  0.00  0.00    +0.000 A 
ATOM     13  C   UNL     1       1.502   7.152  20.711  0.00  0.00    +0.000 A 
ATOM     14  C   UNL     1       1.878   5.814  20.495  0.00  0.00    +0.000 A 
ATOM     15  C   UNL     1       2.371   5.417  19.261  0.00  0.00    +0.000 A 
ATOM     16  C   UNL     1       2.511   6.352  18.240  0.00  0.00    +0.000 A 
ATOM     17  C   UNL     1       2.173   7.687  18.470  0.00  0.00    +0.000 A 
ENDBRANCH   3  12
BRANCH   8  18
ATOM     18  C   UNL     1       1.247  16.064  18.951  0.00  0.00    +0.000 C 
ATOM     19  C   UNL     1       1.473  16.594  20.380  0.00  0.00    +0.000 C 
ATOM     20  C   UNL     1       2.254  16.755  18.003  0.00  0.00    +0.000 C 
ATOM     21  C   UNL     1      -0.160  16.498  18.479  0.00  0.00    +0.000 C 
ENDBRANCH   8  18
BRANCH  11  22
ATOM     22  C   UNL     1      -0.869  12.051  21.774  0.00  0.00    +0.000 C 
ATOM     23  O   UNL     1      -0.562  12.231  22.946  0.00  0.00    +0.000 OA
ATOM     24  N   UNL     1      -2.126  12.320  21.244  0.00  0.00    +0.000 N 
ATOM     25  H   UNL     1      -2.388  11.874  20.369  0.00  0.00    +0.000 HD
BRANCH  24  26
ATOM     26  C   UNL     1      -3.162  12.979  21.952  0.00  0.00    +0.000 A 
ATOM     27  C   UNL     1      -3.811  12.407  23.050  0.00  0.00    +0.000 A 
ATOM     28  C   UNL     1      -4.839  13.096  23.708  0.00  0.00    +0.000 A 
ATOM     29  C   UNL     1      -5.252  14.355  23.251  0.00  0.00    +0.000 A 
ATOM     30  C   UNL     1      -4.593  14.948  22.173  0.00  0.00    +0.000 A 
ATOM     31  C   UNL     1      -3.542  14.265  21.552  0.00  0.00    +0.000 A 
ATOM     32  F   UNL     1      -2.920  14.848  20.518  0.00  0.00    +0.000 F 
BRANCH  29  33
ATOM     33  C   UNL     1      -6.349  15.039  23.987  0.00  0.00    +0.000 C 
ATOM     34  O   UNL     1      -6.423  16.252  24.072  0.00  0.00    +0.000 OA
BRANCH  33  35
ATOM     35  O   UNL     1      -7.231  14.204  24.570  0.00  0.00    +0.000 OA
ATOM     36  H   UNL     1      -8.156  14.288  24.276  0.00  0.00    +0.000 HD
ENDBRANCH  33  35
ENDBRANCH  29  33
ENDBRANCH  24  26
ENDBRANCH  11  22
TORSDOF 6
ENDMDL
