MODEL 1
REMARK VINA RESULT:      -8.9      0.000      0.000
REMARK  Name = 
REMARK  5 active torsions:
REMARK  status: ('A' for Active; 'I' for Inactive)
REMARK    1  A    between atoms: C_1  and  C_2
REMARK    2  A    between atoms: C_6  and  C_7
REMARK    3  A    between atoms: N_9  and  C_10
REMARK    4  A    between atoms: C_14  and  N_15
REMARK    5  A    between atoms: C_16  and  C_18
REMARK                            x       y       z     vdW  Elec       q    Type
REMARK                         _______ _______ _______ _____ _____    ______ ____
ROOT
ATOM      1  C   UNL     1       4.180   4.085  17.831  0.00  0.00    +0.000 A 
ATOM      2  C   UNL     1       4.255   2.959  18.655  0.00  0.00    +0.000 A 
ATOM      3  C   UNL     1       3.706   2.973  19.933  0.00  0.00    +0.000 A 
ATOM      4  C   UNL     1       3.056   4.109  20.399  0.00  0.00    +0.000 A 
ATOM      5  C   UNL     1       2.953   5.251  19.602  0.00  0.00    +0.000 A 
ATOM      6  C   UNL     1       3.571   5.251  18.334  0.00  0.00    +0.000 A 
ENDROOT
BRANCH   1   9
ATOM      7  C   UNL     1       5.949   4.465  16.122  0.00  0.00    +0.000 C 
ATOM      8  O   UNL     1       6.830   4.863  16.882  0.00  0.00    +0.000 OA
ATOM      9  N   UNL     1       4.666   4.074  16.493  0.00  0.00    +0.000 N 
ATOM     10  H   UNL     1       4.119   3.569  15.810  0.00  0.00    +0.000 HD
BRANCH   7  16
ATOM     11  C   UNL     1       5.226   2.612  11.468  0.00  0.00    +0.000 C 
ATOM     12  C   UNL     1       5.988   3.466  12.438  0.00  0.00    +0.000 A 
ATOM     13  C   UNL     1       7.052   4.263  11.989  0.00  0.00    +0.000 A 
ATOM     14  C   UNL     1       7.746   5.081  12.874  0.00  0.00    +0.000 A 
ATOM     15  C   UNL     1       7.381   5.110  14.218  0.00  0.00    +0.000 A 
ATOM     16  C   UNL     1       6.325   4.314  14.691  0.00  0.00    +0.000 A 
ATOM     17  C   UNL     1       5.626   3.493  13.801  0.00  0.00    +0.000 A 
ENDBRANCH   7  16
ENDBRANCH   1   9
BRANCH   5  18
ATOM     18  N   UNL     1       2.212   6.395  20.008  0.00  0.00    +0.000 N 
ATOM     19  C   UNL     1       2.183   7.607  19.324  0.00  0.00    +0.000 C 
ATOM     20  O   UNL     1       2.782   7.869  18.285  0.00  0.00    +0.000 OA
ATOM     21  H   UNL     1       1.833   6.375  20.944  0.00  0.00    +0.000 HD
BRANCH  19  22
ATOM     22  C   UNL     1       1.409   8.719  19.944  0.00  0.00    +0.000 A 
ATOM     23  C   UNL     1       1.032   9.792  19.117  0.00  0.00    +0.000 A 
ATOM     24  C   UNL     1       0.253  10.836  19.614  0.00  0.00    +0.000 A 
ATOM     25  C   UNL     1      -0.163  10.813  20.943  0.00  0.00    +0.000 A 
ATOM     26  C   UNL     1       0.206   9.743  21.764  0.00  0.00    +0.000 A 
ATOM     27 CL   UNL     1      -0.336   9.709  23.398  0.00  0.00    +0.000 Cl
ATOM     28  C   UNL     1       0.989   8.695  21.275  0.00  0.00    +0.000 A 
ENDBRANCH  19  22
ENDBRANCH   5  18
TORSDOF 4
ENDMDL
MODEL 2
REMARK VINA RESULT:      -8.7      2.970      8.925
REMARK  Name = 
REMARK  5 active torsions:
REMARK  status: ('A' for Active; 'I' for Inactive)
REMARK    1  A    between atoms: C_1  and  C_2
REMARK    2  A    between atoms: C_6  and  C_7
REMARK    3  A    between atoms: N_9  and  C_10
REMARK    4  A    between atoms: C_14  and  N_15
REMARK    5  A    between atoms: C_16  and  C_18
REMARK                            x       y       z     vdW  Elec       q    Type
REMARK                         _______ _______ _______ _____ _____    ______ ____
ROOT
ATOM      1  C   UNL     1       2.718   5.070  19.754  0.00  0.00    +0.000 A 
ATOM      2  C   UNL     1       2.942   3.992  20.614  0.00  0.00    +0.000 A 
ATOM      3  C   UNL     1       3.613   2.856  20.174  0.00  0.00    +0.000 A 
ATOM      4  C   UNL     1       4.088   2.789  18.869  0.00  0.00    +0.000 A 
ATOM      5  C   UNL     1       3.891   3.850  17.982  0.00  0.00    +0.000 A 
ATOM      6  C   UNL     1       3.151   4.970  18.417  0.00  0.00    +0.000 A 
ENDROOT
BRANCH   1   9
ATOM      7  C   UNL     1       2.133   7.476  19.497  0.00  0.00    +0.000 C 
ATOM      8  O   UNL     1       2.682   7.664  18.414  0.00  0.00    +0.000 OA
ATOM      9  N   UNL     1       2.101   6.273  20.198  0.00  0.00    +0.000 N 
ATOM     10  H   UNL     1       1.442   6.198  20.960  0.00  0.00    +0.000 HD
BRANCH   7  16
ATOM     11  C   UNL     1      -0.390   9.771  23.236  0.00  0.00    +0.000 C 
ATOM     12  C   UNL     1       0.178   9.762  21.847  0.00  0.00    +0.000 A 
ATOM     13  C   UNL     1       0.096  10.910  21.046  0.00  0.00    +0.000 A 
ATOM     14  C   UNL     1       0.645  10.921  19.767  0.00  0.00    +0.000 A 
ATOM     15  C   UNL     1       1.282   9.782  19.280  0.00  0.00    +0.000 A 
ATOM     16  C   UNL     1       1.367   8.619  20.062  0.00  0.00    +0.000 A 
ATOM     17  C   UNL     1       0.817   8.608  21.348  0.00  0.00    +0.000 A 
ENDBRANCH   7  16
ENDBRANCH   1   9
BRANCH   5  18
ATOM     18  N   UNL     1       4.447   3.857  16.673  0.00  0.00    +0.000 N 
ATOM     19  C   UNL     1       5.731   4.291  16.357  0.00  0.00    +0.000 C 
ATOM     20  O   UNL     1       6.566   4.723  17.146  0.00  0.00    +0.000 OA
ATOM     21  H   UNL     1       3.800   3.709  15.911  0.00  0.00    +0.000 HD
BRANCH  19  22
ATOM     22  C   UNL     1       6.110   4.297  14.917  0.00  0.00    +0.000 A 
ATOM     23  C   UNL     1       7.210   5.087  14.535  0.00  0.00    +0.000 A 
ATOM     24  C   UNL     1       7.661   5.092  13.215  0.00  0.00    +0.000 A 
ATOM     25  C   UNL     1       7.020   4.300  12.266  0.00  0.00    +0.000 A 
ATOM     26  C   UNL     1       5.931   3.510  12.646  0.00  0.00    +0.000 A 
ATOM     27 CL   UNL     1       5.162   2.514  11.470  0.00  0.00    +0.000 Cl
ATOM     28  C   UNL     1       5.471   3.502  13.964  0.00  0.00    +0.000 A 
ENDBRANCH  19  22
ENDBRANCH   5  18
TORSDOF 4
ENDMDL
MODEL 3
REMARK VINA RESULT:      -8.6      2.964      8.848
REMARK  Name = 
REMARK  5 active torsions:
REMARK  status: ('A' for Active; 'I' for Inactive)
REMARK    1  A    between atoms: C_1  and  C_2
REMARK    2  A    between atoms: C_6  and  C_7
REMARK    3  A    between atoms: N_9  and  C_10
REMARK    4  A    between atoms: C_14  and  N_15
REMARK    5  A    between atoms: C_16  and  C_18
REMARK                            x       y       z     vdW  Elec       q    Type
REMARK                         _______ _______ _______ _____ _____    ______ ____
ROOT
ATOM      1  C   UNL     1       2.731   4.965  19.789  0.00  0.00    +0.000 A 
ATOM      2  C   UNL     1       2.923   3.857  20.619  0.00  0.00    +0.000 A 
ATOM      3  C   UNL     1       3.557   2.713  20.146  0.00  0.00    +0.000 A 
ATOM      4  C   UNL     1       4.026   2.667  18.838  0.00  0.00    +0.000 A 
ATOM      5  C   UNL     1       3.860   3.757  17.981  0.00  0.00    +0.000 A 
ATOM      6  C   UNL     1       3.157   4.888  18.449  0.00  0.00    +0.000 A 
ENDROOT
BRANCH   1   9
ATOM      7  C   UNL     1       2.165   7.379  19.570  0.00  0.00    +0.000 C 
ATOM      8  O   UNL     1       2.659   7.563  18.461  0.00  0.00    +0.000 OA
ATOM      9  N   UNL     1       2.154   6.174  20.268  0.00  0.00    +0.000 N 
ATOM     10  H   UNL     1       1.534   6.105  21.063  0.00  0.00    +0.000 HD
BRANCH   7  16
ATOM     11  C   UNL     1      -0.289  11.795  19.270  0.00  0.00    +0.000 C 
ATOM     12  C   UNL     1       0.234  10.635  20.064  0.00  0.00    +0.000 A 
ATOM     13  C   UNL     1      -0.042  10.539  21.436  0.00  0.00    +0.000 A 
ATOM     14  C   UNL     1       0.413   9.452  22.175  0.00  0.00    +0.000 A 
ATOM     15  C   UNL     1       1.149   8.450  21.548  0.00  0.00    +0.000 A 
ATOM     16  C   UNL     1       1.444   8.530  20.177  0.00  0.00    +0.000 A 
ATOM     17  C   UNL     1       0.985   9.621  19.433  0.00  0.00    +0.000 A 
ENDBRANCH   7  16
ENDBRANCH   1   9
BRANCH   5  18
ATOM     18  N   UNL     1       4.412   3.783  16.671  0.00  0.00    +0.000 N 
ATOM     19  C   UNL     1       5.678   4.264  16.350  0.00  0.00    +0.000 C 
ATOM     20  O   UNL     1       6.498   4.730  17.136  0.00  0.00    +0.000 OA
ATOM     21  H   UNL     1       3.770   3.608  15.911  0.00  0.00    +0.000 HD
BRANCH  19  22
ATOM     22  C   UNL     1       6.054   4.282  14.909  0.00  0.00    +0.000 A 
ATOM     23  C   UNL     1       7.193   5.021  14.541  0.00  0.00    +0.000 A 
ATOM     24  C   UNL     1       7.640   5.030  13.220  0.00  0.00    +0.000 A 
ATOM     25  C   UNL     1       6.956   4.294  12.256  0.00  0.00    +0.000 A 
ATOM     26  C   UNL     1       5.828   3.554  12.623  0.00  0.00    +0.000 A 
ATOM     27 CL   UNL     1       5.004   2.627  11.429  0.00  0.00    +0.000 Cl
ATOM     28  C   UNL     1       5.371   3.542  13.942  0.00  0.00    +0.000 A 
ENDBRANCH  19  22
ENDBRANCH   5  18
TORSDOF 4
ENDMDL
MODEL 4
REMARK VINA RESULT:      -8.5      1.607      1.922
REMARK  Name = 
REMARK  5 active torsions:
REMARK  status: ('A' for Active; 'I' for Inactive)
REMARK    1  A    between atoms: C_1  and  C_2
REMARK    2  A    between atoms: C_6  and  C_7
REMARK    3  A    between atoms: N_9  and  C_10
REMARK    4  A    between atoms: C_14  and  N_15
REMARK    5  A    between atoms: C_16  and  C_18
REMARK                            x       y       z     vdW  Elec       q    Type
REMARK                         _______ _______ _______ _____ _____    ______ ____
ROOT
ATOM      1  C   UNL     1       4.012   4.883  17.573  0.00  0.00    +0.000 A 
ATOM      2  C   UNL     1       3.939   3.851  18.513  0.00  0.00    +0.000 A 
ATOM      3  C   UNL     1       3.333   4.053  19.748  0.00  0.00    +0.000 A 
ATOM      4  C   UNL     1       2.771   5.287  20.055  0.00  0.00    +0.000 A 
ATOM      5  C   UNL     1       2.816   6.340  19.138  0.00  0.00    +0.000 A 
ATOM      6  C   UNL     1       3.492   6.146  17.915  0.00  0.00    +0.000 A 
ENDROOT
BRANCH   1   9
ATOM      7  C   UNL     1       5.884   4.939  15.935  0.00  0.00    +0.000 C 
ATOM      8  O   UNL     1       6.754   5.360  16.693  0.00  0.00    +0.000 OA
ATOM      9  N   UNL     1       4.559   4.682  16.275  0.00  0.00    +0.000 N 
ATOM     10  H   UNL     1       4.009   4.141  15.623  0.00  0.00    +0.000 HD
BRANCH   7  16
ATOM     11  C   UNL     1       5.295   2.535  11.519  0.00  0.00    +0.000 C 
ATOM     12  C   UNL     1       6.046   3.481  12.410  0.00  0.00    +0.000 A 
ATOM     13  C   UNL     1       7.156   4.182  11.916  0.00  0.00    +0.000 A 
ATOM     14  C   UNL     1       7.841   5.083  12.724  0.00  0.00    +0.000 A 
ATOM     15  C   UNL     1       7.420   5.293  14.035  0.00  0.00    +0.000 A 
ATOM     16  C   UNL     1       6.316   4.596  14.552  0.00  0.00    +0.000 A 
ATOM     17  C   UNL     1       5.626   3.691  13.740  0.00  0.00    +0.000 A 
ENDBRANCH   7  16
ENDBRANCH   1   9
BRANCH   5  18
ATOM     18  N   UNL     1       2.167   7.583  19.378  0.00  0.00    +0.000 N 
ATOM     19  C   UNL     1       1.992   8.585  18.428  0.00  0.00    +0.000 C 
ATOM     20  O   UNL     1       2.363   8.549  17.258  0.00  0.00    +0.000 OA
ATOM     21  H   UNL     1       1.988   7.815  20.345  0.00  0.00    +0.000 HD
BRANCH  19  22
ATOM     22  C   UNL     1       1.356   9.851  18.885  0.00  0.00    +0.000 A 
ATOM     23  C   UNL     1       0.360   9.761  19.875  0.00  0.00    +0.000 A 
ATOM     24  C   UNL     1      -0.234  10.910  20.396  0.00  0.00    +0.000 A 
ATOM     25  C   UNL     1       0.168  12.162  19.937  0.00  0.00    +0.000 A 
ATOM     26  C   UNL     1       1.163  12.252  18.958  0.00  0.00    +0.000 A 
ATOM     27 CL   UNL     1       1.671  13.805  18.414  0.00  0.00    +0.000 Cl
ATOM     28  C   UNL     1       1.760  11.107  18.428  0.00  0.00    +0.000 A 
ENDBRANCH  19  22
ENDBRANCH   5  18
TORSDOF 4
ENDMDL
MODEL 5
REMARK VINA RESULT:      -8.5      2.980      9.004
REMARK  Name = 
REMARK  5 active torsions:
REMARK  status: ('A' for Active; 'I' for Inactive)
REMARK    1  A    between atoms: C_1  and  C_2
REMARK    2  A    between atoms: C_6  and  C_7
REMARK    3  A    between atoms: N_9  and  C_10
REMARK    4  A    between atoms: C_14  and  N_15
REMARK    5  A    between atoms: C_16  and  C_18
REMARK                            x       y       z     vdW  Elec       q    Type
REMARK                         _______ _______ _______ _____ _____    ______ ____
ROOT
ATOM      1  C   UNL     1       2.034   5.302  20.535  0.00  0.00    +0.000 A 
ATOM      2  C   UNL     1       2.078   4.134  21.302  0.00  0.00    +0.000 A 
ATOM      3  C   UNL     1       2.696   2.986  20.818  0.00  0.00    +0.000 A 
ATOM      4  C   UNL     1       3.297   2.995  19.564  0.00  0.00    +0.000 A 
ATOM      5  C   UNL     1       3.281   4.144  18.772  0.00  0.00    +0.000 A 
ATOM      6  C   UNL     1       2.594   5.283  19.244  0.00  0.00    +0.000 A 
ENDROOT
BRANCH   1   9
ATOM      7  C   UNL     1       1.581   7.745  20.401  0.00  0.00    +0.000 C 
ATOM      8  O   UNL     1       2.154   7.960  19.336  0.00  0.00    +0.000 OA
ATOM      9  N   UNL     1       1.475   6.511  21.036  0.00  0.00    +0.000 N 
ATOM     10  H   UNL     1       0.801   6.431  21.785  0.00  0.00    +0.000 HD
BRANCH   7  16
ATOM     11  C   UNL     1      -0.884  12.158  20.129  0.00  0.00    +0.000 C 
ATOM     12  C   UNL     1      -0.347  10.999  20.918  0.00  0.00    +0.000 A 
ATOM     13  C   UNL     1      -0.602  10.907  22.294  0.00  0.00    +0.000 A 
ATOM     14  C   UNL     1      -0.133   9.822  23.028  0.00  0.00    +0.000 A 
ATOM     15  C   UNL     1       0.594   8.819  22.392  0.00  0.00    +0.000 A 
ATOM     16  C   UNL     1       0.867   8.897  21.016  0.00  0.00    +0.000 A 
ATOM     17  C   UNL     1       0.395   9.986  20.277  0.00  0.00    +0.000 A 
ENDBRANCH   7  16
ENDBRANCH   1   9
BRANCH   5  18
ATOM     18  N   UNL     1       3.968   4.220  17.530  0.00  0.00    +0.000 N 
ATOM     19  C   UNL     1       5.352   4.270  17.388  0.00  0.00    +0.000 C 
ATOM     20  O   UNL     1       6.176   4.255  18.298  0.00  0.00    +0.000 OA
ATOM     21  H   UNL     1       3.405   4.432  16.718  0.00  0.00    +0.000 HD
BRANCH  19  22
ATOM     22  C   UNL     1       5.889   4.425  16.007  0.00  0.00    +0.000 A 
ATOM     23  C   UNL     1       7.117   5.094  15.856  0.00  0.00    +0.000 A 
ATOM     24  C   UNL     1       7.710   5.220  14.600  0.00  0.00    +0.000 A 
ATOM     25  C   UNL     1       7.083   4.671  13.484  0.00  0.00    +0.000 A 
ATOM     26  C   UNL     1       5.866   4.000  13.635  0.00  0.00    +0.000 A 
ATOM     27 CL   UNL     1       5.112   3.302  12.254  0.00  0.00    +0.000 Cl
ATOM     28  C   UNL     1       5.263   3.873  14.888  0.00  0.00    +0.000 A 
ENDBRANCH  19  22
ENDBRANCH   5  18
TORSDOF 4
ENDMDL
MODEL 6
REMARK VINA RESULT:      -8.5      3.992      6.743
REMARK  Name = 
REMARK  5 active torsions:
REMARK  status: ('A' for Active; 'I' for Inactive)
REMARK    1  A    between atoms: C_1  and  C_2
REMARK    2  A    between atoms: C_6  and  C_7
REMARK    3  A    between atoms: N_9  and  C_10
REMARK    4  A    between atoms: C_14  and  N_15
REMARK    5  A    between atoms: C_16  and  C_18
REMARK                            x       y       z     vdW  Elec       q    Type
REMARK                         _______ _______ _______ _____ _____    ______ ____
ROOT
ATOM      1  C   UNL     1       1.392   9.829  18.069  0.00  0.00    +0.000 A 
ATOM      2  C   UNL     1       2.225  10.940  18.229  0.00  0.00    +0.000 A 
ATOM      3  C   UNL     1       1.700  12.181  18.576  0.00  0.00    +0.000 A 
ATOM      4  C   UNL     1       0.334  12.325  18.787  0.00  0.00    +0.000 A 
ATOM      5  C   UNL     1      -0.529  11.236  18.645  0.00  0.00    +0.000 A 
ATOM      6  C   UNL     1       0.003   9.998  18.228  0.00  0.00    +0.000 A 
ENDROOT
BRANCH   1   9
ATOM      7  C   UNL     1       2.281   7.610  18.762  0.00  0.00    +0.000 C 
ATOM      8  O   UNL     1       2.210   7.777  19.977  0.00  0.00    +0.000 OA
ATOM      9  N   UNL     1       1.910   8.533  17.789  0.00  0.00    +0.000 N 
ATOM     10  H   UNL     1       1.815   8.196  16.841  0.00  0.00    +0.000 HD
BRANCH   7  16
ATOM     11  C   UNL     1       1.664   2.613  18.246  0.00  0.00    +0.000 C 
ATOM     12  C   UNL     1       2.445   3.872  18.008  0.00  0.00    +0.000 A 
ATOM     13  C   UNL     1       3.607   3.841  17.222  0.00  0.00    +0.000 A 
ATOM     14  C   UNL     1       4.322   5.007  16.970  0.00  0.00    +0.000 A 
ATOM     15  C   UNL     1       3.881   6.216  17.504  0.00  0.00    +0.000 A 
ATOM     16  C   UNL     1       2.726   6.268  18.300  0.00  0.00    +0.000 A 
ATOM     17  C   UNL     1       2.005   5.096  18.551  0.00  0.00    +0.000 A 
ENDBRANCH   7  16
ENDBRANCH   1   9
BRANCH   5  18
ATOM     18  N   UNL     1      -1.916  11.323  18.949  0.00  0.00    +0.000 N 
ATOM     19  C   UNL     1      -2.931  11.446  18.004  0.00  0.00    +0.000 C 
ATOM     20  O   UNL     1      -2.787  11.497  16.786  0.00  0.00    +0.000 OA
ATOM     21  H   UNL     1      -2.153  11.487  19.917  0.00  0.00    +0.000 HD
BRANCH  19  22
ATOM     22  C   UNL     1      -4.321  11.601  18.516  0.00  0.00    +0.000 A 
ATOM     23  C   UNL     1      -5.365  11.061  17.744  0.00  0.00    +0.000 A 
ATOM     24  C   UNL     1      -6.684  11.113  18.192  0.00  0.00    +0.000 A 
ATOM     25  C   UNL     1      -6.971  11.701  19.421  0.00  0.00    +0.000 A 
ATOM     26  C   UNL     1      -5.933  12.232  20.193  0.00  0.00    +0.000 A 
ATOM     27 CL   UNL     1      -6.294  12.933  21.724  0.00  0.00    +0.000 Cl
ATOM     28  C   UNL     1      -4.610  12.187  19.750  0.00  0.00    +0.000 A 
ENDBRANCH  19  22
ENDBRANCH   5  18
TORSDOF 4
ENDMDL
MODEL 7
REMARK VINA RESULT:      -8.5      3.934      6.649
REMARK  Name = 
REMARK  5 active torsions:
REMARK  status: ('A' for Active; 'I' for Inactive)
REMARK    1  A    between atoms: C_1  and  C_2
REMARK    2  A    between atoms: C_6  and  C_7
REMARK    3  A    between atoms: N_9  and  C_10
REMARK    4  A    between atoms: C_14  and  N_15
REMARK    5  A    between atoms: C_16  and  C_18
REMARK                            x       y       z     vdW  Elec       q    Type
REMARK                         _______ _______ _______ _____ _____    ______ ____
ROOT
ATOM      1  C   UNL     1       1.422   9.780  18.012  0.00  0.00    +0.000 A 
ATOM      2  C   UNL     1       2.273  10.865  18.240  0.00  0.00    +0.000 A 
ATOM      3  C   UNL     1       1.767  12.091  18.659  0.00  0.00    +0.000 A 
ATOM      4  C   UNL     1       0.403  12.245  18.875  0.00  0.00    +0.000 A 
ATOM      5  C   UNL     1      -0.477  11.182  18.666  0.00  0.00    +0.000 A 
ATOM      6  C   UNL     1       0.036   9.961  18.177  0.00  0.00    +0.000 A 
ENDROOT
BRANCH   1   9
ATOM      7  C   UNL     1       2.296   7.518  18.574  0.00  0.00    +0.000 C 
ATOM      8  O   UNL     1       2.249   7.623  19.797  0.00  0.00    +0.000 OA
ATOM      9  N   UNL     1       1.919   8.494  17.656  0.00  0.00    +0.000 N 
ATOM     10  H   UNL     1       1.804   8.207  16.694  0.00  0.00    +0.000 HD
BRANCH   7  16
ATOM     11  C   UNL     1       5.703   4.399  16.505  0.00  0.00    +0.000 C 
ATOM     12  C   UNL     1       4.339   4.665  17.071  0.00  0.00    +0.000 A 
ATOM     13  C   UNL     1       3.420   3.615  17.215  0.00  0.00    +0.000 A 
ATOM     14  C   UNL     1       2.164   3.846  17.766  0.00  0.00    +0.000 A 
ATOM     15  C   UNL     1       1.815   5.130  18.178  0.00  0.00    +0.000 A 
ATOM     16  C   UNL     1       2.717   6.197  18.035  0.00  0.00    +0.000 A 
ATOM     17  C   UNL     1       3.981   5.965  17.483  0.00  0.00    +0.000 A 
ENDBRANCH   7  16
ENDBRANCH   1   9
BRANCH   5  18
ATOM     18  N   UNL     1      -1.864  11.273  18.970  0.00  0.00    +0.000 N 
ATOM     19  C   UNL     1      -2.875  11.446  18.030  0.00  0.00    +0.000 C 
ATOM     20  O   UNL     1      -2.728  11.543  16.815  0.00  0.00    +0.000 OA
ATOM     21  H   UNL     1      -2.101  11.402  19.944  0.00  0.00    +0.000 HD
BRANCH  19  22
ATOM     22  C   UNL     1      -4.264  11.598  18.545  0.00  0.00    +0.000 A 
ATOM     23  C   UNL     1      -5.302  10.998  17.810  0.00  0.00    +0.000 A 
ATOM     24  C   UNL     1      -6.619  11.045  18.266  0.00  0.00    +0.000 A 
ATOM     25  C   UNL     1      -6.909  11.688  19.467  0.00  0.00    +0.000 A 
ATOM     26  C   UNL     1      -5.877  12.279  20.202  0.00  0.00    +0.000 A 
ATOM     27 CL   UNL     1      -6.241  13.048  21.698  0.00  0.00    +0.000 Cl
ATOM     28  C   UNL     1      -4.556  12.239  19.750  0.00  0.00    +0.000 A 
ENDBRANCH  19  22
ENDBRANCH   5  18
TORSDOF 4
ENDMDL
MODEL 8
REMARK VINA RESULT:      -8.4      1.162      1.347
REMARK  Name = 
REMARK  5 active torsions:
REMARK  status: ('A' for Active; 'I' for Inactive)
REMARK    1  A    between atoms: C_1  and  C_2
REMARK    2  A    between atoms: C_6  and  C_7
REMARK    3  A    between atoms: N_9  and  C_10
REMARK    4  A    between atoms: C_14  and  N_15
REMARK    5  A    between atoms: C_16  and  C_18
REMARK                            x       y       z     vdW  Elec       q    Type
REMARK                         _______ _______ _______ _____ _____    ______ ____
ROOT
ATOM      1  C   UNL     1       4.014   5.040  17.488  0.00  0.00    +0.000 A 
ATOM      2  C   UNL     1       3.949   4.066  18.488  0.00  0.00    +0.000 A 
ATOM      3  C   UNL     1       3.323   4.331  19.702  0.00  0.00    +0.000 A 
ATOM      4  C   UNL     1       2.735   5.570  19.926  0.00  0.00    +0.000 A 
ATOM      5  C   UNL     1       2.771   6.565  18.948  0.00  0.00    +0.000 A 
ATOM      6  C   UNL     1       3.466   6.311  17.746  0.00  0.00    +0.000 A 
ENDROOT
BRANCH   1   9
ATOM      7  C   UNL     1       5.858   5.168  15.821  0.00  0.00    +0.000 C 
ATOM      8  O   UNL     1       6.662   5.788  16.512  0.00  0.00    +0.000 OA
ATOM      9  N   UNL     1       4.582   4.771  16.211  0.00  0.00    +0.000 N 
ATOM     10  H   UNL     1       4.111   4.089  15.633  0.00  0.00    +0.000 HD
BRANCH   7  16
ATOM     11  C   UNL     1       5.411   2.455  11.571  0.00  0.00    +0.000 C 
ATOM     12  C   UNL     1       6.129   3.470  12.413  0.00  0.00    +0.000 A 
ATOM     13  C   UNL     1       7.246   4.146  11.901  0.00  0.00    +0.000 A 
ATOM     14  C   UNL     1       7.900   5.110  12.662  0.00  0.00    +0.000 A 
ATOM     15  C   UNL     1       7.441   5.405  13.943  0.00  0.00    +0.000 A 
ATOM     16  C   UNL     1       6.330   4.735  14.478  0.00  0.00    +0.000 A 
ATOM     17  C   UNL     1       5.671   3.767  13.713  0.00  0.00    +0.000 A 
ENDBRANCH   7  16
ENDBRANCH   1   9
BRANCH   5  18
ATOM     18  N   UNL     1       2.097   7.808  19.104  0.00  0.00    +0.000 N 
ATOM     19  C   UNL     1       1.515   8.254  20.286  0.00  0.00    +0.000 C 
ATOM     20  O   UNL     1       1.497   7.655  21.358  0.00  0.00    +0.000 OA
ATOM     21  H   UNL     1       1.874   8.306  18.253  0.00  0.00    +0.000 HD
BRANCH  19  22
ATOM     22  C   UNL     1       0.783   9.550  20.237  0.00  0.00    +0.000 A 
ATOM     23  C   UNL     1       0.532  10.110  18.971  0.00  0.00    +0.000 A 
ATOM     24  C   UNL     1      -0.202  11.289  18.846  0.00  0.00    +0.000 A 
ATOM     25  C   UNL     1      -0.699  11.916  19.987  0.00  0.00    +0.000 A 
ATOM     26  C   UNL     1      -0.455  11.356  21.244  0.00  0.00    +0.000 A 
ATOM     27 CL   UNL     1      -1.095  12.123  22.647  0.00  0.00    +0.000 Cl
ATOM     28  C   UNL     1       0.282  10.178  21.379  0.00  0.00    +0.000 A 
ENDBRANCH  19  22
ENDBRANCH   5  18
TORSDOF 4
ENDMDL
MODEL 9
REMARK VINA RESULT:      -8.4      1.387      1.679
REMARK  Name = 
REMARK  5 active torsions:
REMARK  status: ('A' for Active; 'I' for Inactive)
REMARK    1  A    between atoms: C_1  and  C_2
REMARK    2  A    between atoms: C_6  and  C_7
REMARK    3  A    between atoms: N_9  and  C_10
REMARK    4  A    between atoms: C_14  and  N_15
REMARK    5  A    between atoms: C_16  and  C_18
REMARK                            x       y       z     vdW  Elec       q    Type
REMARK                         _______ _______ _______ _____ _____    ______ ____
ROOT
ATOM      1  C   UNL     1       4.280   4.544  17.657  0.00  0.00    +0.000 A 
ATOM      2  C   UNL     1       4.213   3.440  18.512  0.00  0.00    +0.000 A 
ATOM      3  C   UNL     1       3.668   3.557  19.786  0.00  0.00    +0.000 A 
ATOM      4  C   UNL     1       3.162   4.777  20.218  0.00  0.00    +0.000 A 
ATOM      5  C   UNL     1       3.203   5.900  19.389  0.00  0.00    +0.000 A 
ATOM      6  C   UNL     1       3.818   5.789  18.124  0.00  0.00    +0.000 A 
ENDROOT
BRANCH   1   9
ATOM      7  C   UNL     1       6.088   4.647  15.949  0.00  0.00    +0.000 C 
ATOM      8  O   UNL     1       7.010   4.944  16.704  0.00  0.00    +0.000 OA
ATOM      9  N   UNL     1       4.764   4.436  16.323  0.00  0.00    +0.000 N 
ATOM     10  H   UNL     1       4.157   3.990  15.649  0.00  0.00    +0.000 HD
BRANCH   7  16
ATOM     11  C   UNL     1       5.356   2.452  11.448  0.00  0.00    +0.000 C 
ATOM     12  C   UNL     1       6.101   3.399  12.341  0.00  0.00    +0.000 A 
ATOM     13  C   UNL     1       7.124   4.203  11.818  0.00  0.00    +0.000 A 
ATOM     14  C   UNL     1       7.801   5.106  12.632  0.00  0.00    +0.000 A 
ATOM     15  C   UNL     1       7.459   5.213  13.978  0.00  0.00    +0.000 A 
ATOM     16  C   UNL     1       6.444   4.412  14.524  0.00  0.00    +0.000 A 
ATOM     17  C   UNL     1       5.762   3.505  13.706  0.00  0.00    +0.000 A 
ENDBRANCH   7  16
ENDBRANCH   1   9
BRANCH   5  18
ATOM     18  N   UNL     1       2.607   7.138  19.759  0.00  0.00    +0.000 N 
ATOM     19  C   UNL     1       1.505   7.271  20.598  0.00  0.00    +0.000 C 
ATOM     20  O   UNL     1       0.890   6.357  21.139  0.00  0.00    +0.000 OA
ATOM     21  H   UNL     1       2.896   7.949  19.231  0.00  0.00    +0.000 HD
BRANCH  19  22
ATOM     22  C   UNL     1       0.973   8.646  20.810  0.00  0.00    +0.000 A 
ATOM     23  C   UNL     1       0.482   8.966  22.089  0.00  0.00    +0.000 A 
ATOM     24  C   UNL     1       0.028  10.253  22.376  0.00  0.00    +0.000 A 
ATOM     25  C   UNL     1       0.068  11.234  21.389  0.00  0.00    +0.000 A 
ATOM     26  C   UNL     1       0.562  10.918  20.120  0.00  0.00    +0.000 A 
ATOM     27 CL   UNL     1       0.632  12.145  18.913  0.00  0.00    +0.000 Cl
ATOM     28  C   UNL     1       1.015   9.632  19.822  0.00  0.00    +0.000 A 
ENDBRANCH  19  22
ENDBRANCH   5  18
TORSDOF 4
ENDMDL
