MODEL 1
REMARK VINA RESULT:      -7.8      0.000      0.000
REMARK  Name = 
REMARK  5 active torsions:
REMARK  status: ('A' for Active; 'I' for Inactive)
REMARK    1  A    between atoms: C_1  and  C_2
REMARK    2  A    between atoms: C_2  and  N_3
REMARK    3  A    between atoms: C_5  and  C_6
REMARK    4  A    between atoms: C_6  and  O_8
REMARK    5  A    between atoms: C_13  and  N_14
REMARK                            x       y       z     vdW  Elec       q    Type
REMARK                         _______ _______ _______ _____ _____    ______ ____
ROOT
ATOM      1  N   UNL     1       2.620   6.415  19.204  0.00  0.00    +0.000 N 
ATOM      2  C   UNL     1       2.103   5.481  20.098  0.00  0.00    +0.000 A 
ATOM      3  C   UNL     1       2.525   4.220  20.272  0.00  0.00    +0.000 A 
ATOM      4  C   UNL     1       3.653   3.778  19.430  0.00  0.00    +0.000 A 
ATOM      5  O   UNL     1       4.071   2.626  19.518  0.00  0.00    +0.000 OA
ATOM      6  C   UNL     1       4.273   4.756  18.507  0.00  0.00    +0.000 A 
ATOM      7  C   UNL     1       5.400   4.355  17.775  0.00  0.00    +0.000 A 
ATOM      8  C   UNL     1       6.024   5.273  16.932  0.00  0.00    +0.000 A 
ATOM      9  C   UNL     1       5.512   6.566  16.798  0.00  0.00    +0.000 A 
ATOM     10  C   UNL     1       4.373   6.943  17.523  0.00  0.00    +0.000 A 
ATOM     11  C   UNL     1       3.737   6.061  18.412  0.00  0.00    +0.000 A 
ENDROOT
BRANCH   8  12
ATOM     12  N   UNL     1       7.235   4.889  16.198  0.00  0.00    +0.000 N 
ATOM     13  O   UNL     1       7.336   5.259  15.020  0.00  0.00    +0.000 OA
ATOM     14  O   UNL     1       8.082   4.211  16.799  0.00  0.00    +0.000 OA
ENDBRANCH   8  12
BRANCH   1  16
ATOM     15  C   UNL     1       1.507   8.173  20.541  0.00  0.00    +0.000 C 
ATOM     16  C   UNL     1       2.130   7.808  19.199  0.00  0.00    +0.000 C 
ENDBRANCH   1  16
BRANCH   3  17
ATOM     17  C   UNL     1       1.879   3.356  21.282  0.00  0.00    +0.000 C 
ATOM     18  O   UNL     1       2.396   3.077  22.356  0.00  0.00    +0.000 OA
BRANCH  17  19
ATOM     19  O   UNL     1       0.664   2.885  20.927  0.00  0.00    +0.000 OA
ATOM     20  H   UNL     1       0.593   2.621  19.976  0.00  0.00    +0.000 HD
ENDBRANCH  17  19
ENDBRANCH   3  17
TORSDOF 4
ENDMDL
MODEL 2
REMARK VINA RESULT:      -7.6      1.370      1.557
REMARK  Name = 
REMARK  5 active torsions:
REMARK  status: ('A' for Active; 'I' for Inactive)
REMARK    1  A    between atoms: C_1  and  C_2
REMARK    2  A    between atoms: C_2  and  N_3
REMARK    3  A    between atoms: C_5  and  C_6
REMARK    4  A    between atoms: C_6  and  O_8
REMARK    5  A    between atoms: C_13  and  N_14
REMARK                            x       y       z     vdW  Elec       q    Type
REMARK                         _______ _______ _______ _____ _____    ______ ____
ROOT
ATOM      1  N   UNL     1       2.618   6.019  18.645  0.00  0.00    +0.000 N 
ATOM      2  C   UNL     1       1.947   4.944  19.222  0.00  0.00    +0.000 A 
ATOM      3  C   UNL     1       2.100   3.647  18.915  0.00  0.00    +0.000 A 
ATOM      4  C   UNL     1       3.079   3.328  17.859  0.00  0.00    +0.000 A 
ATOM      5  O   UNL     1       3.248   2.162  17.509  0.00  0.00    +0.000 OA
ATOM      6  C   UNL     1       3.857   4.435  17.258  0.00  0.00    +0.000 A 
ATOM      7  C   UNL     1       4.848   4.115  16.318  0.00  0.00    +0.000 A 
ATOM      8  C   UNL     1       5.621   5.138  15.772  0.00  0.00    +0.000 A 
ATOM      9  C   UNL     1       5.388   6.467  16.136  0.00  0.00    +0.000 A 
ATOM     10  C   UNL     1       4.381   6.770  17.062  0.00  0.00    +0.000 A 
ATOM     11  C   UNL     1       3.606   5.765  17.665  0.00  0.00    +0.000 A 
ENDROOT
BRANCH   8  12
ATOM     12  N   UNL     1       6.697   4.819  14.826  0.00  0.00    +0.000 N 
ATOM     13  O   UNL     1       7.743   5.478  14.900  0.00  0.00    +0.000 OA
ATOM     14  O   UNL     1       6.491   3.913  14.005  0.00  0.00    +0.000 OA
ENDBRANCH   8  12
BRANCH   1  16
ATOM     15  C   UNL     1       1.754   7.373  20.526  0.00  0.00    +0.000 C 
ATOM     16  C   UNL     1       2.431   7.390  19.160  0.00  0.00    +0.000 C 
ENDBRANCH   1  16
BRANCH   3  17
ATOM     17  C   UNL     1       1.323   2.619  19.639  0.00  0.00    +0.000 C 
ATOM     18  O   UNL     1       1.198   2.605  20.856  0.00  0.00    +0.000 OA
BRANCH  17  19
ATOM     19  O   UNL     1       0.760   1.679  18.850  0.00  0.00    +0.000 OA
ATOM     20  H   UNL     1      -0.018   1.221  19.255  0.00  0.00    +0.000 HD
ENDBRANCH  17  19
ENDBRANCH   3  17
TORSDOF 4
ENDMDL
MODEL 3
REMARK VINA RESULT:      -7.4      1.434      1.756
REMARK  Name = 
REMARK  5 active torsions:
REMARK  status: ('A' for Active; 'I' for Inactive)
REMARK    1  A    between atoms: C_1  and  C_2
REMARK    2  A    between atoms: C_2  and  N_3
REMARK    3  A    between atoms: C_5  and  C_6
REMARK    4  A    between atoms: C_6  and  O_8
REMARK    5  A    between atoms: C_13  and  N_14
REMARK                            x       y       z     vdW  Elec       q    Type
REMARK                         _______ _______ _______ _____ _____    ______ ____
ROOT
ATOM      1  N   UNL     1       2.517   6.194  18.618  0.00  0.00    +0.000 N 
ATOM      2  C   UNL     1       1.731   5.170  19.137  0.00  0.00    +0.000 A 
ATOM      3  C   UNL     1       1.795   3.869  18.814  0.00  0.00    +0.000 A 
ATOM      4  C   UNL     1       2.801   3.487  17.805  0.00  0.00    +0.000 A 
ATOM      5  O   UNL     1       2.894   2.317  17.441  0.00  0.00    +0.000 OA
ATOM      6  C   UNL     1       3.698   4.536  17.268  0.00  0.00    +0.000 A 
ATOM      7  C   UNL     1       4.710   4.150  16.376  0.00  0.00    +0.000 A 
ATOM      8  C   UNL     1       5.592   5.115  15.892  0.00  0.00    +0.000 A 
ATOM      9  C   UNL     1       5.448   6.453  16.269  0.00  0.00    +0.000 A 
ATOM     10  C   UNL     1       4.419   6.822  17.146  0.00  0.00    +0.000 A 
ATOM     11  C   UNL     1       3.533   5.876  17.687  0.00  0.00    +0.000 A 
ENDROOT
BRANCH   8  12
ATOM     12  N   UNL     1       6.688   4.723  14.999  0.00  0.00    +0.000 N 
ATOM     13  O   UNL     1       6.495   3.768  14.235  0.00  0.00    +0.000 OA
ATOM     14  O   UNL     1       7.745   5.369  15.067  0.00  0.00    +0.000 OA
ENDBRANCH   8  12
BRANCH   1  16
ATOM     15  C   UNL     1       1.728   8.491  18.150  0.00  0.00    +0.000 C 
ATOM     16  C   UNL     1       2.415   7.568  19.150  0.00  0.00    +0.000 C 
ENDBRANCH   1  16
BRANCH   3  17
ATOM     17  C   UNL     1       0.899   2.897  19.475  0.00  0.00    +0.000 C 
ATOM     18  O   UNL     1       0.200   2.103  18.861  0.00  0.00    +0.000 OA
BRANCH  17  19
ATOM     19  O   UNL     1       0.903   2.956  20.825  0.00  0.00    +0.000 OA
ATOM     20  H   UNL     1       0.869   3.874  21.192  0.00  0.00    +0.000 HD
ENDBRANCH  17  19
ENDBRANCH   3  17
TORSDOF 4
ENDMDL
MODEL 4
REMARK VINA RESULT:      -7.2      3.033      5.957
REMARK  Name = 
REMARK  5 active torsions:
REMARK  status: ('A' for Active; 'I' for Inactive)
REMARK    1  A    between atoms: C_1  and  C_2
REMARK    2  A    between atoms: C_2  and  N_3
REMARK    3  A    between atoms: C_5  and  C_6
REMARK    4  A    between atoms: C_6  and  O_8
REMARK    5  A    between atoms: C_13  and  N_14
REMARK                            x       y       z     vdW  Elec       q    Type
REMARK                         _______ _______ _______ _____ _____    ______ ____
ROOT
ATOM      1  N   UNL     1       4.610   4.180  18.219  0.00  0.00    +0.000 N 
ATOM      2  C   UNL     1       5.504   4.020  17.164  0.00  0.00    +0.000 A 
ATOM      3  C   UNL     1       5.728   4.888  16.165  0.00  0.00    +0.000 A 
ATOM      4  C   UNL     1       4.946   6.138  16.188  0.00  0.00    +0.000 A 
ATOM      5  O   UNL     1       5.081   6.964  15.288  0.00  0.00    +0.000 OA
ATOM      6  C   UNL     1       4.025   6.377  17.323  0.00  0.00    +0.000 A 
ATOM      7  C   UNL     1       3.352   7.606  17.383  0.00  0.00    +0.000 A 
ATOM      8  C   UNL     1       2.513   7.868  18.465  0.00  0.00    +0.000 A 
ATOM      9  C   UNL     1       2.324   6.903  19.459  0.00  0.00    +0.000 A 
ATOM     10  C   UNL     1       2.990   5.673  19.372  0.00  0.00    +0.000 A 
ATOM     11  C   UNL     1       3.874   5.384  18.318  0.00  0.00    +0.000 A 
ENDROOT
BRANCH   8  12
ATOM     12  N   UNL     1       1.840   9.167  18.574  0.00  0.00    +0.000 N 
ATOM     13  O   UNL     1       1.981   9.968  17.639  0.00  0.00    +0.000 OA
ATOM     14  O   UNL     1       1.177   9.387  19.598  0.00  0.00    +0.000 OA
ENDBRANCH   8  12
BRANCH   1  16
ATOM     15  C   UNL     1       3.713   1.982  18.910  0.00  0.00    +0.000 C 
ATOM     16  C   UNL     1       4.548   3.191  19.313  0.00  0.00    +0.000 C 
ENDBRANCH   1  16
BRANCH   3  17
ATOM     17  C   UNL     1       6.732   4.577  15.127  0.00  0.00    +0.000 C 
ATOM     18  O   UNL     1       7.757   5.225  14.968  0.00  0.00    +0.000 OA
BRANCH  17  19
ATOM     19  O   UNL     1       6.429   3.514  14.350  0.00  0.00    +0.000 OA
ATOM     20  H   UNL     1       6.558   3.668  13.382  0.00  0.00    +0.000 HD
ENDBRANCH  17  19
ENDBRANCH   3  17
TORSDOF 4
ENDMDL
MODEL 5
REMARK VINA RESULT:      -7.1      2.961      6.040
REMARK  Name = 
REMARK  5 active torsions:
REMARK  status: ('A' for Active; 'I' for Inactive)
REMARK    1  A    between atoms: C_1  and  C_2
REMARK    2  A    between atoms: C_2  and  N_3
REMARK    3  A    between atoms: C_5  and  C_6
REMARK    4  A    between atoms: C_6  and  O_8
REMARK    5  A    between atoms: C_13  and  N_14
REMARK                            x       y       z     vdW  Elec       q    Type
REMARK                         _______ _______ _______ _____ _____    ______ ____
ROOT
ATOM      1  N   UNL     1       4.365   3.939  18.065  0.00  0.00    +0.000 N 
ATOM      2  C   UNL     1       5.280   3.845  17.020  0.00  0.00    +0.000 A 
ATOM      3  C   UNL     1       5.579   4.803  16.130  0.00  0.00    +0.000 A 
ATOM      4  C   UNL     1       4.864   6.086  16.273  0.00  0.00    +0.000 A 
ATOM      5  O   UNL     1       5.069   6.996  15.474  0.00  0.00    +0.000 OA
ATOM      6  C   UNL     1       3.925   6.250  17.406  0.00  0.00    +0.000 A 
ATOM      7  C   UNL     1       3.316   7.500  17.588  0.00  0.00    +0.000 A 
ATOM      8  C   UNL     1       2.462   7.688  18.673  0.00  0.00    +0.000 A 
ATOM      9  C   UNL     1       2.193   6.632  19.548  0.00  0.00    +0.000 A 
ATOM     10  C   UNL     1       2.795   5.384  19.340  0.00  0.00    +0.000 A 
ATOM     11  C   UNL     1       3.692   5.164  18.281  0.00  0.00    +0.000 A 
ENDROOT
BRANCH   8  12
ATOM     12  N   UNL     1       1.856   9.003  18.910  0.00  0.00    +0.000 N 
ATOM     13  O   UNL     1       1.195   9.155  19.946  0.00  0.00    +0.000 OA
ATOM     14  O   UNL     1       2.038   9.883  18.054  0.00  0.00    +0.000 OA
ENDBRANCH   8  12
BRANCH   1  16
ATOM     15  C   UNL     1       3.393   1.699  18.459  0.00  0.00    +0.000 C 
ATOM     16  C   UNL     1       4.219   2.840  19.041  0.00  0.00    +0.000 C 
ENDBRANCH   1  16
BRANCH   3  17
ATOM     17  C   UNL     1       6.595   4.553  15.086  0.00  0.00    +0.000 C 
ATOM     18  O   UNL     1       6.465   3.706  14.212  0.00  0.00    +0.000 OA
BRANCH  17  19
ATOM     19  O   UNL     1       7.695   5.331  15.173  0.00  0.00    +0.000 OA
ATOM     20  H   UNL     1       7.504   6.301  15.211  0.00  0.00    +0.000 HD
ENDBRANCH  17  19
ENDBRANCH   3  17
TORSDOF 4
ENDMDL
MODEL 6
REMARK VINA RESULT:      -7.1      0.966      1.353
REMARK  Name = 
REMARK  5 active torsions:
REMARK  status: ('A' for Active; 'I' for Inactive)
REMARK    1  A    between atoms: C_1  and  C_2
REMARK    2  A    between atoms: C_2  and  N_3
REMARK    3  A    between atoms: C_5  and  C_6
REMARK    4  A    between atoms: C_6  and  O_8
REMARK    5  A    between atoms: C_13  and  N_14
REMARK                            x       y       z     vdW  Elec       q    Type
REMARK                         _______ _______ _______ _____ _____    ______ ____
ROOT
ATOM      1  N   UNL     1       2.813   6.275  18.946  0.00  0.00    +0.000 N 
ATOM      2  C   UNL     1       2.378   5.304  19.843  0.00  0.00    +0.000 A 
ATOM      3  C   UNL     1       2.696   4.001  19.829  0.00  0.00    +0.000 A 
ATOM      4  C   UNL     1       3.601   3.553  18.754  0.00  0.00    +0.000 A 
ATOM      5  O   UNL     1       3.910   2.367  18.665  0.00  0.00    +0.000 OA
ATOM      6  C   UNL     1       4.135   4.562  17.812  0.00  0.00    +0.000 A 
ATOM      7  C   UNL     1       5.063   4.144  16.846  0.00  0.00    +0.000 A 
ATOM      8  C   UNL     1       5.610   5.086  15.977  0.00  0.00    +0.000 A 
ATOM      9  C   UNL     1       5.214   6.424  16.050  0.00  0.00    +0.000 A 
ATOM     10  C   UNL     1       4.271   6.821  17.008  0.00  0.00    +0.000 A 
ATOM     11  C   UNL     1       3.724   5.910  17.927  0.00  0.00    +0.000 A 
ENDROOT
BRANCH   8  12
ATOM     12  N   UNL     1       6.621   4.677  14.995  0.00  0.00    +0.000 N 
ATOM     13  O   UNL     1       7.663   5.343  14.930  0.00  0.00    +0.000 OA
ATOM     14  O   UNL     1       6.367   3.693  14.284  0.00  0.00    +0.000 OA
ENDBRANCH   8  12
BRANCH   1  16
ATOM     15  C   UNL     1       1.653   8.235  17.980  0.00  0.00    +0.000 C 
ATOM     16  C   UNL     1       2.472   7.698  19.148  0.00  0.00    +0.000 C 
ENDBRANCH   1  16
BRANCH   3  17
ATOM     17  C   UNL     1       2.164   3.098  20.871  0.00  0.00    +0.000 C 
ATOM     18  O   UNL     1       0.969   2.895  21.037  0.00  0.00    +0.000 OA
BRANCH  17  19
ATOM     19  O   UNL     1       3.105   2.511  21.642  0.00  0.00    +0.000 OA
ATOM     20  H   UNL     1       2.840   1.631  22.007  0.00  0.00    +0.000 HD
ENDBRANCH  17  19
ENDBRANCH   3  17
TORSDOF 4
ENDMDL
MODEL 7
REMARK VINA RESULT:      -6.9      1.735      5.406
REMARK  Name = 
REMARK  5 active torsions:
REMARK  status: ('A' for Active; 'I' for Inactive)
REMARK    1  A    between atoms: C_1  and  C_2
REMARK    2  A    between atoms: C_2  and  N_3
REMARK    3  A    between atoms: C_5  and  C_6
REMARK    4  A    between atoms: C_6  and  O_8
REMARK    5  A    between atoms: C_13  and  N_14
REMARK                            x       y       z     vdW  Elec       q    Type
REMARK                         _______ _______ _______ _____ _____    ______ ____
ROOT
ATOM      1  N   UNL     1       3.395   6.940  17.967  0.00  0.00    +0.000 N 
ATOM      2  C   UNL     1       4.658   6.969  17.382  0.00  0.00    +0.000 A 
ATOM      3  C   UNL     1       5.688   6.155  17.660  0.00  0.00    +0.000 A 
ATOM      4  C   UNL     1       5.458   5.125  18.691  0.00  0.00    +0.000 A 
ATOM      5  O   UNL     1       6.368   4.365  19.015  0.00  0.00    +0.000 OA
ATOM      6  C   UNL     1       4.112   5.020  19.298  0.00  0.00    +0.000 A 
ATOM      7  C   UNL     1       3.875   3.983  20.213  0.00  0.00    +0.000 A 
ATOM      8  C   UNL     1       2.603   3.841  20.763  0.00  0.00    +0.000 A 
ATOM      9  C   UNL     1       1.587   4.740  20.430  0.00  0.00    +0.000 A 
ATOM     10  C   UNL     1       1.847   5.782  19.529  0.00  0.00    +0.000 A 
ATOM     11  C   UNL     1       3.104   5.938  18.922  0.00  0.00    +0.000 A 
ENDROOT
BRANCH   8  12
ATOM     12  N   UNL     1       2.322   2.731  21.681  0.00  0.00    +0.000 N 
ATOM     13  O   UNL     1       1.157   2.593  22.078  0.00  0.00    +0.000 OA
ATOM     14  O   UNL     1       3.270   2.002  22.010  0.00  0.00    +0.000 OA
ENDBRANCH   8  12
BRANCH   1  16
ATOM     15  C   UNL     1       2.349   9.169  18.202  0.00  0.00    +0.000 C 
ATOM     16  C   UNL     1       2.318   7.825  17.482  0.00  0.00    +0.000 C 
ENDBRANCH   1  16
BRANCH   3  17
ATOM     17  C   UNL     1       6.965   6.303  16.931  0.00  0.00    +0.000 C 
ATOM     18  O   UNL     1       7.558   7.368  16.825  0.00  0.00    +0.000 OA
BRANCH  17  19
ATOM     19  O   UNL     1       7.433   5.163  16.377  0.00  0.00    +0.000 OA
ATOM     20  H   UNL     1       7.994   5.302  15.574  0.00  0.00    +0.000 HD
ENDBRANCH  17  19
ENDBRANCH   3  17
TORSDOF 4
ENDMDL
MODEL 8
REMARK VINA RESULT:      -6.8      2.593      5.066
REMARK  Name = 
REMARK  5 active torsions:
REMARK  status: ('A' for Active; 'I' for Inactive)
REMARK    1  A    between atoms: C_1  and  C_2
REMARK    2  A    between atoms: C_2  and  N_3
REMARK    3  A    between atoms: C_5  and  C_6
REMARK    4  A    between atoms: C_6  and  O_8
REMARK    5  A    between atoms: C_13  and  N_14
REMARK                            x       y       z     vdW  Elec       q    Type
REMARK                         _______ _______ _______ _____ _____    ______ ____
ROOT
ATOM      1  N   UNL     1       4.560   5.220  17.157  0.00  0.00    +0.000 N 
ATOM      2  C   UNL     1       4.646   3.919  17.645  0.00  0.00    +0.000 A 
ATOM      3  C   UNL     1       4.077   3.444  18.763  0.00  0.00    +0.000 A 
ATOM      4  C   UNL     1       3.279   4.398  19.556  0.00  0.00    +0.000 A 
ATOM      5  O   UNL     1       2.753   4.037  20.606  0.00  0.00    +0.000 OA
ATOM      6  C   UNL     1       3.112   5.778  19.044  0.00  0.00    +0.000 A 
ATOM      7  C   UNL     1       2.280   6.654  19.757  0.00  0.00    +0.000 A 
ATOM      8  C   UNL     1       2.076   7.943  19.269  0.00  0.00    +0.000 A 
ATOM      9  C   UNL     1       2.718   8.364  18.102  0.00  0.00    +0.000 A 
ATOM     10  C   UNL     1       3.561   7.482  17.413  0.00  0.00    +0.000 A 
ATOM     11  C   UNL     1       3.764   6.162  17.849  0.00  0.00    +0.000 A 
ENDROOT
BRANCH   8  12
ATOM     12  N   UNL     1       1.168   8.858  19.972  0.00  0.00    +0.000 N 
ATOM     13  O   UNL     1       0.976   8.663  21.179  0.00  0.00    +0.000 OA
ATOM     14  O   UNL     1       0.643   9.767  19.312  0.00  0.00    +0.000 OA
ENDBRANCH   8  12
BRANCH   1  16
ATOM     15  C   UNL     1       5.545   4.328  15.071  0.00  0.00    +0.000 C 
ATOM     16  C   UNL     1       5.147   5.576  15.850  0.00  0.00    +0.000 C 
ENDBRANCH   1  16
BRANCH   3  17
ATOM     17  C   UNL     1       4.247   2.024  19.135  0.00  0.00    +0.000 C 
ATOM     18  O   UNL     1       3.704   1.104  18.539  0.00  0.00    +0.000 OA
BRANCH  17  19
ATOM     19  O   UNL     1       5.052   1.813  20.199  0.00  0.00    +0.000 OA
ATOM     20  H   UNL     1       4.725   1.120  20.825  0.00  0.00    +0.000 HD
ENDBRANCH  17  19
ENDBRANCH   3  17
TORSDOF 4
ENDMDL
MODEL 9
REMARK VINA RESULT:      -6.8      2.662      3.760
REMARK  Name = 
REMARK  5 active torsions:
REMARK  status: ('A' for Active; 'I' for Inactive)
REMARK    1  A    between atoms: C_1  and  C_2
REMARK    2  A    between atoms: C_2  and  N_3
REMARK    3  A    between atoms: C_5  and  C_6
REMARK    4  A    between atoms: C_6  and  O_8
REMARK    5  A    between atoms: C_13  and  N_14
REMARK                            x       y       z     vdW  Elec       q    Type
REMARK                         _______ _______ _______ _____ _____    ______ ____
ROOT
ATOM      1  N   UNL     1       6.447   5.260  18.154  0.00  0.00    +0.000 N 
ATOM      2  C   UNL     1       5.420   4.939  19.036  0.00  0.00    +0.000 A 
ATOM      3  C   UNL     1       4.251   4.356  18.727  0.00  0.00    +0.000 A 
ATOM      4  C   UNL     1       4.035   4.023  17.306  0.00  0.00    +0.000 A 
ATOM      5  O   UNL     1       2.975   3.514  16.949  0.00  0.00    +0.000 OA
ATOM      6  C   UNL     1       5.125   4.293  16.342  0.00  0.00    +0.000 A 
ATOM      7  C   UNL     1       4.946   3.893  15.009  0.00  0.00    +0.000 A 
ATOM      8  C   UNL     1       5.977   4.100  14.094  0.00  0.00    +0.000 A 
ATOM      9  C   UNL     1       7.160   4.727  14.496  0.00  0.00    +0.000 A 
ATOM     10  C   UNL     1       7.313   5.137  15.827  0.00  0.00    +0.000 A 
ATOM     11  C   UNL     1       6.314   4.913  16.789  0.00  0.00    +0.000 A 
ENDROOT
BRANCH   8  12
ATOM     12  N   UNL     1       5.830   3.642  12.708  0.00  0.00    +0.000 N 
ATOM     13  O   UNL     1       6.860   3.497  12.036  0.00  0.00    +0.000 OA
ATOM     14  O   UNL     1       4.681   3.432  12.290  0.00  0.00    +0.000 OA
ENDBRANCH   8  12
BRANCH   1  16
ATOM     15  C   UNL     1       7.887   7.268  18.280  0.00  0.00    +0.000 C 
ATOM     16  C   UNL     1       7.729   5.798  18.652  0.00  0.00    +0.000 C 
ENDBRANCH   1  16
BRANCH   3  17
ATOM     17  C   UNL     1       3.267   4.061  19.789  0.00  0.00    +0.000 C 
ATOM     18  O   UNL     1       2.802   4.917  20.530  0.00  0.00    +0.000 OA
BRANCH  17  19
ATOM     19  O   UNL     1       2.920   2.760  19.889  0.00  0.00    +0.000 OA
ATOM     20  H   UNL     1       2.690   2.333  19.026  0.00  0.00    +0.000 HD
ENDBRANCH  17  19
ENDBRANCH   3  17
TORSDOF 4
ENDMDL
