MODEL 1
REMARK VINA RESULT:      -7.6      0.000      0.000
REMARK  Name = 
REMARK  15 active torsions:
REMARK  status: ('A' for Active; 'I' for Inactive)
REMARK    1  A    between atoms: C_1  and  C_2
REMARK    2  A    between atoms: C_2  and  C_3
REMARK    3  A    between atoms: C_3  and  N_4
REMARK    4  A    between atoms: C_5  and  C_7
REMARK    5  A    between atoms: C_7  and  C_8
REMARK    6  A    between atoms: C_7  and  N_12
REMARK    7  A    between atoms: C_8  and  C_9
REMARK    8  A    between atoms: C_9  and  C_10
REMARK    9  A    between atoms: C_9  and  C_11
REMARK   10  A    between atoms: N_12  and  P_13
REMARK   11  A    between atoms: P_13  and  C_16
REMARK   12  A    between atoms: C_16  and  N_17
REMARK   13  A    between atoms: C_18  and  O_20
REMARK   14  A    between atoms: O_20  and  C_21
REMARK   15  A    between atoms: C_21  and  C_22
REMARK                            x       y       z     vdW  Elec       q    Type
REMARK                         _______ _______ _______ _____ _____    ______ ____
ROOT
ATOM      1  P   UNL     1       3.574   3.508  17.485  0.00  0.00    +0.000 P 
ATOM      2  O   UNL     1       3.999   2.776  18.753  0.00  0.00    +0.000 OA
ATOM      3  O   UNL     1       3.927   4.986  17.265  0.00  0.00    +0.000 OA
ENDROOT
BRANCH   1   4
ATOM      4  N   UNL     1       5.205   3.170  16.856  0.00  0.00    +0.000 NA
ATOM      5  H   UNL     1       5.589   2.715  17.691  0.00  0.00    +0.000 HD
BRANCH   4   6
ATOM      6  C   UNL     1       5.837   4.463  16.443  0.00  0.00    +0.000 C 
BRANCH   6   8
ATOM      7  N   UNL     1       6.116   3.616  14.156  0.00  0.00    +0.000 N 
ATOM      8  C   UNL     1       6.079   4.726  14.957  0.00  0.00    +0.000 C 
ATOM      9  O   UNL     1       6.261   5.871  14.528  0.00  0.00    +0.000 OA
ATOM     10  H   UNL     1       5.766   2.756  14.587  0.00  0.00    +0.000 HD
BRANCH   7  11
ATOM     11  C   UNL     1       6.448   3.700  12.749  0.00  0.00    +0.000 C 
BRANCH  11  13
ATOM     12  C   UNL     1       4.335   3.261  11.407  0.00  0.00    +0.000 C 
ATOM     13  C   UNL     1       5.671   2.710  11.888  0.00  0.00    +0.000 C 
ENDBRANCH  11  13
ENDBRANCH   7  11
ENDBRANCH   6   8
BRANCH   6  14
ATOM     14  C   UNL     1       7.145   4.759  17.220  0.00  0.00    +0.000 C 
BRANCH  14  15
ATOM     15  C   UNL     1       7.118   5.940  18.219  0.00  0.00    +0.000 C 
ATOM     16  C   UNL     1       7.960   5.738  19.477  0.00  0.00    +0.000 C 
ATOM     17  C   UNL     1       7.589   7.218  17.517  0.00  0.00    +0.000 C 
ENDBRANCH  14  15
ENDBRANCH   6  14
ENDBRANCH   4   6
ENDBRANCH   1   4
BRANCH   1  18
ATOM     18  C   UNL     1       1.898   3.854  18.132  0.00  0.00    +0.000 C 
BRANCH  18  19
ATOM     19  N   UNL     1       1.881   5.006  19.012  0.00  0.00    +0.000 N 
ATOM     20  C   UNL     1       1.711   4.892  20.350  0.00  0.00    +0.000 C 
ATOM     21  O   UNL     1       1.616   3.828  20.942  0.00  0.00    +0.000 OA
ATOM     22  H   UNL     1       1.984   5.898  18.534  0.00  0.00    +0.000 HD
BRANCH  20  23
ATOM     23  O   UNL     1       1.558   6.113  20.921  0.00  0.00    +0.000 OA
BRANCH  23  24
ATOM     24  C   UNL     1       2.023   7.206  20.123  0.00  0.00    +0.000 C 
BRANCH  24  25
ATOM     25  C   UNL     1       1.310   8.490  20.461  0.00  0.00    +0.000 A 
ATOM     26  C   UNL     1       0.923   8.771  21.774  0.00  0.00    +0.000 A 
ATOM     27  C   UNL     1       0.306   9.984  22.090  0.00  0.00    +0.000 A 
ATOM     28  C   UNL     1       0.064  10.925  21.090  0.00  0.00    +0.000 A 
ATOM     29  C   UNL     1       0.430  10.649  19.776  0.00  0.00    +0.000 A 
ATOM     30  C   UNL     1       1.046   9.440  19.456  0.00  0.00    +0.000 A 
ENDBRANCH  24  25
ENDBRANCH  23  24
ENDBRANCH  20  23
ENDBRANCH  18  19
ENDBRANCH   1  18
TORSDOF 12
ENDMDL
MODEL 2
REMARK VINA RESULT:      -7.2      3.241      7.505
REMARK  Name = 
REMARK  15 active torsions:
REMARK  status: ('A' for Active; 'I' for Inactive)
REMARK    1  A    between atoms: C_1  and  C_2
REMARK    2  A    between atoms: C_2  and  C_3
REMARK    3  A    between atoms: C_3  and  N_4
REMARK    4  A    between atoms: C_5  and  C_7
REMARK    5  A    between atoms: C_7  and  C_8
REMARK    6  A    between atoms: C_7  and  N_12
REMARK    7  A    between atoms: C_8  and  C_9
REMARK    8  A    between atoms: C_9  and  C_10
REMARK    9  A    between atoms: C_9  and  C_11
REMARK   10  A    between atoms: N_12  and  P_13
REMARK   11  A    between atoms: P_13  and  C_16
REMARK   12  A    between atoms: C_16  and  N_17
REMARK   13  A    between atoms: C_18  and  O_20
REMARK   14  A    between atoms: O_20  and  C_21
REMARK   15  A    between atoms: C_21  and  C_22
REMARK                            x       y       z     vdW  Elec       q    Type
REMARK                         _______ _______ _______ _____ _____    ______ ____
ROOT
ATOM      1  P   UNL     1       5.477   4.535  18.408  0.00  0.00    +0.000 P 
ATOM      2  O   UNL     1       4.898   5.178  17.153  0.00  0.00    +0.000 OA
ATOM      3  O   UNL     1       5.580   5.315  19.726  0.00  0.00    +0.000 OA
ENDROOT
BRANCH   1   4
ATOM      4  N   UNL     1       3.799   4.202  18.898  0.00  0.00    +0.000 NA
ATOM      5  H   UNL     1       3.785   3.198  18.689  0.00  0.00    +0.000 HD
BRANCH   4   6
ATOM      6  C   UNL     1       2.883   5.070  18.094  0.00  0.00    +0.000 C 
BRANCH   6   8
ATOM      7  N   UNL     1       2.543   7.461  17.653  0.00  0.00    +0.000 N 
ATOM      8  C   UNL     1       2.560   6.475  18.603  0.00  0.00    +0.000 C 
ATOM      9  O   UNL     1       2.362   6.694  19.804  0.00  0.00    +0.000 OA
ATOM     10  H   UNL     1       2.530   7.132  16.684  0.00  0.00    +0.000 HD
BRANCH   7  11
ATOM     11  C   UNL     1       2.363   8.855  18.002  0.00  0.00    +0.000 C 
BRANCH  11  13
ATOM     12  C   UNL     1       0.459   9.975  19.258  0.00  0.00    +0.000 C 
ATOM     13  C   UNL     1       0.905   9.300  17.968  0.00  0.00    +0.000 C 
ENDBRANCH  11  13
ENDBRANCH   7  11
ENDBRANCH   6   8
BRANCH   6  14
ATOM     14  C   UNL     1       1.556   4.356  17.730  0.00  0.00    +0.000 C 
BRANCH  14  15
ATOM     15  C   UNL     1       1.166   3.121  18.578  0.00  0.00    +0.000 C 
ATOM     16  C   UNL     1       2.172   1.972  18.540  0.00  0.00    +0.000 C 
ATOM     17  C   UNL     1       0.962   3.543  20.037  0.00  0.00    +0.000 C 
ENDBRANCH  14  15
ENDBRANCH   6  14
ENDBRANCH   4   6
ENDBRANCH   1   4
BRANCH   1  18
ATOM     18  C   UNL     1       7.203   4.877  17.903  0.00  0.00    +0.000 C 
BRANCH  18  19
ATOM     19  N   UNL     1       7.708   6.103  18.487  0.00  0.00    +0.000 N 
ATOM     20  C   UNL     1       7.721   7.276  17.811  0.00  0.00    +0.000 C 
ATOM     21  O   UNL     1       7.266   7.426  16.688  0.00  0.00    +0.000 OA
ATOM     22  H   UNL     1       8.069   5.996  19.432  0.00  0.00    +0.000 HD
BRANCH  20  23
ATOM     23  O   UNL     1       8.398   8.223  18.506  0.00  0.00    +0.000 OA
BRANCH  23  24
ATOM     24  C   UNL     1       8.385   9.524  17.911  0.00  0.00    +0.000 C 
BRANCH  24  25
ATOM     25  C   UNL     1       9.318  10.473  18.616  0.00  0.00    +0.000 A 
ATOM     26  C   UNL     1      10.129  11.353  17.894  0.00  0.00    +0.000 A 
ATOM     27  C   UNL     1      10.956  12.264  18.555  0.00  0.00    +0.000 A 
ATOM     28  C   UNL     1      10.984  12.297  19.949  0.00  0.00    +0.000 A 
ATOM     29  C   UNL     1      10.193  11.415  20.679  0.00  0.00    +0.000 A 
ATOM     30  C   UNL     1       9.367  10.504  20.023  0.00  0.00    +0.000 A 
ENDBRANCH  24  25
ENDBRANCH  23  24
ENDBRANCH  20  23
ENDBRANCH  18  19
ENDBRANCH   1  18
TORSDOF 12
ENDMDL
MODEL 3
REMARK VINA RESULT:      -7.2      1.946      9.011
REMARK  Name = 
REMARK  15 active torsions:
REMARK  status: ('A' for Active; 'I' for Inactive)
REMARK    1  A    between atoms: C_1  and  C_2
REMARK    2  A    between atoms: C_2  and  C_3
REMARK    3  A    between atoms: C_3  and  N_4
REMARK    4  A    between atoms: C_5  and  C_7
REMARK    5  A    between atoms: C_7  and  C_8
REMARK    6  A    between atoms: C_7  and  N_12
REMARK    7  A    between atoms: C_8  and  C_9
REMARK    8  A    between atoms: C_9  and  C_10
REMARK    9  A    between atoms: C_9  and  C_11
REMARK   10  A    between atoms: N_12  and  P_13
REMARK   11  A    between atoms: P_13  and  C_16
REMARK   12  A    between atoms: C_16  and  N_17
REMARK   13  A    between atoms: C_18  and  O_20
REMARK   14  A    between atoms: O_20  and  C_21
REMARK   15  A    between atoms: C_21  and  C_22
REMARK                            x       y       z     vdW  Elec       q    Type
REMARK                         _______ _______ _______ _____ _____    ______ ____
ROOT
ATOM      1  P   UNL     1       4.848   4.561  18.375  0.00  0.00    +0.000 P 
ATOM      2  O   UNL     1       4.561   3.414  19.336  0.00  0.00    +0.000 OA
ATOM      3  O   UNL     1       3.720   5.235  17.580  0.00  0.00    +0.000 OA
ENDROOT
BRANCH   1   4
ATOM      4  N   UNL     1       4.384   5.661  19.696  0.00  0.00    +0.000 NA
ATOM      5  H   UNL     1       4.824   5.150  20.468  0.00  0.00    +0.000 HD
BRANCH   4   6
ATOM      6  C   UNL     1       2.892   5.772  19.725  0.00  0.00    +0.000 C 
BRANCH   6   8
ATOM      7  N   UNL     1       1.737   7.618  20.859  0.00  0.00    +0.000 N 
ATOM      8  C   UNL     1       2.253   7.160  19.676  0.00  0.00    +0.000 C 
ATOM      9  O   UNL     1       2.185   7.799  18.620  0.00  0.00    +0.000 OA
ATOM     10  H   UNL     1       2.021   7.093  21.690  0.00  0.00    +0.000 HD
BRANCH   7  11
ATOM     11  C   UNL     1       1.004   8.864  20.940  0.00  0.00    +0.000 C 
BRANCH  11  13
ATOM     12  C   UNL     1      -0.483   9.454  22.914  0.00  0.00    +0.000 C 
ATOM     13  C   UNL     1       0.933   9.428  22.355  0.00  0.00    +0.000 C 
ENDBRANCH  11  13
ENDBRANCH   7  11
ENDBRANCH   6   8
BRANCH   6  14
ATOM     14  C   UNL     1       2.261   4.975  20.896  0.00  0.00    +0.000 C 
BRANCH  14  15
ATOM     15  C   UNL     1       1.172   3.937  20.534  0.00  0.00    +0.000 C 
ATOM     16  C   UNL     1       1.088   3.584  19.050  0.00  0.00    +0.000 C 
ATOM     17  C   UNL     1       1.404   2.648  21.329  0.00  0.00    +0.000 C 
ENDBRANCH  14  15
ENDBRANCH   6  14
ENDBRANCH   4   6
ENDBRANCH   1   4
BRANCH   1  18
ATOM     18  C   UNL     1       5.325   3.430  17.017  0.00  0.00    +0.000 C 
BRANCH  18  19
ATOM     19  N   UNL     1       5.508   4.132  15.762  0.00  0.00    +0.000 N 
ATOM     20  C   UNL     1       6.712   4.610  15.370  0.00  0.00    +0.000 C 
ATOM     21  O   UNL     1       7.751   4.451  15.991  0.00  0.00    +0.000 OA
ATOM     22  H   UNL     1       4.654   4.251  15.223  0.00  0.00    +0.000 HD
BRANCH  20  23
ATOM     23  O   UNL     1       6.585   5.373  14.255  0.00  0.00    +0.000 OA
BRANCH  23  24
ATOM     24  C   UNL     1       7.349   4.921  13.133  0.00  0.00    +0.000 C 
BRANCH  24  25
ATOM     25  C   UNL     1       6.662   3.794  12.405  0.00  0.00    +0.000 A 
ATOM     26  C   UNL     1       5.273   3.783  12.246  0.00  0.00    +0.000 A 
ATOM     27  C   UNL     1       4.647   2.762  11.529  0.00  0.00    +0.000 A 
ATOM     28  C   UNL     1       5.406   1.735  10.969  0.00  0.00    +0.000 A 
ATOM     29  C   UNL     1       6.788   1.726  11.135  0.00  0.00    +0.000 A 
ATOM     30  C   UNL     1       7.417   2.744  11.850  0.00  0.00    +0.000 A 
ENDBRANCH  24  25
ENDBRANCH  23  24
ENDBRANCH  20  23
ENDBRANCH  18  19
ENDBRANCH   1  18
TORSDOF 12
ENDMDL
MODEL 4
REMARK VINA RESULT:      -7.1      1.269      1.856
REMARK  Name = 
REMARK  15 active torsions:
REMARK  status: ('A' for Active; 'I' for Inactive)
REMARK    1  A    between atoms: C_1  and  C_2
REMARK    2  A    between atoms: C_2  and  C_3
REMARK    3  A    between atoms: C_3  and  N_4
REMARK    4  A    between atoms: C_5  and  C_7
REMARK    5  A    between atoms: C_7  and  C_8
REMARK    6  A    between atoms: C_7  and  N_12
REMARK    7  A    between atoms: C_8  and  C_9
REMARK    8  A    between atoms: C_9  and  C_10
REMARK    9  A    between atoms: C_9  and  C_11
REMARK   10  A    between atoms: N_12  and  P_13
REMARK   11  A    between atoms: P_13  and  C_16
REMARK   12  A    between atoms: C_16  and  N_17
REMARK   13  A    between atoms: C_18  and  O_20
REMARK   14  A    between atoms: O_20  and  C_21
REMARK   15  A    between atoms: C_21  and  C_22
REMARK                            x       y       z     vdW  Elec       q    Type
REMARK                         _______ _______ _______ _____ _____    ______ ____
ROOT
ATOM      1  P   UNL     1       4.177   3.213  18.744  0.00  0.00    +0.000 P 
ATOM      2  O   UNL     1       3.708   2.169  17.738  0.00  0.00    +0.000 OA
ATOM      3  O   UNL     1       5.316   2.911  19.729  0.00  0.00    +0.000 OA
ENDROOT
BRANCH   1   4
ATOM      4  N   UNL     1       5.472   3.609  17.588  0.00  0.00    +0.000 NA
ATOM      5  H   UNL     1       6.264   3.551  18.235  0.00  0.00    +0.000 HD
BRANCH   4   6
ATOM      6  C   UNL     1       5.187   4.952  16.991  0.00  0.00    +0.000 C 
BRANCH   6   8
ATOM      7  N   UNL     1       6.188   4.172  14.890  0.00  0.00    +0.000 N 
ATOM      8  C   UNL     1       5.571   5.210  15.534  0.00  0.00    +0.000 C 
ATOM      9  O   UNL     1       5.359   6.304  14.998  0.00  0.00    +0.000 OA
ATOM     10  H   UNL     1       6.135   3.268  15.369  0.00  0.00    +0.000 HD
BRANCH   7  11
ATOM     11  C   UNL     1       6.709   4.308  13.546  0.00  0.00    +0.000 C 
BRANCH  11  13
ATOM     12  C   UNL     1       4.815   3.499  12.057  0.00  0.00    +0.000 C 
ATOM     13  C   UNL     1       6.212   3.224  12.596  0.00  0.00    +0.000 C 
ENDBRANCH  11  13
ENDBRANCH   7  11
ENDBRANCH   6   8
BRANCH   6  14
ATOM     14  C   UNL     1       5.728   6.115  17.861  0.00  0.00    +0.000 C 
BRANCH  14  15
ATOM     15  C   UNL     1       7.261   6.326  17.878  0.00  0.00    +0.000 C 
ATOM     16  C   UNL     1       7.713   7.770  17.669  0.00  0.00    +0.000 C 
ATOM     17  C   UNL     1       7.836   5.822  19.206  0.00  0.00    +0.000 C 
ENDBRANCH  14  15
ENDBRANCH   6  14
ENDBRANCH   4   6
ENDBRANCH   1   4
BRANCH   1  18
ATOM     18  C   UNL     1       2.846   2.805  19.933  0.00  0.00    +0.000 C 
BRANCH  18  19
ATOM     19  N   UNL     1       2.310   3.988  20.576  0.00  0.00    +0.000 N 
ATOM     20  C   UNL     1       1.816   5.033  19.873  0.00  0.00    +0.000 C 
ATOM     21  O   UNL     1       1.721   5.059  18.656  0.00  0.00    +0.000 OA
ATOM     22  H   UNL     1       2.361   3.969  21.592  0.00  0.00    +0.000 HD
BRANCH  20  23
ATOM     23  O   UNL     1       1.541   6.078  20.694  0.00  0.00    +0.000 OA
BRANCH  23  24
ATOM     24  C   UNL     1       2.317   7.253  20.443  0.00  0.00    +0.000 C 
BRANCH  24  25
ATOM     25  C   UNL     1       1.475   8.370  19.881  0.00  0.00    +0.000 A 
ATOM     26  C   UNL     1       1.597   8.758  18.544  0.00  0.00    +0.000 A 
ATOM     27  C   UNL     1       0.780   9.760  18.016  0.00  0.00    +0.000 A 
ATOM     28  C   UNL     1      -0.164  10.390  18.826  0.00  0.00    +0.000 A 
ATOM     29  C   UNL     1      -0.283  10.023  20.163  0.00  0.00    +0.000 A 
ATOM     30  C   UNL     1       0.531   9.024  20.695  0.00  0.00    +0.000 A 
ENDBRANCH  24  25
ENDBRANCH  23  24
ENDBRANCH  20  23
ENDBRANCH  18  19
ENDBRANCH   1  18
TORSDOF 12
ENDMDL
MODEL 5
REMARK VINA RESULT:      -7.0      3.088      7.411
REMARK  Name = 
REMARK  15 active torsions:
REMARK  status: ('A' for Active; 'I' for Inactive)
REMARK    1  A    between atoms: C_1  and  C_2
REMARK    2  A    between atoms: C_2  and  C_3
REMARK    3  A    between atoms: C_3  and  N_4
REMARK    4  A    between atoms: C_5  and  C_7
REMARK    5  A    between atoms: C_7  and  C_8
REMARK    6  A    between atoms: C_7  and  N_12
REMARK    7  A    between atoms: C_8  and  C_9
REMARK    8  A    between atoms: C_9  and  C_10
REMARK    9  A    between atoms: C_9  and  C_11
REMARK   10  A    between atoms: N_12  and  P_13
REMARK   11  A    between atoms: P_13  and  C_16
REMARK   12  A    between atoms: C_16  and  N_17
REMARK   13  A    between atoms: C_18  and  O_20
REMARK   14  A    between atoms: O_20  and  C_21
REMARK   15  A    between atoms: C_21  and  C_22
REMARK                            x       y       z     vdW  Elec       q    Type
REMARK                         _______ _______ _______ _____ _____    ______ ____
ROOT
ATOM      1  P   UNL     1       4.850   4.857  17.761  0.00  0.00    +0.000 P 
ATOM      2  O   UNL     1       4.912   3.661  16.819  0.00  0.00    +0.000 OA
ATOM      3  O   UNL     1       4.782   6.292  17.220  0.00  0.00    +0.000 OA
ENDROOT
BRANCH   1   4
ATOM      4  N   UNL     1       3.086   4.834  17.523  0.00  0.00    +0.000 NA
ATOM      5  H   UNL     1       3.008   5.675  16.942  0.00  0.00    +0.000 HD
BRANCH   4   6
ATOM      6  C   UNL     1       2.420   4.878  18.863  0.00  0.00    +0.000 C 
BRANCH   6   8
ATOM      7  N   UNL     1       2.128   7.303  18.620  0.00  0.00    +0.000 N 
ATOM      8  C   UNL     1       2.084   6.237  19.477  0.00  0.00    +0.000 C 
ATOM      9  O   UNL     1       1.824   6.351  20.681  0.00  0.00    +0.000 OA
ATOM     10  H   UNL     1       2.165   7.061  17.626  0.00  0.00    +0.000 HD
BRANCH   7  11
ATOM     11  C   UNL     1       1.943   8.663  19.082  0.00  0.00    +0.000 C 
BRANCH  11  13
ATOM     12  C   UNL     1      -0.010  10.116  18.352  0.00  0.00    +0.000 C 
ATOM     13  C   UNL     1       1.378   9.590  18.011  0.00  0.00    +0.000 C 
ENDBRANCH  11  13
ENDBRANCH   7  11
ENDBRANCH   6   8
BRANCH   6  14
ATOM     14  C   UNL     1       3.163   4.024  19.922  0.00  0.00    +0.000 C 
BRANCH  14  15
ATOM     15  C   UNL     1       2.476   2.713  20.376  0.00  0.00    +0.000 C 
ATOM     16  C   UNL     1       1.354   2.894  21.396  0.00  0.00    +0.000 C 
ATOM     17  C   UNL     1       1.912   1.979  19.155  0.00  0.00    +0.000 C 
ENDBRANCH  14  15
ENDBRANCH   6  14
ENDBRANCH   4   6
ENDBRANCH   1   4
BRANCH   1  18
ATOM     18  C   UNL     1       6.663   4.881  18.006  0.00  0.00    +0.000 C 
BRANCH  18  19
ATOM     19  N   UNL     1       7.132   6.167  18.484  0.00  0.00    +0.000 N 
ATOM     20  C   UNL     1       7.700   7.081  17.663  0.00  0.00    +0.000 C 
ATOM     21  O   UNL     1       7.818   6.941  16.456  0.00  0.00    +0.000 OA
ATOM     22  H   UNL     1       7.017   6.306  19.485  0.00  0.00    +0.000 HD
BRANCH  20  23
ATOM     23  O   UNL     1       8.207   8.117  18.377  0.00  0.00    +0.000 OA
BRANCH  23  24
ATOM     24  C   UNL     1       8.112   9.390  17.731  0.00  0.00    +0.000 C 
BRANCH  24  25
ATOM     25  C   UNL     1       8.938  10.437  18.432  0.00  0.00    +0.000 A 
ATOM     26  C   UNL     1       9.249  11.646  17.804  0.00  0.00    +0.000 A 
ATOM     27  C   UNL     1       9.973  12.632  18.477  0.00  0.00    +0.000 A 
ATOM     28  C   UNL     1      10.400  12.414  19.786  0.00  0.00    +0.000 A 
ATOM     29  C   UNL     1      10.111  11.207  20.416  0.00  0.00    +0.000 A 
ATOM     30  C   UNL     1       9.389  10.219  19.748  0.00  0.00    +0.000 A 
ENDBRANCH  24  25
ENDBRANCH  23  24
ENDBRANCH  20  23
ENDBRANCH  18  19
ENDBRANCH   1  18
TORSDOF 12
ENDMDL
MODEL 6
REMARK VINA RESULT:      -6.9      2.124      8.568
REMARK  Name = 
REMARK  15 active torsions:
REMARK  status: ('A' for Active; 'I' for Inactive)
REMARK    1  A    between atoms: C_1  and  C_2
REMARK    2  A    between atoms: C_2  and  C_3
REMARK    3  A    between atoms: C_3  and  N_4
REMARK    4  A    between atoms: C_5  and  C_7
REMARK    5  A    between atoms: C_7  and  C_8
REMARK    6  A    between atoms: C_7  and  N_12
REMARK    7  A    between atoms: C_8  and  C_9
REMARK    8  A    between atoms: C_9  and  C_10
REMARK    9  A    between atoms: C_9  and  C_11
REMARK   10  A    between atoms: N_12  and  P_13
REMARK   11  A    between atoms: P_13  and  C_16
REMARK   12  A    between atoms: C_16  and  N_17
REMARK   13  A    between atoms: C_18  and  O_20
REMARK   14  A    between atoms: O_20  and  C_21
REMARK   15  A    between atoms: C_21  and  C_22
REMARK                            x       y       z     vdW  Elec       q    Type
REMARK                         _______ _______ _______ _____ _____    ______ ____
ROOT
ATOM      1  P   UNL     1       5.306   5.872  18.776  0.00  0.00    +0.000 P 
ATOM      2  O   UNL     1       6.344   4.979  19.445  0.00  0.00    +0.000 OA
ATOM      3  O   UNL     1       4.397   5.336  17.661  0.00  0.00    +0.000 OA
ENDROOT
BRANCH   1   4
ATOM      4  N   UNL     1       4.114   5.166  19.894  0.00  0.00    +0.000 NA
ATOM      5  H   UNL     1       4.370   4.181  19.773  0.00  0.00    +0.000 HD
BRANCH   4   6
ATOM      6  C   UNL     1       2.742   5.565  19.448  0.00  0.00    +0.000 C 
BRANCH   6   8
ATOM      7  N   UNL     1       2.423   7.646  18.185  0.00  0.00    +0.000 N 
ATOM      8  C   UNL     1       2.378   7.049  19.416  0.00  0.00    +0.000 C 
ATOM      9  O   UNL     1       2.094   7.663  20.451  0.00  0.00    +0.000 OA
ATOM     10  H   UNL     1       2.481   7.002  17.391  0.00  0.00    +0.000 HD
BRANCH   7  11
ATOM     11  C   UNL     1       2.212   9.068  18.017  0.00  0.00    +0.000 C 
BRANCH  11  13
ATOM     12  C   UNL     1       0.351  10.566  18.883  0.00  0.00    +0.000 C 
ATOM     13  C   UNL     1       0.739   9.451  17.921  0.00  0.00    +0.000 C 
ENDBRANCH  11  13
ENDBRANCH   7  11
ENDBRANCH   6   8
BRANCH   6  14
ATOM     14  C   UNL     1       1.627   4.794  20.199  0.00  0.00    +0.000 C 
BRANCH  14  15
ATOM     15  C   UNL     1       1.749   3.252  20.251  0.00  0.00    +0.000 C 
ATOM     16  C   UNL     1       1.445   2.629  21.612  0.00  0.00    +0.000 C 
ATOM     17  C   UNL     1       0.816   2.627  19.208  0.00  0.00    +0.000 C 
ENDBRANCH  14  15
ENDBRANCH   6  14
ENDBRANCH   4   6
ENDBRANCH   1   4
BRANCH   1  18
ATOM     18  C   UNL     1       6.532   6.598  17.627  0.00  0.00    +0.000 C 
BRANCH  18  19
ATOM     19  N   UNL     1       6.228   6.293  16.243  0.00  0.00    +0.000 N 
ATOM     20  C   UNL     1       6.900   5.346  15.546  0.00  0.00    +0.000 C 
ATOM     21  O   UNL     1       7.769   4.632  16.020  0.00  0.00    +0.000 OA
ATOM     22  H   UNL     1       5.488   6.865  15.842  0.00  0.00    +0.000 HD
BRANCH  20  23
ATOM     23  O   UNL     1       6.549   5.375  14.236  0.00  0.00    +0.000 OA
BRANCH  23  24
ATOM     24  C   UNL     1       7.324   4.519  13.392  0.00  0.00    +0.000 C 
BRANCH  24  25
ATOM     25  C   UNL     1       6.452   3.626  12.547  0.00  0.00    +0.000 A 
ATOM     26  C   UNL     1       5.090   3.895  12.388  0.00  0.00    +0.000 A 
ATOM     27  C   UNL     1       4.297   3.092  11.565  0.00  0.00    +0.000 A 
ATOM     28  C   UNL     1       4.861   2.005  10.898  0.00  0.00    +0.000 A 
ATOM     29  C   UNL     1       6.213   1.718  11.062  0.00  0.00    +0.000 A 
ATOM     30  C   UNL     1       7.008   2.516  11.883  0.00  0.00    +0.000 A 
ENDBRANCH  24  25
ENDBRANCH  23  24
ENDBRANCH  20  23
ENDBRANCH  18  19
ENDBRANCH   1  18
TORSDOF 12
ENDMDL
MODEL 7
REMARK VINA RESULT:      -6.8      1.227      1.613
REMARK  Name = 
REMARK  15 active torsions:
REMARK  status: ('A' for Active; 'I' for Inactive)
REMARK    1  A    between atoms: C_1  and  C_2
REMARK    2  A    between atoms: C_2  and  C_3
REMARK    3  A    between atoms: C_3  and  N_4
REMARK    4  A    between atoms: C_5  and  C_7
REMARK    5  A    between atoms: C_7  and  C_8
REMARK    6  A    between atoms: C_7  and  N_12
REMARK    7  A    between atoms: C_8  and  C_9
REMARK    8  A    between atoms: C_9  and  C_10
REMARK    9  A    between atoms: C_9  and  C_11
REMARK   10  A    between atoms: N_12  and  P_13
REMARK   11  A    between atoms: P_13  and  C_16
REMARK   12  A    between atoms: C_16  and  N_17
REMARK   13  A    between atoms: C_18  and  O_20
REMARK   14  A    between atoms: O_20  and  C_21
REMARK   15  A    between atoms: C_21  and  C_22
REMARK                            x       y       z     vdW  Elec       q    Type
REMARK                         _______ _______ _______ _____ _____    ______ ____
ROOT
ATOM      1  P   UNL     1       3.892   3.248  18.362  0.00  0.00    +0.000 P 
ATOM      2  O   UNL     1       3.040   2.175  17.693  0.00  0.00    +0.000 OA
ATOM      3  O   UNL     1       5.067   2.874  19.277  0.00  0.00    +0.000 OA
ENDROOT
BRANCH   1   4
ATOM      4  N   UNL     1       5.046   3.032  17.024  0.00  0.00    +0.000 NA
ATOM      5  H   UNL     1       5.687   2.383  17.492  0.00  0.00    +0.000 HD
BRANCH   4   6
ATOM      6  C   UNL     1       5.600   4.370  16.648  0.00  0.00    +0.000 C 
BRANCH   6   8
ATOM      7  N   UNL     1       6.046   3.698  14.330  0.00  0.00    +0.000 N 
ATOM      8  C   UNL     1       5.721   4.731  15.168  0.00  0.00    +0.000 C 
ATOM      9  O   UNL     1       5.565   5.893  14.775  0.00  0.00    +0.000 OA
ATOM     10  H   UNL     1       5.960   2.763  14.737  0.00  0.00    +0.000 HD
BRANCH   7  11
ATOM     11  C   UNL     1       6.304   3.910  12.921  0.00  0.00    +0.000 C 
BRANCH  11  13
ATOM     12  C   UNL     1       4.361   3.313  11.396  0.00  0.00    +0.000 C 
ATOM     13  C   UNL     1       5.668   2.852  12.027  0.00  0.00    +0.000 C 
ENDBRANCH  11  13
ENDBRANCH   7  11
ENDBRANCH   6   8
BRANCH   6  14
ATOM     14  C   UNL     1       6.952   4.670  17.345  0.00  0.00    +0.000 C 
BRANCH  14  15
ATOM     15  C   UNL     1       7.000   5.896  18.288  0.00  0.00    +0.000 C 
ATOM     16  C   UNL     1       7.913   5.738  19.503  0.00  0.00    +0.000 C 
ATOM     17  C   UNL     1       7.446   7.134  17.501  0.00  0.00    +0.000 C 
ENDBRANCH  14  15
ENDBRANCH   6  14
ENDBRANCH   4   6
ENDBRANCH   1   4
BRANCH   1  18
ATOM     18  C   UNL     1       2.704   3.469  19.737  0.00  0.00    +0.000 C 
BRANCH  18  19
ATOM     19  N   UNL     1       2.032   4.752  19.674  0.00  0.00    +0.000 N 
ATOM     20  C   UNL     1       2.707   5.925  19.714  0.00  0.00    +0.000 C 
ATOM     21  O   UNL     1       3.924   6.016  19.747  0.00  0.00    +0.000 OA
ATOM     22  H   UNL     1       1.018   4.689  19.622  0.00  0.00    +0.000 HD
BRANCH  20  23
ATOM     23  O   UNL     1       1.847   6.969  19.818  0.00  0.00    +0.000 OA
BRANCH  23  24
ATOM     24  C   UNL     1       2.121   8.057  18.930  0.00  0.00    +0.000 C 
BRANCH  24  25
ATOM     25  C   UNL     1       1.318   9.282  19.280  0.00  0.00    +0.000 A 
ATOM     26  C   UNL     1       1.384  10.435  18.493  0.00  0.00    +0.000 A 
ATOM     27  C   UNL     1       0.600  11.550  18.795  0.00  0.00    +0.000 A 
ATOM     28  C   UNL     1      -0.256  11.524  19.896  0.00  0.00    +0.000 A 
ATOM     29  C   UNL     1      -0.318  10.388  20.697  0.00  0.00    +0.000 A 
ATOM     30  C   UNL     1       0.463   9.273  20.400  0.00  0.00    +0.000 A 
ENDBRANCH  24  25
ENDBRANCH  23  24
ENDBRANCH  20  23
ENDBRANCH  18  19
ENDBRANCH   1  18
TORSDOF 12
ENDMDL
MODEL 8
REMARK VINA RESULT:      -6.8      3.130      5.370
REMARK  Name = 
REMARK  15 active torsions:
REMARK  status: ('A' for Active; 'I' for Inactive)
REMARK    1  A    between atoms: C_1  and  C_2
REMARK    2  A    between atoms: C_2  and  C_3
REMARK    3  A    between atoms: C_3  and  N_4
REMARK    4  A    between atoms: C_5  and  C_7
REMARK    5  A    between atoms: C_7  and  C_8
REMARK    6  A    between atoms: C_7  and  N_12
REMARK    7  A    between atoms: C_8  and  C_9
REMARK    8  A    between atoms: C_9  and  C_10
REMARK    9  A    between atoms: C_9  and  C_11
REMARK   10  A    between atoms: N_12  and  P_13
REMARK   11  A    between atoms: P_13  and  C_16
REMARK   12  A    between atoms: C_16  and  N_17
REMARK   13  A    between atoms: C_18  and  O_20
REMARK   14  A    between atoms: O_20  and  C_21
REMARK   15  A    between atoms: C_21  and  C_22
REMARK                            x       y       z     vdW  Elec       q    Type
REMARK                         _______ _______ _______ _____ _____    ______ ____
ROOT
ATOM      1  P   UNL     1       3.763   6.269  17.608  0.00  0.00    +0.000 P 
ATOM      2  O   UNL     1       4.471   6.702  16.329  0.00  0.00    +0.000 OA
ATOM      3  O   UNL     1       2.315   5.760  17.582  0.00  0.00    +0.000 OA
ENDROOT
BRANCH   1   4
ATOM      4  N   UNL     1       4.209   4.600  17.176  0.00  0.00    +0.000 NA
ATOM      5  H   UNL     1       3.264   4.238  17.009  0.00  0.00    +0.000 HD
BRANCH   4   6
ATOM      6  C   UNL     1       4.969   3.996  18.316  0.00  0.00    +0.000 C 
BRANCH   6   8
ATOM      7  N   UNL     1       2.886   2.990  19.136  0.00  0.00    +0.000 N 
ATOM      8  C   UNL     1       4.249   3.029  19.255  0.00  0.00    +0.000 C 
ATOM      9  O   UNL     1       4.872   2.358  20.087  0.00  0.00    +0.000 OA
ATOM     10  H   UNL     1       2.509   3.438  18.296  0.00  0.00    +0.000 HD
BRANCH   7  11
ATOM     11  C   UNL     1       2.063   2.206  20.033  0.00  0.00    +0.000 C 
BRANCH  11  13
ATOM     12  C   UNL     1       1.159   4.506  20.623  0.00  0.00    +0.000 C 
ATOM     13  C   UNL     1       1.310   3.053  21.053  0.00  0.00    +0.000 C 
ENDBRANCH  11  13
ENDBRANCH   7  11
ENDBRANCH   6   8
BRANCH   6  14
ATOM     14  C   UNL     1       5.705   5.062  19.167  0.00  0.00    +0.000 C 
BRANCH  14  15
ATOM     15  C   UNL     1       7.076   5.556  18.645  0.00  0.00    +0.000 C 
ATOM     16  C   UNL     1       8.138   5.763  19.723  0.00  0.00    +0.000 C 
ATOM     17  C   UNL     1       7.619   4.566  17.609  0.00  0.00    +0.000 C 
ENDBRANCH  14  15
ENDBRANCH   6  14
ENDBRANCH   4   6
ENDBRANCH   1   4
BRANCH   1  18
ATOM     18  C   UNL     1       3.306   7.984  18.051  0.00  0.00    +0.000 C 
BRANCH  18  19
ATOM     19  N   UNL     1       1.883   8.222  17.912  0.00  0.00    +0.000 N 
ATOM     20  C   UNL     1       1.345   9.462  17.990  0.00  0.00    +0.000 C 
ATOM     21  O   UNL     1       1.997  10.486  18.123  0.00  0.00    +0.000 OA
ATOM     22  H   UNL     1       1.331   7.378  17.777  0.00  0.00    +0.000 HD
BRANCH  20  23
ATOM     23  O   UNL     1      -0.010   9.397  18.005  0.00  0.00    +0.000 OA
BRANCH  23  24
ATOM     24  C   UNL     1      -0.659  10.596  18.439  0.00  0.00    +0.000 C 
BRANCH  24  25
ATOM     25  C   UNL     1      -2.000  10.777  17.777  0.00  0.00    +0.000 A 
ATOM     26  C   UNL     1      -3.023  11.489  18.409  0.00  0.00    +0.000 A 
ATOM     27  C   UNL     1      -4.247  11.696  17.769  0.00  0.00    +0.000 A 
ATOM     28  C   UNL     1      -4.462  11.184  16.490  0.00  0.00    +0.000 A 
ATOM     29  C   UNL     1      -3.456  10.459  15.857  0.00  0.00    +0.000 A 
ATOM     30  C   UNL     1      -2.233  10.250  16.492  0.00  0.00    +0.000 A 
ENDBRANCH  24  25
ENDBRANCH  23  24
ENDBRANCH  20  23
ENDBRANCH  18  19
ENDBRANCH   1  18
TORSDOF 12
ENDMDL
MODEL 9
REMARK VINA RESULT:      -6.8      1.720      4.098
REMARK  Name = 
REMARK  15 active torsions:
REMARK  status: ('A' for Active; 'I' for Inactive)
REMARK    1  A    between atoms: C_1  and  C_2
REMARK    2  A    between atoms: C_2  and  C_3
REMARK    3  A    between atoms: C_3  and  N_4
REMARK    4  A    between atoms: C_5  and  C_7
REMARK    5  A    between atoms: C_7  and  C_8
REMARK    6  A    between atoms: C_7  and  N_12
REMARK    7  A    between atoms: C_8  and  C_9
REMARK    8  A    between atoms: C_9  and  C_10
REMARK    9  A    between atoms: C_9  and  C_11
REMARK   10  A    between atoms: N_12  and  P_13
REMARK   11  A    between atoms: P_13  and  C_16
REMARK   12  A    between atoms: C_16  and  N_17
REMARK   13  A    between atoms: C_18  and  O_20
REMARK   14  A    between atoms: O_20  and  C_21
REMARK   15  A    between atoms: C_21  and  C_22
REMARK                            x       y       z     vdW  Elec       q    Type
REMARK                         _______ _______ _______ _____ _____    ______ ____
ROOT
ATOM      1  P   UNL     1       4.825   4.130  17.979  0.00  0.00    +0.000 P 
ATOM      2  O   UNL     1       4.180   2.916  17.322  0.00  0.00    +0.000 OA
ATOM      3  O   UNL     1       5.763   3.977  19.185  0.00  0.00    +0.000 OA
ENDROOT
BRANCH   1   4
ATOM      4  N   UNL     1       6.266   3.782  16.992  0.00  0.00    +0.000 NA
ATOM      5  H   UNL     1       6.945   3.697  17.756  0.00  0.00    +0.000 HD
BRANCH   4   6
ATOM      6  C   UNL     1       6.472   4.909  16.030  0.00  0.00    +0.000 C 
BRANCH   6   8
ATOM      7  N   UNL     1       7.400   6.996  16.929  0.00  0.00    +0.000 N 
ATOM      8  C   UNL     1       6.269   6.344  16.516  0.00  0.00    +0.000 C 
ATOM      9  O   UNL     1       5.144   6.855  16.559  0.00  0.00    +0.000 OA
ATOM     10  H   UNL     1       8.282   6.546  16.669  0.00  0.00    +0.000 HD
BRANCH   7  11
ATOM     11  C   UNL     1       7.347   8.317  17.518  0.00  0.00    +0.000 C 
BRANCH  11  13
ATOM     12  C   UNL     1       8.899  10.089  18.472  0.00  0.00    +0.000 C 
ATOM     13  C   UNL     1       8.527   8.613  18.438  0.00  0.00    +0.000 C 
ENDBRANCH  11  13
ENDBRANCH   7  11
ENDBRANCH   6   8
BRANCH   6  14
ATOM     14  C   UNL     1       5.680   4.715  14.711  0.00  0.00    +0.000 C 
BRANCH  14  15
ATOM     15  C   UNL     1       6.405   3.982  13.556  0.00  0.00    +0.000 C 
ATOM     16  C   UNL     1       5.489   3.455  12.454  0.00  0.00    +0.000 C 
ATOM     17  C   UNL     1       7.441   4.918  12.924  0.00  0.00    +0.000 C 
ENDBRANCH  14  15
ENDBRANCH   6  14
ENDBRANCH   4   6
ENDBRANCH   1   4
BRANCH   1  18
ATOM     18  C   UNL     1       3.344   4.488  18.993  0.00  0.00    +0.000 C 
BRANCH  18  19
ATOM     19  N   UNL     1       3.124   5.912  19.152  0.00  0.00    +0.000 N 
ATOM     20  C   UNL     1       2.204   6.411  20.010  0.00  0.00    +0.000 C 
ATOM     21  O   UNL     1       1.524   5.728  20.760  0.00  0.00    +0.000 OA
ATOM     22  H   UNL     1       3.702   6.493  18.549  0.00  0.00    +0.000 HD
BRANCH  20  23
ATOM     23  O   UNL     1       2.070   7.751  19.845  0.00  0.00    +0.000 OA
BRANCH  23  24
ATOM     24  C   UNL     1       1.390   8.418  20.913  0.00  0.00    +0.000 C 
BRANCH  24  25
ATOM     25  C   UNL     1       0.513   9.533  20.407  0.00  0.00    +0.000 A 
ATOM     26  C   UNL     1      -0.211  10.336  21.293  0.00  0.00    +0.000 A 
ATOM     27  C   UNL     1      -0.984  11.399  20.821  0.00  0.00    +0.000 A 
ATOM     28  C   UNL     1      -1.045  11.665  19.453  0.00  0.00    +0.000 A 
ATOM     29  C   UNL     1      -0.342  10.862  18.560  0.00  0.00    +0.000 A 
ATOM     30  C   UNL     1       0.431   9.799  19.027  0.00  0.00    +0.000 A 
ENDBRANCH  24  25
ENDBRANCH  23  24
ENDBRANCH  20  23
ENDBRANCH  18  19
ENDBRANCH   1  18
TORSDOF 12
ENDMDL
