MODEL 1
REMARK VINA RESULT:      -8.0      0.000      0.000
REMARK  Name = 
REMARK  5 active torsions:
REMARK  status: ('A' for Active; 'I' for Inactive)
REMARK    1  A    between atoms: C_1  and  C_2
REMARK    2  A    between atoms: C_2  and  C_3
REMARK    3  A    between atoms: C_3  and  N_4
REMARK    4  A    between atoms: N_11  and  C_12
REMARK    5  A    between atoms: C_12  and  C_13
REMARK                            x       y       z     vdW  Elec       q    Type
REMARK                         _______ _______ _______ _____ _____    ______ ____
ROOT
ATOM      1  N   UNL     1       8.288   7.298  18.693  0.00  0.00    +0.000 N 
ATOM      2  C   UNL     1       7.542   6.301  18.069  0.00  0.00    +0.000 A 
ATOM      3  N   UNL     1       7.413   6.299  16.755  0.00  0.00    +0.000 NA
ATOM      4  C   UNL     1       6.634   5.331  16.302  0.00  0.00    +0.000 A 
ATOM      5 CL   UNL     1       6.445   5.256  14.606  0.00  0.00    +0.000 Cl
ATOM      6  N   UNL     1       5.970   4.424  16.999  0.00  0.00    +0.000 NA
ATOM      7  C   UNL     1       6.179   4.506  18.299  0.00  0.00    +0.000 A 
ATOM      8  N   UNL     1       5.530   3.638  19.162  0.00  0.00    +0.000 N 
ATOM      9  N   UNL     1       6.978   5.405  18.865  0.00  0.00    +0.000 NA
ATOM     10  H   UNL     1       7.991   7.325  19.664  0.00  0.00    +0.000 HD
ATOM     11  H   UNL     1       6.221   3.002  19.549  0.00  0.00    +0.000 HD
ENDROOT
BRANCH   1  12
ATOM     12  C   UNL     1       8.295   8.577  17.996  0.00  0.00    +0.000 C 
BRANCH  12  14
ATOM     13  C   UNL     1       9.472  10.802  18.082  0.00  0.00    +0.000 C 
ATOM     14  C   UNL     1       8.883   9.661  18.899  0.00  0.00    +0.000 C 
ENDBRANCH  12  14
ENDBRANCH   1  12
BRANCH   8  15
ATOM     15  C   UNL     1       4.350   2.971  18.639  0.00  0.00    +0.000 C 
BRANCH  15  16
ATOM     16  C   UNL     1       3.236   3.005  19.655  0.00  0.00    +0.000 A 
ATOM     17  C   UNL     1       1.919   3.354  19.328  0.00  0.00    +0.000 A 
ATOM     18  C   UNL     1       0.923   3.309  20.298  0.00  0.00    +0.000 A 
ATOM     19  C   UNL     1       1.270   2.898  21.572  0.00  0.00    +0.000 A 
ATOM     20  N   UNL     1       2.521   2.531  21.927  0.00  0.00    +0.000 NA
ATOM     21  C   UNL     1       3.468   2.585  20.963  0.00  0.00    +0.000 A 
ENDBRANCH  15  16
ENDBRANCH   8  15
TORSDOF 4
ENDMDL
MODEL 2
REMARK VINA RESULT:      -7.6      0.774      1.141
REMARK  Name = 
REMARK  5 active torsions:
REMARK  status: ('A' for Active; 'I' for Inactive)
REMARK    1  A    between atoms: C_1  and  C_2
REMARK    2  A    between atoms: C_2  and  C_3
REMARK    3  A    between atoms: C_3  and  N_4
REMARK    4  A    between atoms: N_11  and  C_12
REMARK    5  A    between atoms: C_12  and  C_13
REMARK                            x       y       z     vdW  Elec       q    Type
REMARK                         _______ _______ _______ _____ _____    ______ ____
ROOT
ATOM      1  N   UNL     1       8.300   7.451  18.703  0.00  0.00    +0.000 N 
ATOM      2  C   UNL     1       7.609   6.429  18.056  0.00  0.00    +0.000 A 
ATOM      3  N   UNL     1       7.532   6.416  16.738  0.00  0.00    +0.000 NA
ATOM      4  C   UNL     1       6.801   5.424  16.261  0.00  0.00    +0.000 A 
ATOM      5 CL   UNL     1       6.682   5.333  14.559  0.00  0.00    +0.000 Cl
ATOM      6  N   UNL     1       6.136   4.501  16.937  0.00  0.00    +0.000 NA
ATOM      7  C   UNL     1       6.290   4.596  18.243  0.00  0.00    +0.000 A 
ATOM      8  N   UNL     1       5.633   3.715  19.086  0.00  0.00    +0.000 N 
ATOM      9  N   UNL     1       7.040   5.521  18.835  0.00  0.00    +0.000 NA
ATOM     10  H   UNL     1       7.963   7.475  19.661  0.00  0.00    +0.000 HD
ATOM     11  H   UNL     1       6.326   3.101  19.504  0.00  0.00    +0.000 HD
ENDROOT
BRANCH   1  12
ATOM     12  C   UNL     1       8.298   8.726  17.998  0.00  0.00    +0.000 C 
BRANCH  12  14
ATOM     13  C   UNL     1       9.500  10.939  18.027  0.00  0.00    +0.000 C 
ATOM     14  C   UNL     1       8.933   9.807  18.872  0.00  0.00    +0.000 C 
ENDBRANCH  12  14
ENDBRANCH   1  12
BRANCH   8  15
ATOM     15  C   UNL     1       4.494   3.010  18.520  0.00  0.00    +0.000 C 
BRANCH  15  16
ATOM     16  C   UNL     1       3.299   3.132  19.431  0.00  0.00    +0.000 A 
ATOM     17  C   UNL     1       3.262   2.571  20.715  0.00  0.00    +0.000 A 
ATOM     18  C   UNL     1       2.153   2.768  21.531  0.00  0.00    +0.000 A 
ATOM     19  C   UNL     1       1.113   3.539  21.046  0.00  0.00    +0.000 A 
ATOM     20  N   UNL     1       1.115   4.119  19.825  0.00  0.00    +0.000 NA
ATOM     21  C   UNL     1       2.206   3.909  19.053  0.00  0.00    +0.000 A 
ENDBRANCH  15  16
ENDBRANCH   8  15
TORSDOF 4
ENDMDL
MODEL 3
REMARK VINA RESULT:      -7.3      0.971      1.166
REMARK  Name = 
REMARK  5 active torsions:
REMARK  status: ('A' for Active; 'I' for Inactive)
REMARK    1  A    between atoms: C_1  and  C_2
REMARK    2  A    between atoms: C_2  and  C_3
REMARK    3  A    between atoms: C_3  and  N_4
REMARK    4  A    between atoms: N_11  and  C_12
REMARK    5  A    between atoms: C_12  and  C_13
REMARK                            x       y       z     vdW  Elec       q    Type
REMARK                         _______ _______ _______ _____ _____    ______ ____
ROOT
ATOM      1  N   UNL     1       8.115   7.791  18.430  0.00  0.00    +0.000 N 
ATOM      2  C   UNL     1       7.506   6.651  17.907  0.00  0.00    +0.000 A 
ATOM      3  N   UNL     1       7.422   6.489  16.599  0.00  0.00    +0.000 NA
ATOM      4  C   UNL     1       6.772   5.394  16.243  0.00  0.00    +0.000 A 
ATOM      5 CL   UNL     1       6.650   5.110  14.563  0.00  0.00    +0.000 Cl
ATOM      6  N   UNL     1       6.190   4.500  17.025  0.00  0.00    +0.000 NA
ATOM      7  C   UNL     1       6.344   4.748  18.311  0.00  0.00    +0.000 A 
ATOM      8  N   UNL     1       5.768   3.913  19.254  0.00  0.00    +0.000 N 
ATOM      9  N   UNL     1       7.018   5.790  18.788  0.00  0.00    +0.000 NA
ATOM     10  H   UNL     1       7.783   7.891  19.384  0.00  0.00    +0.000 HD
ATOM     11  H   UNL     1       6.511   3.408  19.725  0.00  0.00    +0.000 HD
ENDROOT
BRANCH   1  12
ATOM     12  C   UNL     1       8.002   8.977  17.591  0.00  0.00    +0.000 C 
BRANCH  12  14
ATOM     13  C   UNL     1       9.147  10.039  19.567  0.00  0.00    +0.000 C 
ATOM     14  C   UNL     1       9.001  10.038  18.052  0.00  0.00    +0.000 C 
ENDBRANCH  12  14
ENDBRANCH   1  12
BRANCH   8  15
ATOM     15  C   UNL     1       4.687   3.061  18.785  0.00  0.00    +0.000 C 
BRANCH  15  16
ATOM     16  C   UNL     1       3.388   3.456  19.441  0.00  0.00    +0.000 A 
ATOM     17  C   UNL     1       3.158   4.736  19.963  0.00  0.00    +0.000 A 
ATOM     18  C   UNL     1       1.918   5.058  20.503  0.00  0.00    +0.000 A 
ATOM     19  C   UNL     1       0.929   4.091  20.490  0.00  0.00    +0.000 A 
ATOM     20  N   UNL     1       1.097   2.853  19.978  0.00  0.00    +0.000 NA
ATOM     21  C   UNL     1       2.315   2.568  19.460  0.00  0.00    +0.000 A 
ENDBRANCH  15  16
ENDBRANCH   8  15
TORSDOF 4
ENDMDL
MODEL 4
REMARK VINA RESULT:      -7.1      2.818      4.355
REMARK  Name = 
REMARK  5 active torsions:
REMARK  status: ('A' for Active; 'I' for Inactive)
REMARK    1  A    between atoms: C_1  and  C_2
REMARK    2  A    between atoms: C_2  and  C_3
REMARK    3  A    between atoms: C_3  and  N_4
REMARK    4  A    between atoms: N_11  and  C_12
REMARK    5  A    between atoms: C_12  and  C_13
REMARK                            x       y       z     vdW  Elec       q    Type
REMARK                         _______ _______ _______ _____ _____    ______ ____
ROOT
ATOM      1  N   UNL     1       6.196   5.605  14.453  0.00  0.00    +0.000 N 
ATOM      2  C   UNL     1       6.038   5.802  15.823  0.00  0.00    +0.000 A 
ATOM      3  N   UNL     1       7.048   5.573  16.642  0.00  0.00    +0.000 NA
ATOM      4  C   UNL     1       6.743   5.745  17.918  0.00  0.00    +0.000 A 
ATOM      5 CL   UNL     1       8.014   5.491  19.031  0.00  0.00    +0.000 Cl
ATOM      6  N   UNL     1       5.573   6.074  18.440  0.00  0.00    +0.000 NA
ATOM      7  C   UNL     1       4.638   6.292  17.536  0.00  0.00    +0.000 A 
ATOM      8  N   UNL     1       3.352   6.619  17.932  0.00  0.00    +0.000 N 
ATOM      9  N   UNL     1       4.839   6.198  16.225  0.00  0.00    +0.000 NA
ATOM     10  H   UNL     1       5.265   5.500  14.061  0.00  0.00    +0.000 HD
ATOM     11  H   UNL     1       3.181   7.589  17.684  0.00  0.00    +0.000 HD
ENDROOT
BRANCH   1  12
ATOM     12  C   UNL     1       7.156   4.570  14.095  0.00  0.00    +0.000 C 
BRANCH  12  14
ATOM     13  C   UNL     1       5.975   3.311  12.262  0.00  0.00    +0.000 C 
ATOM     14  C   UNL     1       7.089   4.293  12.593  0.00  0.00    +0.000 C 
ENDBRANCH  12  14
ENDBRANCH   1  12
BRANCH   8  15
ATOM     15  C   UNL     1       2.999   6.296  19.305  0.00  0.00    +0.000 C 
BRANCH  15  16
ATOM     16  C   UNL     1       2.237   4.995  19.356  0.00  0.00    +0.000 A 
ATOM     17  C   UNL     1       1.802   4.417  20.556  0.00  0.00    +0.000 A 
ATOM     18  C   UNL     1       1.053   3.245  20.535  0.00  0.00    +0.000 A 
ATOM     19  C   UNL     1       0.742   2.691  19.308  0.00  0.00    +0.000 A 
ATOM     20  N   UNL     1       1.121   3.224  18.126  0.00  0.00    +0.000 NA
ATOM     21  C   UNL     1       1.849   4.364  18.178  0.00  0.00    +0.000 A 
ENDBRANCH  15  16
ENDBRANCH   8  15
TORSDOF 4
ENDMDL
MODEL 5
REMARK VINA RESULT:      -7.0      2.691      4.143
REMARK  Name = 
REMARK  5 active torsions:
REMARK  status: ('A' for Active; 'I' for Inactive)
REMARK    1  A    between atoms: C_1  and  C_2
REMARK    2  A    between atoms: C_2  and  C_3
REMARK    3  A    between atoms: C_3  and  N_4
REMARK    4  A    between atoms: N_11  and  C_12
REMARK    5  A    between atoms: C_12  and  C_13
REMARK                            x       y       z     vdW  Elec       q    Type
REMARK                         _______ _______ _______ _____ _____    ______ ____
ROOT
ATOM      1  N   UNL     1       5.893   5.818  14.785  0.00  0.00    +0.000 N 
ATOM      2  C   UNL     1       5.748   5.953  16.165  0.00  0.00    +0.000 A 
ATOM      3  N   UNL     1       6.775   5.725  16.961  0.00  0.00    +0.000 NA
ATOM      4  C   UNL     1       6.482   5.835  18.246  0.00  0.00    +0.000 A 
ATOM      5 CL   UNL     1       7.776   5.577  19.333  0.00  0.00    +0.000 Cl
ATOM      6  N   UNL     1       5.309   6.103  18.796  0.00  0.00    +0.000 NA
ATOM      7  C   UNL     1       4.355   6.327  17.913  0.00  0.00    +0.000 A 
ATOM      8  N   UNL     1       3.065   6.595  18.338  0.00  0.00    +0.000 N 
ATOM      9  N   UNL     1       4.542   6.292  16.597  0.00  0.00    +0.000 NA
ATOM     10  H   UNL     1       4.961   5.697  14.401  0.00  0.00    +0.000 HD
ATOM     11  H   UNL     1       2.860   7.567  18.132  0.00  0.00    +0.000 HD
ENDROOT
BRANCH   1  12
ATOM     12  C   UNL     1       6.882   4.830  14.374  0.00  0.00    +0.000 C 
BRANCH  12  14
ATOM     13  C   UNL     1       6.460   3.614  12.210  0.00  0.00    +0.000 C 
ATOM     14  C   UNL     1       6.187   3.643  13.707  0.00  0.00    +0.000 C 
ENDBRANCH  12  14
ENDBRANCH   1  12
BRANCH   8  15
ATOM     15  C   UNL     1       2.741   6.205  19.700  0.00  0.00    +0.000 C 
BRANCH  15  16
ATOM     16  C   UNL     1       2.155   4.815  19.721  0.00  0.00    +0.000 A 
ATOM     17  C   UNL     1       1.604   4.205  18.586  0.00  0.00    +0.000 A 
ATOM     18  C   UNL     1       1.133   2.898  18.654  0.00  0.00    +0.000 A 
ATOM     19  C   UNL     1       1.243   2.227  19.857  0.00  0.00    +0.000 A 
ATOM     20  N   UNL     1       1.787   2.765  20.970  0.00  0.00    +0.000 NA
ATOM     21  C   UNL     1       2.236   4.038  20.874  0.00  0.00    +0.000 A 
ENDBRANCH  15  16
ENDBRANCH   8  15
TORSDOF 4
ENDMDL
MODEL 6
REMARK VINA RESULT:      -6.8      4.223      6.951
REMARK  Name = 
REMARK  5 active torsions:
REMARK  status: ('A' for Active; 'I' for Inactive)
REMARK    1  A    between atoms: C_1  and  C_2
REMARK    2  A    between atoms: C_2  and  C_3
REMARK    3  A    between atoms: C_3  and  N_4
REMARK    4  A    between atoms: N_11  and  C_12
REMARK    5  A    between atoms: C_12  and  C_13
REMARK                            x       y       z     vdW  Elec       q    Type
REMARK                         _______ _______ _______ _____ _____    ______ ____
ROOT
ATOM      1  N   UNL     1       1.416   8.451  20.484  0.00  0.00    +0.000 N 
ATOM      2  C   UNL     1       1.893   7.184  20.154  0.00  0.00    +0.000 A 
ATOM      3  N   UNL     1       1.557   6.140  20.890  0.00  0.00    +0.000 NA
ATOM      4  C   UNL     1       2.124   5.012  20.498  0.00  0.00    +0.000 A 
ATOM      5 CL   UNL     1       1.710   3.617  21.392  0.00  0.00    +0.000 Cl
ATOM      6  N   UNL     1       2.985   4.832  19.510  0.00  0.00    +0.000 NA
ATOM      7  C   UNL     1       3.242   5.933  18.831  0.00  0.00    +0.000 A 
ATOM      8  N   UNL     1       4.146   5.907  17.782  0.00  0.00    +0.000 N 
ATOM      9  N   UNL     1       2.695   7.115  19.101  0.00  0.00    +0.000 NA
ATOM     10  H   UNL     1       2.033   9.123  20.039  0.00  0.00    +0.000 HD
ATOM     11  H   UNL     1       3.631   6.036  16.917  0.00  0.00    +0.000 HD
ENDROOT
BRANCH   1  12
ATOM     12  C   UNL     1       1.173   8.656  21.905  0.00  0.00    +0.000 C 
BRANCH  12  14
ATOM     13  C   UNL     1      -0.371  10.596  22.348  0.00  0.00    +0.000 C 
ATOM     14  C   UNL     1      -0.274   9.093  22.130  0.00  0.00    +0.000 C 
ENDBRANCH  12  14
ENDBRANCH   1  12
BRANCH   8  15
ATOM     15  C   UNL     1       5.067   4.783  17.753  0.00  0.00    +0.000 C 
BRANCH  15  16
ATOM     16  C   UNL     1       5.783   4.728  16.427  0.00  0.00    +0.000 A 
ATOM     17  C   UNL     1       5.271   4.045  15.315  0.00  0.00    +0.000 A 
ATOM     18  C   UNL     1       5.949   4.079  14.101  0.00  0.00    +0.000 A 
ATOM     19  C   UNL     1       7.118   4.814  14.027  0.00  0.00    +0.000 A 
ATOM     20  N   UNL     1       7.637   5.506  15.064  0.00  0.00    +0.000 NA
ATOM     21  C   UNL     1       6.956   5.453  16.233  0.00  0.00    +0.000 A 
ENDBRANCH  15  16
ENDBRANCH   8  15
TORSDOF 4
ENDMDL
MODEL 7
REMARK VINA RESULT:      -6.7      2.006      2.266
REMARK  Name = 
REMARK  5 active torsions:
REMARK  status: ('A' for Active; 'I' for Inactive)
REMARK    1  A    between atoms: C_1  and  C_2
REMARK    2  A    between atoms: C_2  and  C_3
REMARK    3  A    between atoms: C_3  and  N_4
REMARK    4  A    between atoms: N_11  and  C_12
REMARK    5  A    between atoms: C_12  and  C_13
REMARK                            x       y       z     vdW  Elec       q    Type
REMARK                         _______ _______ _______ _____ _____    ______ ____
ROOT
ATOM      1  N   UNL     1       7.463   6.079  17.473  0.00  0.00    +0.000 N 
ATOM      2  C   UNL     1       6.078   5.956  17.382  0.00  0.00    +0.000 A 
ATOM      3  N   UNL     1       5.310   7.019  17.540  0.00  0.00    +0.000 NA
ATOM      4  C   UNL     1       4.016   6.749  17.484  0.00  0.00    +0.000 A 
ATOM      5 CL   UNL     1       2.966   8.086  17.655  0.00  0.00    +0.000 Cl
ATOM      6  N   UNL     1       3.434   5.571  17.330  0.00  0.00    +0.000 NA
ATOM      7  C   UNL     1       4.290   4.580  17.168  0.00  0.00    +0.000 A 
ATOM      8  N   UNL     1       3.829   3.283  17.021  0.00  0.00    +0.000 N 
ATOM      9  N   UNL     1       5.610   4.737  17.157  0.00  0.00    +0.000 NA
ATOM     10  H   UNL     1       7.829   5.151  17.664  0.00  0.00    +0.000 HD
ATOM     11  H   UNL     1       4.007   2.991  16.065  0.00  0.00    +0.000 HD
ENDROOT
BRANCH   1  12
ATOM     12  C   UNL     1       7.921   7.137  18.363  0.00  0.00    +0.000 C 
BRANCH  12  14
ATOM     13  C   UNL     1       8.656   9.544  18.458  0.00  0.00    +0.000 C 
ATOM     14  C   UNL     1       8.062   8.446  17.587  0.00  0.00    +0.000 C 
ENDBRANCH  12  14
ENDBRANCH   1  12
BRANCH   8  15
ATOM     15  C   UNL     1       2.470   3.027  17.468  0.00  0.00    +0.000 C 
BRANCH  15  16
ATOM     16  C   UNL     1       2.410   3.009  18.975  0.00  0.00    +0.000 A 
ATOM     17  C   UNL     1       1.301   3.470  19.697  0.00  0.00    +0.000 A 
ATOM     18  C   UNL     1       1.281   3.373  21.084  0.00  0.00    +0.000 A 
ATOM     19  C   UNL     1       2.369   2.798  21.715  0.00  0.00    +0.000 A 
ATOM     20  N   UNL     1       3.449   2.320  21.059  0.00  0.00    +0.000 NA
ATOM     21  C   UNL     1       3.441   2.429  19.710  0.00  0.00    +0.000 A 
ENDBRANCH  15  16
ENDBRANCH   8  15
TORSDOF 4
ENDMDL
MODEL 8
REMARK VINA RESULT:      -6.7      3.798      8.668
REMARK  Name = 
REMARK  5 active torsions:
REMARK  status: ('A' for Active; 'I' for Inactive)
REMARK    1  A    between atoms: C_1  and  C_2
REMARK    2  A    between atoms: C_2  and  C_3
REMARK    3  A    between atoms: C_3  and  N_4
REMARK    4  A    between atoms: N_11  and  C_12
REMARK    5  A    between atoms: C_12  and  C_13
REMARK                            x       y       z     vdW  Elec       q    Type
REMARK                         _______ _______ _______ _____ _____    ______ ____
ROOT
ATOM      1  N   UNL     1       5.850   6.562  16.075  0.00  0.00    +0.000 N 
ATOM      2  C   UNL     1       6.800   6.839  17.056  0.00  0.00    +0.000 A 
ATOM      3  N   UNL     1       7.114   5.918  17.948  0.00  0.00    +0.000 NA
ATOM      4  C   UNL     1       7.986   6.334  18.852  0.00  0.00    +0.000 A 
ATOM      5 CL   UNL     1       8.455   5.182  20.022  0.00  0.00    +0.000 Cl
ATOM      6  N   UNL     1       8.526   7.535  18.972  0.00  0.00    +0.000 NA
ATOM      7  C   UNL     1       8.157   8.374  18.024  0.00  0.00    +0.000 A 
ATOM      8  N   UNL     1       8.621   9.679  18.032  0.00  0.00    +0.000 N 
ATOM      9  N   UNL     1       7.325   8.055  17.036  0.00  0.00    +0.000 NA
ATOM     10  H   UNL     1       5.513   7.456  15.729  0.00  0.00    +0.000 HD
ATOM     11  H   UNL     1       9.263   9.791  17.253  0.00  0.00    +0.000 HD
ENDROOT
BRANCH   1  12
ATOM     12  C   UNL     1       4.824   5.610  16.477  0.00  0.00    +0.000 C 
BRANCH  12  14
ATOM     13  C   UNL     1       5.785   4.422  14.475  0.00  0.00    +0.000 C 
ATOM     14  C   UNL     1       5.079   4.257  15.813  0.00  0.00    +0.000 C 
ENDBRANCH  12  14
ENDBRANCH   1  12
BRANCH   8  15
ATOM     15  C   UNL     1       9.144  10.169  19.296  0.00  0.00    +0.000 C 
BRANCH  15  16
ATOM     16  C   UNL     1      10.210  11.208  19.053  0.00  0.00    +0.000 A 
ATOM     17  C   UNL     1      10.945  11.800  20.090  0.00  0.00    +0.000 A 
ATOM     18  C   UNL     1      11.956  12.709  19.798  0.00  0.00    +0.000 A 
ATOM     19  C   UNL     1      12.219  12.989  18.470  0.00  0.00    +0.000 A 
ATOM     20  N   UNL     1      11.554  12.426  17.438  0.00  0.00    +0.000 NA
ATOM     21  C   UNL     1      10.575  11.547  17.752  0.00  0.00    +0.000 A 
ENDBRANCH  15  16
ENDBRANCH   8  15
TORSDOF 4
ENDMDL
MODEL 9
REMARK VINA RESULT:      -6.6      3.824      8.615
REMARK  Name = 
REMARK  5 active torsions:
REMARK  status: ('A' for Active; 'I' for Inactive)
REMARK    1  A    between atoms: C_1  and  C_2
REMARK    2  A    between atoms: C_2  and  C_3
REMARK    3  A    between atoms: C_3  and  N_4
REMARK    4  A    between atoms: N_11  and  C_12
REMARK    5  A    between atoms: C_12  and  C_13
REMARK                            x       y       z     vdW  Elec       q    Type
REMARK                         _______ _______ _______ _____ _____    ______ ____
ROOT
ATOM      1  N   UNL     1       5.986   6.400  15.987  0.00  0.00    +0.000 N 
ATOM      2  C   UNL     1       6.878   6.737  17.004  0.00  0.00    +0.000 A 
ATOM      3  N   UNL     1       7.150   5.866  17.957  0.00  0.00    +0.000 NA
ATOM      4  C   UNL     1       7.966   6.336  18.886  0.00  0.00    +0.000 A 
ATOM      5 CL   UNL     1       8.381   5.249  20.136  0.00  0.00    +0.000 Cl
ATOM      6  N   UNL     1       8.488   7.549  18.975  0.00  0.00    +0.000 NA
ATOM      7  C   UNL     1       8.164   8.335  17.967  0.00  0.00    +0.000 A 
ATOM      8  N   UNL     1       8.614   9.644  17.935  0.00  0.00    +0.000 N 
ATOM      9  N   UNL     1       7.391   7.958  16.952  0.00  0.00    +0.000 NA
ATOM     10  H   UNL     1       5.661   7.272  15.579  0.00  0.00    +0.000 HD
ATOM     11  H   UNL     1       9.297   9.725  17.188  0.00  0.00    +0.000 HD
ENDROOT
BRANCH   1  12
ATOM     12  C   UNL     1       4.948   5.457  16.379  0.00  0.00    +0.000 C 
BRANCH  12  14
ATOM     13  C   UNL     1       5.852   4.304  14.330  0.00  0.00    +0.000 C 
ATOM     14  C   UNL     1       5.169   4.117  15.678  0.00  0.00    +0.000 C 
ENDBRANCH  12  14
ENDBRANCH   1  12
BRANCH   8  15
ATOM     15  C   UNL     1       9.062  10.202  19.200  0.00  0.00    +0.000 C 
BRANCH  15  16
ATOM     16  C   UNL     1      10.204  11.161  18.974  0.00  0.00    +0.000 A 
ATOM     17  C   UNL     1      10.567  11.623  17.702  0.00  0.00    +0.000 A 
ATOM     18  C   UNL     1      11.593  12.552  17.563  0.00  0.00    +0.000 A 
ATOM     19  C   UNL     1      12.217  13.012  18.707  0.00  0.00    +0.000 A 
ATOM     20  N   UNL     1      11.885  12.613  19.955  0.00  0.00    +0.000 NA
ATOM     21  C   UNL     1      10.885  11.707  20.058  0.00  0.00    +0.000 A 
ENDBRANCH  15  16
ENDBRANCH   8  15
TORSDOF 4
ENDMDL
