MODEL 1
REMARK VINA RESULT:      -6.5      0.000      0.000
REMARK  Name = 
REMARK  6 active torsions:
REMARK  status: ('A' for Active; 'I' for Inactive)
REMARK    1  A    between atoms: C_1  and  C_2
REMARK    2  A    between atoms: C_2  and  O_3
REMARK    3  A    between atoms: O_3  and  C_4
REMARK    4  A    between atoms: C_4  and  C_6
REMARK    5  A    between atoms: C_7  and  C_8
REMARK    6  A    between atoms: C_9  and  C_10
REMARK                            x       y       z     vdW  Elec       q    Type
REMARK                         _______ _______ _______ _____ _____    ______ ____
ROOT
ATOM      1  C   UNL     1       3.908   3.516  19.158  0.00  0.00    +0.000 A 
ATOM      2  C   UNL     1       2.717   4.152  19.172  0.00  0.00    +0.000 A 
ATOM      3  C   UNL     1       2.242   5.136  18.136  0.00  0.00    +0.000 C 
ATOM      4  N   UNL     1       1.812   3.903  20.178  0.00  0.00    +0.000 N 
ATOM      5  C   UNL     1       2.009   3.023  21.201  0.00  0.00    +0.000 A 
ATOM      6  O   UNL     1       1.161   2.839  22.068  0.00  0.00    +0.000 OA
ATOM      7  N   UNL     1       3.199   2.362  21.191  0.00  0.00    +0.000 N 
ATOM      8  C   UNL     1       4.166   2.503  20.240  0.00  0.00    +0.000 A 
ATOM      9  O   UNL     1       5.197   1.836  20.276  0.00  0.00    +0.000 OA
ATOM     10  H   UNL     1       0.918   4.380  20.191  0.00  0.00    +0.000 HD
ATOM     11  H   UNL     1       3.359   1.689  21.923  0.00  0.00    +0.000 HD
ENDROOT
BRANCH   1  13
ATOM     12  C   UNL     1       5.980   4.539  18.313  0.00  0.00    +0.000 C 
ATOM     13  C   UNL     1       4.938   3.713  18.154  0.00  0.00    +0.000 C 
BRANCH  12  14
ATOM     14  C   UNL     1       6.992   4.667  17.251  0.00  0.00    +0.000 C 
ATOM     15  O   UNL     1       8.133   4.236  17.308  0.00  0.00    +0.000 OA
BRANCH  14  16
ATOM     16  O   UNL     1       6.440   5.393  16.250  0.00  0.00    +0.000 OA
BRANCH  16  18
ATOM     17  C   UNL     1       5.763   4.091  14.369  0.00  0.00    +0.000 C 
ATOM     18  C   UNL     1       6.837   5.005  14.930  0.00  0.00    +0.000 C 
ENDBRANCH  16  18
ENDBRANCH  14  16
ENDBRANCH  12  14
ENDBRANCH   1  13
TORSDOF 4
ENDMDL
MODEL 2
REMARK VINA RESULT:      -6.4      1.508      1.998
REMARK  Name = 
REMARK  6 active torsions:
REMARK  status: ('A' for Active; 'I' for Inactive)
REMARK    1  A    between atoms: C_1  and  C_2
REMARK    2  A    between atoms: C_2  and  O_3
REMARK    3  A    between atoms: O_3  and  C_4
REMARK    4  A    between atoms: C_4  and  C_6
REMARK    5  A    between atoms: C_7  and  C_8
REMARK    6  A    between atoms: C_9  and  C_10
REMARK                            x       y       z     vdW  Elec       q    Type
REMARK                         _______ _______ _______ _____ _____    ______ ____
ROOT
ATOM      1  C   UNL     1       4.126   3.860  19.155  0.00  0.00    +0.000 A 
ATOM      2  C   UNL     1       2.950   4.511  19.031  0.00  0.00    +0.000 A 
ATOM      3  C   UNL     1       2.666   5.620  18.052  0.00  0.00    +0.000 C 
ATOM      4  N   UNL     1       1.879   4.159  19.820  0.00  0.00    +0.000 N 
ATOM      5  C   UNL     1       1.890   3.160  20.748  0.00  0.00    +0.000 A 
ATOM      6  O   UNL     1       0.900   2.888  21.419  0.00  0.00    +0.000 OA
ATOM      7  N   UNL     1       3.066   2.484  20.872  0.00  0.00    +0.000 N 
ATOM      8  C   UNL     1       4.189   2.721  20.135  0.00  0.00    +0.000 A 
ATOM      9  O   UNL     1       5.198   2.036  20.276  0.00  0.00    +0.000 OA
ATOM     10  H   UNL     1       0.995   4.647  19.729  0.00  0.00    +0.000 HD
ATOM     11  H   UNL     1       3.093   1.725  21.534  0.00  0.00    +0.000 HD
ENDROOT
BRANCH   1  13
ATOM     12  C   UNL     1       6.302   4.958  18.817  0.00  0.00    +0.000 C 
ATOM     13  C   UNL     1       5.320   4.157  18.384  0.00  0.00    +0.000 C 
BRANCH  12  14
ATOM     14  C   UNL     1       7.490   5.192  17.980  0.00  0.00    +0.000 C 
ATOM     15  O   UNL     1       7.988   4.380  17.218  0.00  0.00    +0.000 OA
BRANCH  14  16
ATOM     16  O   UNL     1       7.947   6.436  18.264  0.00  0.00    +0.000 OA
BRANCH  16  18
ATOM     17  C   UNL     1       8.047   8.787  17.868  0.00  0.00    +0.000 C 
ATOM     18  C   UNL     1       7.358   7.488  17.490  0.00  0.00    +0.000 C 
ENDBRANCH  16  18
ENDBRANCH  14  16
ENDBRANCH  12  14
ENDBRANCH   1  13
TORSDOF 4
ENDMDL
MODEL 3
REMARK VINA RESULT:      -6.4      1.075      1.816
REMARK  Name = 
REMARK  6 active torsions:
REMARK  status: ('A' for Active; 'I' for Inactive)
REMARK    1  A    between atoms: C_1  and  C_2
REMARK    2  A    between atoms: C_2  and  O_3
REMARK    3  A    between atoms: O_3  and  C_4
REMARK    4  A    between atoms: C_4  and  C_6
REMARK    5  A    between atoms: C_7  and  C_8
REMARK    6  A    between atoms: C_9  and  C_10
REMARK                            x       y       z     vdW  Elec       q    Type
REMARK                         _______ _______ _______ _____ _____    ______ ____
ROOT
ATOM      1  C   UNL     1       3.477   3.130  18.916  0.00  0.00    +0.000 A 
ATOM      2  C   UNL     1       2.195   3.553  18.932  0.00  0.00    +0.000 A 
ATOM      3  C   UNL     1       1.470   4.181  17.771  0.00  0.00    +0.000 C 
ATOM      4  N   UNL     1       1.431   3.403  20.066  0.00  0.00    +0.000 N 
ATOM      5  C   UNL     1       1.863   2.827  21.225  0.00  0.00    +0.000 A 
ATOM      6  O   UNL     1       1.133   2.715  22.203  0.00  0.00    +0.000 OA
ATOM      7  N   UNL     1       3.150   2.380  21.217  0.00  0.00    +0.000 N 
ATOM      8  C   UNL     1       3.998   2.450  20.153  0.00  0.00    +0.000 A 
ATOM      9  O   UNL     1       5.133   1.983  20.211  0.00  0.00    +0.000 OA
ATOM     10  H   UNL     1       0.469   3.721  20.080  0.00  0.00    +0.000 HD
ATOM     11  H   UNL     1       3.485   1.930  22.053  0.00  0.00    +0.000 HD
ENDROOT
BRANCH   1  13
ATOM     12  C   UNL     1       5.158   4.314  17.564  0.00  0.00    +0.000 C 
ATOM     13  C   UNL     1       4.374   3.251  17.780  0.00  0.00    +0.000 C 
BRANCH  12  14
ATOM     14  C   UNL     1       6.054   4.349  16.396  0.00  0.00    +0.000 C 
ATOM     15  O   UNL     1       5.980   3.610  15.428  0.00  0.00    +0.000 OA
BRANCH  14  16
ATOM     16  O   UNL     1       6.990   5.299  16.632  0.00  0.00    +0.000 OA
BRANCH  16  18
ATOM     17  C   UNL     1       7.825   6.791  18.296  0.00  0.00    +0.000 C 
ATOM     18  C   UNL     1       7.476   5.349  17.979  0.00  0.00    +0.000 C 
ENDBRANCH  16  18
ENDBRANCH  14  16
ENDBRANCH  12  14
ENDBRANCH   1  13
TORSDOF 4
ENDMDL
MODEL 4
REMARK VINA RESULT:      -6.3      3.360      5.720
REMARK  Name = 
REMARK  6 active torsions:
REMARK  status: ('A' for Active; 'I' for Inactive)
REMARK    1  A    between atoms: C_1  and  C_2
REMARK    2  A    between atoms: C_2  and  O_3
REMARK    3  A    between atoms: O_3  and  C_4
REMARK    4  A    between atoms: C_4  and  C_6
REMARK    5  A    between atoms: C_7  and  C_8
REMARK    6  A    between atoms: C_9  and  C_10
REMARK                            x       y       z     vdW  Elec       q    Type
REMARK                         _______ _______ _______ _____ _____    ______ ____
ROOT
ATOM      1  C   UNL     1       6.516   5.561  18.107  0.00  0.00    +0.000 A 
ATOM      2  C   UNL     1       6.249   6.444  17.122  0.00  0.00    +0.000 A 
ATOM      3  C   UNL     1       5.185   6.280  16.069  0.00  0.00    +0.000 C 
ATOM      4  N   UNL     1       6.959   7.620  17.036  0.00  0.00    +0.000 N 
ATOM      5  C   UNL     1       7.942   8.000  17.902  0.00  0.00    +0.000 A 
ATOM      6  O   UNL     1       8.537   9.065  17.777  0.00  0.00    +0.000 OA
ATOM      7  N   UNL     1       8.210   7.126  18.911  0.00  0.00    +0.000 N 
ATOM      8  C   UNL     1       7.563   5.943  19.117  0.00  0.00    +0.000 A 
ATOM      9  O   UNL     1       7.834   5.229  20.079  0.00  0.00    +0.000 OA
ATOM     10  H   UNL     1       6.761   8.284  16.297  0.00  0.00    +0.000 HD
ATOM     11  H   UNL     1       8.916   7.395  19.577  0.00  0.00    +0.000 HD
ENDROOT
BRANCH   1  13
ATOM     12  C   UNL     1       4.690   4.147  18.957  0.00  0.00    +0.000 C 
ATOM     13  C   UNL     1       5.838   4.289  18.283  0.00  0.00    +0.000 C 
BRANCH  12  14
ATOM     14  C   UNL     1       4.058   2.823  19.074  0.00  0.00    +0.000 C 
ATOM     15  O   UNL     1       4.282   2.009  19.955  0.00  0.00    +0.000 OA
BRANCH  14  16
ATOM     16  O   UNL     1       3.247   2.665  18.001  0.00  0.00    +0.000 OA
BRANCH  16  18
ATOM     17  C   UNL     1       0.991   2.531  18.768  0.00  0.00    +0.000 C 
ATOM     18  C   UNL     1       2.016   3.397  18.059  0.00  0.00    +0.000 C 
ENDBRANCH  16  18
ENDBRANCH  14  16
ENDBRANCH  12  14
ENDBRANCH   1  13
TORSDOF 4
ENDMDL
MODEL 5
REMARK VINA RESULT:      -6.3      1.870      2.053
REMARK  Name = 
REMARK  6 active torsions:
REMARK  status: ('A' for Active; 'I' for Inactive)
REMARK    1  A    between atoms: C_1  and  C_2
REMARK    2  A    between atoms: C_2  and  O_3
REMARK    3  A    between atoms: O_3  and  C_4
REMARK    4  A    between atoms: C_4  and  C_6
REMARK    5  A    between atoms: C_7  and  C_8
REMARK    6  A    between atoms: C_9  and  C_10
REMARK                            x       y       z     vdW  Elec       q    Type
REMARK                         _______ _______ _______ _____ _____    ______ ____
ROOT
ATOM      1  C   UNL     1       3.654   3.630  17.893  0.00  0.00    +0.000 A 
ATOM      2  C   UNL     1       2.627   4.476  18.117  0.00  0.00    +0.000 A 
ATOM      3  C   UNL     1       2.680   5.972  17.960  0.00  0.00    +0.000 C 
ATOM      4  N   UNL     1       1.399   3.986  18.499  0.00  0.00    +0.000 N 
ATOM      5  C   UNL     1       1.106   2.665  18.666  0.00  0.00    +0.000 A 
ATOM      6  O   UNL     1      -0.012   2.288  19.004  0.00  0.00    +0.000 OA
ATOM      7  N   UNL     1       2.128   1.799  18.427  0.00  0.00    +0.000 N 
ATOM      8  C   UNL     1       3.381   2.156  18.023  0.00  0.00    +0.000 A 
ATOM      9  O   UNL     1       4.238   1.310  17.784  0.00  0.00    +0.000 OA
ATOM     10  H   UNL     1       0.627   4.620  18.669  0.00  0.00    +0.000 HD
ATOM     11  H   UNL     1       1.931   0.816  18.521  0.00  0.00    +0.000 HD
ENDROOT
BRANCH   1  13
ATOM     12  C   UNL     1       5.449   3.965  16.243  0.00  0.00    +0.000 C 
ATOM     13  C   UNL     1       4.991   4.038  17.499  0.00  0.00    +0.000 C 
BRANCH  12  14
ATOM     14  C   UNL     1       6.813   4.417  15.924  0.00  0.00    +0.000 C 
ATOM     15  O   UNL     1       7.614   4.867  16.729  0.00  0.00    +0.000 OA
BRANCH  14  16
ATOM     16  O   UNL     1       6.977   4.298  14.585  0.00  0.00    +0.000 OA
BRANCH  16  18
ATOM     17  C   UNL     1       6.214   3.467  12.483  0.00  0.00    +0.000 C 
ATOM     18  C   UNL     1       5.793   3.950  13.859  0.00  0.00    +0.000 C 
ENDBRANCH  16  18
ENDBRANCH  14  16
ENDBRANCH  12  14
ENDBRANCH   1  13
TORSDOF 4
ENDMDL
MODEL 6
REMARK VINA RESULT:      -6.3      1.954      2.596
REMARK  Name = 
REMARK  6 active torsions:
REMARK  status: ('A' for Active; 'I' for Inactive)
REMARK    1  A    between atoms: C_1  and  C_2
REMARK    2  A    between atoms: C_2  and  O_3
REMARK    3  A    between atoms: O_3  and  C_4
REMARK    4  A    between atoms: C_4  and  C_6
REMARK    5  A    between atoms: C_7  and  C_8
REMARK    6  A    between atoms: C_9  and  C_10
REMARK                            x       y       z     vdW  Elec       q    Type
REMARK                         _______ _______ _______ _____ _____    ______ ____
ROOT
ATOM      1  C   UNL     1       3.369   5.002  19.022  0.00  0.00    +0.000 A 
ATOM      2  C   UNL     1       2.616   5.620  19.956  0.00  0.00    +0.000 A 
ATOM      3  C   UNL     1       2.197   7.066  19.920  0.00  0.00    +0.000 C 
ATOM      4  N   UNL     1       2.142   4.916  21.039  0.00  0.00    +0.000 N 
ATOM      5  C   UNL     1       2.361   3.589  21.261  0.00  0.00    +0.000 A 
ATOM      6  O   UNL     1       1.908   3.013  22.245  0.00  0.00    +0.000 OA
ATOM      7  N   UNL     1       3.106   2.948  20.318  0.00  0.00    +0.000 N 
ATOM      8  C   UNL     1       3.612   3.527  19.192  0.00  0.00    +0.000 A 
ATOM      9  O   UNL     1       4.238   2.870  18.364  0.00  0.00    +0.000 OA
ATOM     10  H   UNL     1       1.577   5.379  21.742  0.00  0.00    +0.000 HD
ATOM     11  H   UNL     1       3.263   1.962  20.446  0.00  0.00    +0.000 HD
ENDROOT
BRANCH   1  13
ATOM     12  C   UNL     1       5.242   5.836  17.660  0.00  0.00    +0.000 C 
ATOM     13  C   UNL     1       3.929   5.650  17.849  0.00  0.00    +0.000 C 
BRANCH  12  14
ATOM     14  C   UNL     1       5.728   6.487  16.433  0.00  0.00    +0.000 C 
ATOM     15  O   UNL     1       5.040   6.779  15.468  0.00  0.00    +0.000 OA
BRANCH  14  16
ATOM     16  O   UNL     1       7.068   6.637  16.557  0.00  0.00    +0.000 OA
BRANCH  16  18
ATOM     17  C   UNL     1       7.936   8.530  17.723  0.00  0.00    +0.000 C 
ATOM     18  C   UNL     1       7.511   7.078  17.846  0.00  0.00    +0.000 C 
ENDBRANCH  16  18
ENDBRANCH  14  16
ENDBRANCH  12  14
ENDBRANCH   1  13
TORSDOF 4
ENDMDL
MODEL 7
REMARK VINA RESULT:      -6.3      3.298      5.951
REMARK  Name = 
REMARK  6 active torsions:
REMARK  status: ('A' for Active; 'I' for Inactive)
REMARK    1  A    between atoms: C_1  and  C_2
REMARK    2  A    between atoms: C_2  and  O_3
REMARK    3  A    between atoms: O_3  and  C_4
REMARK    4  A    between atoms: C_4  and  C_6
REMARK    5  A    between atoms: C_7  and  C_8
REMARK    6  A    between atoms: C_9  and  C_10
REMARK                            x       y       z     vdW  Elec       q    Type
REMARK                         _______ _______ _______ _____ _____    ______ ____
ROOT
ATOM      1  C   UNL     1       6.418   5.560  18.069  0.00  0.00    +0.000 A 
ATOM      2  C   UNL     1       6.200   6.455  17.083  0.00  0.00    +0.000 A 
ATOM      3  C   UNL     1       5.152   6.332  16.009  0.00  0.00    +0.000 C 
ATOM      4  N   UNL     1       6.952   7.606  17.015  0.00  0.00    +0.000 N 
ATOM      5  C   UNL     1       7.930   7.950  17.901  0.00  0.00    +0.000 A 
ATOM      6  O   UNL     1       8.564   8.994  17.792  0.00  0.00    +0.000 OA
ATOM      7  N   UNL     1       8.149   7.063  18.912  0.00  0.00    +0.000 N 
ATOM      8  C   UNL     1       7.459   5.903  19.100  0.00  0.00    +0.000 A 
ATOM      9  O   UNL     1       7.686   5.177  20.064  0.00  0.00    +0.000 OA
ATOM     10  H   UNL     1       6.791   8.279  16.275  0.00  0.00    +0.000 HD
ATOM     11  H   UNL     1       8.851   7.305  19.592  0.00  0.00    +0.000 HD
ENDROOT
BRANCH   1  13
ATOM     12  C   UNL     1       4.544   4.201  18.904  0.00  0.00    +0.000 C 
ATOM     13  C   UNL     1       5.694   4.311  18.227  0.00  0.00    +0.000 C 
BRANCH  12  14
ATOM     14  C   UNL     1       3.863   2.900  19.001  0.00  0.00    +0.000 C 
ATOM     15  O   UNL     1       3.805   2.065  18.112  0.00  0.00    +0.000 OA
BRANCH  14  16
ATOM     16  O   UNL     1       3.275   2.840  20.220  0.00  0.00    +0.000 OA
BRANCH  16  18
ATOM     17  C   UNL     1       1.114   3.786  20.574  0.00  0.00    +0.000 C 
ATOM     18  C   UNL     1       1.877   2.528  20.203  0.00  0.00    +0.000 C 
ENDBRANCH  16  18
ENDBRANCH  14  16
ENDBRANCH  12  14
ENDBRANCH   1  13
TORSDOF 4
ENDMDL
MODEL 8
REMARK VINA RESULT:      -6.3      1.815      2.510
REMARK  Name = 
REMARK  6 active torsions:
REMARK  status: ('A' for Active; 'I' for Inactive)
REMARK    1  A    between atoms: C_1  and  C_2
REMARK    2  A    between atoms: C_2  and  O_3
REMARK    3  A    between atoms: O_3  and  C_4
REMARK    4  A    between atoms: C_4  and  C_6
REMARK    5  A    between atoms: C_7  and  C_8
REMARK    6  A    between atoms: C_9  and  C_10
REMARK                            x       y       z     vdW  Elec       q    Type
REMARK                         _______ _______ _______ _____ _____    ______ ____
ROOT
ATOM      1  C   UNL     1       3.296   4.622  18.704  0.00  0.00    +0.000 A 
ATOM      2  C   UNL     1       3.222   3.293  18.921  0.00  0.00    +0.000 A 
ATOM      3  C   UNL     1       3.683   2.226  17.963  0.00  0.00    +0.000 C 
ATOM      4  N   UNL     1       2.716   2.813  20.108  0.00  0.00    +0.000 N 
ATOM      5  C   UNL     1       2.276   3.592  21.137  0.00  0.00    +0.000 A 
ATOM      6  O   UNL     1       1.840   3.105  22.175  0.00  0.00    +0.000 OA
ATOM      7  N   UNL     1       2.360   4.936  20.938  0.00  0.00    +0.000 N 
ATOM      8  C   UNL     1       2.862   5.533  19.819  0.00  0.00    +0.000 A 
ATOM      9  O   UNL     1       2.945   6.756  19.734  0.00  0.00    +0.000 OA
ATOM     10  H   UNL     1       2.659   1.815  20.273  0.00  0.00    +0.000 HD
ATOM     11  H   UNL     1       2.063   5.533  21.693  0.00  0.00    +0.000 HD
ENDROOT
BRANCH   1  13
ATOM     12  C   UNL     1       5.084   5.562  17.298  0.00  0.00    +0.000 C 
ATOM     13  C   UNL     1       3.799   5.235  17.487  0.00  0.00    +0.000 C 
BRANCH  12  14
ATOM     14  C   UNL     1       5.516   6.163  16.025  0.00  0.00    +0.000 C 
ATOM     15  O   UNL     1       4.876   6.974  15.375  0.00  0.00    +0.000 OA
BRANCH  14  16
ATOM     16  O   UNL     1       6.705   5.605  15.696  0.00  0.00    +0.000 OA
BRANCH  16  18
ATOM     17  C   UNL     1       6.154   3.954  14.064  0.00  0.00    +0.000 C 
ATOM     18  C   UNL     1       6.669   4.190  15.472  0.00  0.00    +0.000 C 
ENDBRANCH  16  18
ENDBRANCH  14  16
ENDBRANCH  12  14
ENDBRANCH   1  13
TORSDOF 4
ENDMDL
MODEL 9
REMARK VINA RESULT:      -6.3      1.700      1.897
REMARK  Name = 
REMARK  6 active torsions:
REMARK  status: ('A' for Active; 'I' for Inactive)
REMARK    1  A    between atoms: C_1  and  C_2
REMARK    2  A    between atoms: C_2  and  O_3
REMARK    3  A    between atoms: O_3  and  C_4
REMARK    4  A    between atoms: C_4  and  C_6
REMARK    5  A    between atoms: C_7  and  C_8
REMARK    6  A    between atoms: C_9  and  C_10
REMARK                            x       y       z     vdW  Elec       q    Type
REMARK                         _______ _______ _______ _____ _____    ______ ____
ROOT
ATOM      1  C   UNL     1       2.989   4.179  18.653  0.00  0.00    +0.000 A 
ATOM      2  C   UNL     1       2.575   4.994  19.646  0.00  0.00    +0.000 A 
ATOM      3  C   UNL     1       2.559   6.499  19.589  0.00  0.00    +0.000 C 
ATOM      4  N   UNL     1       2.097   4.463  20.822  0.00  0.00    +0.000 N 
ATOM      5  C   UNL     1       1.982   3.130  21.084  0.00  0.00    +0.000 A 
ATOM      6  O   UNL     1       1.541   2.716  22.151  0.00  0.00    +0.000 OA
ATOM      7  N   UNL     1       2.379   2.296  20.084  0.00  0.00    +0.000 N 
ATOM      8  C   UNL     1       2.849   2.696  18.868  0.00  0.00    +0.000 A 
ATOM      9  O   UNL     1       3.146   1.880  18.000  0.00  0.00    +0.000 OA
ATOM     10  H   UNL     1       1.787   5.073  21.570  0.00  0.00    +0.000 HD
ATOM     11  H   UNL     1       2.282   1.306  20.244  0.00  0.00    +0.000 HD
ENDROOT
BRANCH   1  13
ATOM     12  C   UNL     1       4.822   4.862  17.161  0.00  0.00    +0.000 C 
ATOM     13  C   UNL     1       3.522   4.631  17.380  0.00  0.00    +0.000 C 
BRANCH  12  14
ATOM     14  C   UNL     1       5.283   5.302  15.833  0.00  0.00    +0.000 C 
ATOM     15  O   UNL     1       5.407   6.463  15.478  0.00  0.00    +0.000 OA
BRANCH  14  16
ATOM     16  O   UNL     1       5.476   4.191  15.083  0.00  0.00    +0.000 OA
BRANCH  16  18
ATOM     17  C   UNL     1       5.977   3.572  12.834  0.00  0.00    +0.000 C 
ATOM     18  C   UNL     1       6.471   4.317  14.060  0.00  0.00    +0.000 C 
ENDBRANCH  16  18
ENDBRANCH  14  16
ENDBRANCH  12  14
ENDBRANCH   1  13
TORSDOF 4
ENDMDL
