MODEL 1
REMARK VINA RESULT:      -7.9      0.000      0.000
REMARK  Name = 
REMARK  6 active torsions:
REMARK  status: ('A' for Active; 'I' for Inactive)
REMARK    1  A    between atoms: C_1  and  C_2
REMARK    2  A    between atoms: C_5  and  N_6
REMARK    3  A    between atoms: N_14  and  C_15
REMARK    4  A    between atoms: N_14  and  C_16
REMARK    5  A    between atoms: C_16  and  C_17
REMARK    6  A    between atoms: C_24  and  C_25
REMARK                            x       y       z     vdW  Elec       q    Type
REMARK                         _______ _______ _______ _____ _____    ______ ____
ROOT
ATOM      1  N   UNL     1      10.095  10.967  18.482  0.00  0.00    +0.000 N 
ATOM      2  C   UNL     1       8.965  10.235  18.143  0.00  0.00    +0.000 C 
ATOM      3  O   UNL     1       7.967  10.713  17.611  0.00  0.00    +0.000 OA
ATOM      4  N   UNL     1       9.045   8.899  18.471  0.00  0.00    +0.000 N 
ATOM      5  C   UNL     1       8.003   8.079  18.086  0.00  0.00    +0.000 A 
ATOM      6  N   UNL     1       7.063   8.292  17.201  0.00  0.00    +0.000 NA
ATOM      7  N   UNL     1       6.192   7.232  17.095  0.00  0.00    +0.000 NA
ATOM      8  C   UNL     1       6.470   6.247  17.926  0.00  0.00    +0.000 A 
ATOM      9  N   UNL     1       5.764   5.082  18.008  0.00  0.00    +0.000 N 
ATOM     10  C   UNL     1       5.607   4.368  19.257  0.00  0.00    +0.000 C 
ATOM     11  S   UNL     1       7.912   6.568  18.860  0.00  0.00    +0.000 S 
ATOM     12  H   UNL     1      10.910  10.444  18.758  0.00  0.00    +0.000 HD
ATOM     13  H   UNL     1       9.670   8.571  19.178  0.00  0.00    +0.000 HD
ENDROOT
BRANCH   1  18
ATOM     14  C   UNL     1      10.662  16.668  17.713  0.00  0.00    +0.000 C 
ATOM     15  C   UNL     1      10.515  15.193  17.937  0.00  0.00    +0.000 A 
ATOM     16  C   UNL     1      10.998  14.301  16.997  0.00  0.00    +0.000 A 
ATOM     17  C   UNL     1      10.857  12.929  17.194  0.00  0.00    +0.000 A 
ATOM     18  C   UNL     1      10.237  12.382  18.331  0.00  0.00    +0.000 A 
ATOM     19  C   UNL     1       9.751  13.285  19.302  0.00  0.00    +0.000 A 
ATOM     20  C   UNL     1       9.063  12.896  20.583  0.00  0.00    +0.000 C 
ATOM     21  C   UNL     1       9.898  14.681  19.084  0.00  0.00    +0.000 A 
ENDBRANCH   1  18
BRANCH   9  22
ATOM     22  C   UNL     1       4.998   4.629  16.841  0.00  0.00    +0.000 C 
BRANCH  22  23
ATOM     23  C   UNL     1       3.694   3.998  17.293  0.00  0.00    +0.000 A 
ATOM     24  C   UNL     1       2.598   4.794  17.667  0.00  0.00    +0.000 A 
ATOM     25  C   UNL     1       1.445   4.211  18.199  0.00  0.00    +0.000 A 
ATOM     26  C   UNL     1       1.360   2.827  18.339  0.00  0.00    +0.000 A 
ATOM     27  C   UNL     1       2.418   2.023  17.921  0.00  0.00    +0.000 A 
ATOM     28  C   UNL     1       3.580   2.604  17.405  0.00  0.00    +0.000 A 
ENDBRANCH  22  23
ENDBRANCH   9  22
TORSDOF 3
ENDMDL
MODEL 2
REMARK VINA RESULT:      -7.8      7.235     10.377
REMARK  Name = 
REMARK  6 active torsions:
REMARK  status: ('A' for Active; 'I' for Inactive)
REMARK    1  A    between atoms: C_1  and  C_2
REMARK    2  A    between atoms: C_5  and  N_6
REMARK    3  A    between atoms: N_14  and  C_15
REMARK    4  A    between atoms: N_14  and  C_16
REMARK    5  A    between atoms: C_16  and  C_17
REMARK    6  A    between atoms: C_24  and  C_25
REMARK                            x       y       z     vdW  Elec       q    Type
REMARK                         _______ _______ _______ _____ _____    ______ ____
ROOT
ATOM      1  N   UNL     1       2.742   6.689  18.974  0.00  0.00    +0.000 N 
ATOM      2  C   UNL     1       2.201   7.956  18.805  0.00  0.00    +0.000 C 
ATOM      3  O   UNL     1       2.288   8.611  17.771  0.00  0.00    +0.000 OA
ATOM      4  N   UNL     1       1.553   8.440  19.920  0.00  0.00    +0.000 N 
ATOM      5  C   UNL     1       0.904   9.654  19.810  0.00  0.00    +0.000 A 
ATOM      6  N   UNL     1       0.549  10.311  18.736  0.00  0.00    +0.000 NA
ATOM      7  N   UNL     1      -0.080  11.498  19.031  0.00  0.00    +0.000 NA
ATOM      8  C   UNL     1      -0.160  11.736  20.325  0.00  0.00    +0.000 A 
ATOM      9  N   UNL     1      -0.747  12.838  20.874  0.00  0.00    +0.000 N 
ATOM     10  C   UNL     1      -0.270  13.426  22.108  0.00  0.00    +0.000 C 
ATOM     11  S   UNL     1       0.498  10.423  21.272  0.00  0.00    +0.000 S 
ATOM     12  H   UNL     1       2.468   6.182  19.800  0.00  0.00    +0.000 HD
ATOM     13  H   UNL     1       1.754   8.091  20.834  0.00  0.00    +0.000 HD
ENDROOT
BRANCH   1  18
ATOM     14  C   UNL     1       6.079   3.962  15.121  0.00  0.00    +0.000 C 
ATOM     15  C   UNL     1       5.194   4.656  16.112  0.00  0.00    +0.000 A 
ATOM     16  C   UNL     1       5.515   5.928  16.551  0.00  0.00    +0.000 A 
ATOM     17  C   UNL     1       4.702   6.576  17.478  0.00  0.00    +0.000 A 
ATOM     18  C   UNL     1       3.536   5.995  18.007  0.00  0.00    +0.000 A 
ATOM     19  C   UNL     1       3.194   4.701  17.556  0.00  0.00    +0.000 A 
ATOM     20  C   UNL     1       1.988   3.917  17.999  0.00  0.00    +0.000 C 
ATOM     21  C   UNL     1       4.035   4.052  16.614  0.00  0.00    +0.000 A 
ENDBRANCH   1  18
BRANCH   9  22
ATOM     22  C   UNL     1      -1.776  13.554  20.110  0.00  0.00    +0.000 C 
BRANCH  22  23
ATOM     23  C   UNL     1      -3.154  13.056  20.507  0.00  0.00    +0.000 A 
ATOM     24  C   UNL     1      -4.012  12.474  19.560  0.00  0.00    +0.000 A 
ATOM     25  C   UNL     1      -5.322  12.132  19.904  0.00  0.00    +0.000 A 
ATOM     26  C   UNL     1      -5.784  12.343  21.201  0.00  0.00    +0.000 A 
ATOM     27  C   UNL     1      -4.927  12.870  22.164  0.00  0.00    +0.000 A 
ATOM     28  C   UNL     1      -3.621  13.229  21.819  0.00  0.00    +0.000 A 
ENDBRANCH  22  23
ENDBRANCH   9  22
TORSDOF 3
ENDMDL
MODEL 3
REMARK VINA RESULT:      -7.7      7.619     10.728
REMARK  Name = 
REMARK  6 active torsions:
REMARK  status: ('A' for Active; 'I' for Inactive)
REMARK    1  A    between atoms: C_1  and  C_2
REMARK    2  A    between atoms: C_5  and  N_6
REMARK    3  A    between atoms: N_14  and  C_15
REMARK    4  A    between atoms: N_14  and  C_16
REMARK    5  A    between atoms: C_16  and  C_17
REMARK    6  A    between atoms: C_24  and  C_25
REMARK                            x       y       z     vdW  Elec       q    Type
REMARK                         _______ _______ _______ _____ _____    ______ ____
ROOT
ATOM      1  N   UNL     1       2.931   6.528  19.641  0.00  0.00    +0.000 N 
ATOM      2  C   UNL     1       2.122   7.644  19.474  0.00  0.00    +0.000 C 
ATOM      3  O   UNL     1       1.856   8.146  18.386  0.00  0.00    +0.000 OA
ATOM      4  N   UNL     1       1.641   8.167  20.654  0.00  0.00    +0.000 N 
ATOM      5  C   UNL     1       0.753   9.222  20.574  0.00  0.00    +0.000 A 
ATOM      6  N   UNL     1       0.055   9.643  19.551  0.00  0.00    +0.000 NA
ATOM      7  N   UNL     1      -0.723  10.735  19.862  0.00  0.00    +0.000 NA
ATOM      8  C   UNL     1      -0.574  11.142  21.106  0.00  0.00    +0.000 A 
ATOM      9  N   UNL     1      -1.241  12.195  21.660  0.00  0.00    +0.000 N 
ATOM     10  C   UNL     1      -0.642  13.030  22.680  0.00  0.00    +0.000 C 
ATOM     11  S   UNL     1       0.520  10.115  22.002  0.00  0.00    +0.000 S 
ATOM     12  H   UNL     1       2.944   6.107  20.556  0.00  0.00    +0.000 HD
ATOM     13  H   UNL     1       2.096   7.996  21.526  0.00  0.00    +0.000 HD
ENDROOT
BRANCH   1  18
ATOM     14  C   UNL     1       5.873   3.828  15.461  0.00  0.00    +0.000 C 
ATOM     15  C   UNL     1       5.089   4.518  16.536  0.00  0.00    +0.000 A 
ATOM     16  C   UNL     1       5.580   5.676  17.112  0.00  0.00    +0.000 A 
ATOM     17  C   UNL     1       4.861   6.319  18.117  0.00  0.00    +0.000 A 
ATOM     18  C   UNL     1       3.625   5.847  18.591  0.00  0.00    +0.000 A 
ATOM     19  C   UNL     1       3.110   4.672  18.001  0.00  0.00    +0.000 A 
ATOM     20  C   UNL     1       1.806   4.014  18.367  0.00  0.00    +0.000 C 
ATOM     21  C   UNL     1       3.857   4.025  16.980  0.00  0.00    +0.000 A 
ENDBRANCH   1  18
BRANCH   9  22
ATOM     22  C   UNL     1      -2.530  12.603  21.091  0.00  0.00    +0.000 C 
BRANCH  22  23
ATOM     23  C   UNL     1      -3.567  12.726  22.192  0.00  0.00    +0.000 A 
ATOM     24  C   UNL     1      -3.274  12.329  23.508  0.00  0.00    +0.000 A 
ATOM     25  C   UNL     1      -4.269  12.328  24.488  0.00  0.00    +0.000 A 
ATOM     26  C   UNL     1      -5.560  12.747  24.176  0.00  0.00    +0.000 A 
ATOM     27  C   UNL     1      -5.851  13.194  22.889  0.00  0.00    +0.000 A 
ATOM     28  C   UNL     1      -4.862  13.180  21.901  0.00  0.00    +0.000 A 
ENDBRANCH  22  23
ENDBRANCH   9  22
TORSDOF 3
ENDMDL
MODEL 4
REMARK VINA RESULT:      -7.7      7.586     11.105
REMARK  Name = 
REMARK  6 active torsions:
REMARK  status: ('A' for Active; 'I' for Inactive)
REMARK    1  A    between atoms: C_1  and  C_2
REMARK    2  A    between atoms: C_5  and  N_6
REMARK    3  A    between atoms: N_14  and  C_15
REMARK    4  A    between atoms: N_14  and  C_16
REMARK    5  A    between atoms: C_16  and  C_17
REMARK    6  A    between atoms: C_24  and  C_25
REMARK                            x       y       z     vdW  Elec       q    Type
REMARK                         _______ _______ _______ _____ _____    ______ ____
ROOT
ATOM      1  N   UNL     1       2.538   7.157  17.902  0.00  0.00    +0.000 N 
ATOM      2  C   UNL     1       1.950   7.917  18.905  0.00  0.00    +0.000 C 
ATOM      3  O   UNL     1       1.680   7.491  20.024  0.00  0.00    +0.000 OA
ATOM      4  N   UNL     1       1.673   9.214  18.533  0.00  0.00    +0.000 N 
ATOM      5  C   UNL     1       1.174  10.066  19.499  0.00  0.00    +0.000 A 
ATOM      6  N   UNL     1       1.178   9.938  20.801  0.00  0.00    +0.000 NA
ATOM      7  N   UNL     1       0.578  11.003  21.434  0.00  0.00    +0.000 NA
ATOM      8  C   UNL     1       0.100  11.902  20.598  0.00  0.00    +0.000 A 
ATOM      9  N   UNL     1      -0.529  13.052  20.976  0.00  0.00    +0.000 N 
ATOM     10  C   UNL     1      -1.589  13.641  20.185  0.00  0.00    +0.000 C 
ATOM     11  S   UNL     1       0.444  11.494  18.933  0.00  0.00    +0.000 S 
ATOM     12  H   UNL     1       2.863   7.651  17.088  0.00  0.00    +0.000 HD
ATOM     13  H   UNL     1       1.571   9.473  17.575  0.00  0.00    +0.000 HD
ENDROOT
BRANCH   1  18
ATOM     14  C   UNL     1       3.645   1.492  18.211  0.00  0.00    +0.000 C 
ATOM     15  C   UNL     1       3.381   2.966  18.141  0.00  0.00    +0.000 A 
ATOM     16  C   UNL     1       2.080   3.435  18.173  0.00  0.00    +0.000 A 
ATOM     17  C   UNL     1       1.825   4.802  18.100  0.00  0.00    +0.000 A 
ATOM     18  C   UNL     1       2.846   5.763  17.997  0.00  0.00    +0.000 A 
ATOM     19  C   UNL     1       4.178   5.294  17.974  0.00  0.00    +0.000 A 
ATOM     20  C   UNL     1       5.403   6.162  17.872  0.00  0.00    +0.000 C 
ATOM     21  C   UNL     1       4.421   3.897  18.045  0.00  0.00    +0.000 A 
ENDBRANCH   1  18
BRANCH   9  22
ATOM     22  C   UNL     1      -0.249  13.616  22.301  0.00  0.00    +0.000 C 
BRANCH  22  23
ATOM     23  C   UNL     1      -1.487  13.523  23.175  0.00  0.00    +0.000 A 
ATOM     24  C   UNL     1      -2.269  12.357  23.197  0.00  0.00    +0.000 A 
ATOM     25  C   UNL     1      -3.472  12.322  23.906  0.00  0.00    +0.000 A 
ATOM     26  C   UNL     1      -3.897  13.439  24.622  0.00  0.00    +0.000 A 
ATOM     27  C   UNL     1      -3.104  14.584  24.652  0.00  0.00    +0.000 A 
ATOM     28  C   UNL     1      -1.908  14.629  23.930  0.00  0.00    +0.000 A 
ENDBRANCH  22  23
ENDBRANCH   9  22
TORSDOF 3
ENDMDL
MODEL 5
REMARK VINA RESULT:      -7.7      6.169      7.649
REMARK  Name = 
REMARK  6 active torsions:
REMARK  status: ('A' for Active; 'I' for Inactive)
REMARK    1  A    between atoms: C_1  and  C_2
REMARK    2  A    between atoms: C_5  and  N_6
REMARK    3  A    between atoms: N_14  and  C_15
REMARK    4  A    between atoms: N_14  and  C_16
REMARK    5  A    between atoms: C_16  and  C_17
REMARK    6  A    between atoms: C_24  and  C_25
REMARK                            x       y       z     vdW  Elec       q    Type
REMARK                         _______ _______ _______ _____ _____    ______ ____
ROOT
ATOM      1  N   UNL     1       0.629  10.315  18.025  0.00  0.00    +0.000 N 
ATOM      2  C   UNL     1       1.369   9.327  18.660  0.00  0.00    +0.000 C 
ATOM      3  O   UNL     1       1.369   9.138  19.873  0.00  0.00    +0.000 OA
ATOM      4  N   UNL     1       2.134   8.565  17.805  0.00  0.00    +0.000 N 
ATOM      5  C   UNL     1       2.829   7.499  18.341  0.00  0.00    +0.000 A 
ATOM      6  N   UNL     1       2.670   6.900  19.493  0.00  0.00    +0.000 NA
ATOM      7  N   UNL     1       3.564   5.871  19.677  0.00  0.00    +0.000 NA
ATOM      8  C   UNL     1       4.408   5.731  18.674  0.00  0.00    +0.000 A 
ATOM      9  N   UNL     1       5.382   4.777  18.610  0.00  0.00    +0.000 N 
ATOM     10  C   UNL     1       6.646   5.017  17.947  0.00  0.00    +0.000 C 
ATOM     11  S   UNL     1       4.078   6.859  17.381  0.00  0.00    +0.000 S 
ATOM     12  H   UNL     1       0.577  10.271  17.020  0.00  0.00    +0.000 HD
ATOM     13  H   UNL     1       2.404   8.901  16.904  0.00  0.00    +0.000 HD
ENDROOT
BRANCH   1  18
ATOM     14  C   UNL     1      -2.517  14.384  20.663  0.00  0.00    +0.000 C 
ATOM     15  C   UNL     1      -1.720  13.312  19.983  0.00  0.00    +0.000 A 
ATOM     16  C   UNL     1      -0.338  13.373  19.987  0.00  0.00    +0.000 A 
ATOM     17  C   UNL     1       0.410  12.386  19.350  0.00  0.00    +0.000 A 
ATOM     18  C   UNL     1      -0.178  11.295  18.685  0.00  0.00    +0.000 A 
ATOM     19  C   UNL     1      -1.588  11.219  18.685  0.00  0.00    +0.000 A 
ATOM     20  C   UNL     1      -2.399  10.131  18.034  0.00  0.00    +0.000 C 
ATOM     21  C   UNL     1      -2.336  12.235  19.335  0.00  0.00    +0.000 A 
ENDBRANCH   1  18
BRANCH   9  22
ATOM     22  C   UNL     1       5.220   3.538  19.380  0.00  0.00    +0.000 C 
BRANCH  22  23
ATOM     23  C   UNL     1       3.831   2.969  19.157  0.00  0.00    +0.000 A 
ATOM     24  C   UNL     1       3.367   2.683  17.863  0.00  0.00    +0.000 A 
ATOM     25  C   UNL     1       2.047   2.276  17.655  0.00  0.00    +0.000 A 
ATOM     26  C   UNL     1       1.181   2.125  18.736  0.00  0.00    +0.000 A 
ATOM     27  C   UNL     1       1.644   2.354  20.030  0.00  0.00    +0.000 A 
ATOM     28  C   UNL     1       2.960   2.777  20.240  0.00  0.00    +0.000 A 
ENDBRANCH  22  23
ENDBRANCH   9  22
TORSDOF 3
ENDMDL
MODEL 6
REMARK VINA RESULT:      -7.7      0.424      1.030
REMARK  Name = 
REMARK  6 active torsions:
REMARK  status: ('A' for Active; 'I' for Inactive)
REMARK    1  A    between atoms: C_1  and  C_2
REMARK    2  A    between atoms: C_5  and  N_6
REMARK    3  A    between atoms: N_14  and  C_15
REMARK    4  A    between atoms: N_14  and  C_16
REMARK    5  A    between atoms: C_16  and  C_17
REMARK    6  A    between atoms: C_24  and  C_25
REMARK                            x       y       z     vdW  Elec       q    Type
REMARK                         _______ _______ _______ _____ _____    ______ ____
ROOT
ATOM      1  N   UNL     1       9.991  10.635  18.649  0.00  0.00    +0.000 N 
ATOM      2  C   UNL     1       8.865   9.885  18.340  0.00  0.00    +0.000 C 
ATOM      3  O   UNL     1       7.844  10.348  17.841  0.00  0.00    +0.000 OA
ATOM      4  N   UNL     1       8.978   8.550  18.657  0.00  0.00    +0.000 N 
ATOM      5  C   UNL     1       7.940   7.713  18.297  0.00  0.00    +0.000 A 
ATOM      6  N   UNL     1       6.970   7.915  17.443  0.00  0.00    +0.000 NA
ATOM      7  N   UNL     1       6.116   6.840  17.356  0.00  0.00    +0.000 NA
ATOM      8  C   UNL     1       6.435   5.856  18.172  0.00  0.00    +0.000 A 
ATOM      9  N   UNL     1       5.753   4.678  18.268  0.00  0.00    +0.000 N 
ATOM     10  C   UNL     1       5.645   3.954  19.517  0.00  0.00    +0.000 C 
ATOM     11  S   UNL     1       7.898   6.197  19.065  0.00  0.00    +0.000 S 
ATOM     12  H   UNL     1      10.824  10.126  18.897  0.00  0.00    +0.000 HD
ATOM     13  H   UNL     1       9.629   8.228  19.342  0.00  0.00    +0.000 HD
ENDROOT
BRANCH   1  18
ATOM     14  C   UNL     1      10.433  16.350  17.899  0.00  0.00    +0.000 C 
ATOM     15  C   UNL     1      10.319  14.871  18.119  0.00  0.00    +0.000 A 
ATOM     16  C   UNL     1      10.771  13.994  17.149  0.00  0.00    +0.000 A 
ATOM     17  C   UNL     1      10.661  12.619  17.342  0.00  0.00    +0.000 A 
ATOM     18  C   UNL     1      10.104  12.054  18.503  0.00  0.00    +0.000 A 
ATOM     19  C   UNL     1       9.651  12.942  19.503  0.00  0.00    +0.000 A 
ATOM     20  C   UNL     1       9.031  12.533  20.812  0.00  0.00    +0.000 C 
ATOM     21  C   UNL     1       9.765  14.341  19.290  0.00  0.00    +0.000 A 
ENDBRANCH   1  18
BRANCH   9  22
ATOM     22  C   UNL     1       4.960   4.217  17.122  0.00  0.00    +0.000 C 
BRANCH  22  23
ATOM     23  C   UNL     1       3.609   3.714  17.596  0.00  0.00    +0.000 A 
ATOM     24  C   UNL     1       3.400   2.352  17.866  0.00  0.00    +0.000 A 
ATOM     25  C   UNL     1       2.124   1.877  18.182  0.00  0.00    +0.000 A 
ATOM     26  C   UNL     1       1.048   2.758  18.259  0.00  0.00    +0.000 A 
ATOM     27  C   UNL     1       1.252   4.120  18.047  0.00  0.00    +0.000 A 
ATOM     28  C   UNL     1       2.524   4.596  17.713  0.00  0.00    +0.000 A 
ENDBRANCH  22  23
ENDBRANCH   9  22
TORSDOF 3
ENDMDL
MODEL 7
REMARK VINA RESULT:      -7.6      5.769      7.400
REMARK  Name = 
REMARK  6 active torsions:
REMARK  status: ('A' for Active; 'I' for Inactive)
REMARK    1  A    between atoms: C_1  and  C_2
REMARK    2  A    between atoms: C_5  and  N_6
REMARK    3  A    between atoms: N_14  and  C_15
REMARK    4  A    between atoms: N_14  and  C_16
REMARK    5  A    between atoms: C_16  and  C_17
REMARK    6  A    between atoms: C_24  and  C_25
REMARK                            x       y       z     vdW  Elec       q    Type
REMARK                         _______ _______ _______ _____ _____    ______ ____
ROOT
ATOM      1  N   UNL     1       0.612  10.410  18.046  0.00  0.00    +0.000 N 
ATOM      2  C   UNL     1       1.332   9.415  18.692  0.00  0.00    +0.000 C 
ATOM      3  O   UNL     1       1.407   9.298  19.912  0.00  0.00    +0.000 OA
ATOM      4  N   UNL     1       1.986   8.555  17.838  0.00  0.00    +0.000 N 
ATOM      5  C   UNL     1       2.650   7.479  18.393  0.00  0.00    +0.000 A 
ATOM      6  N   UNL     1       2.536   6.960  19.589  0.00  0.00    +0.000 NA
ATOM      7  N   UNL     1       3.375   5.887  19.777  0.00  0.00    +0.000 NA
ATOM      8  C   UNL     1       4.135   5.632  18.732  0.00  0.00    +0.000 A 
ATOM      9  N   UNL     1       5.041   4.614  18.663  0.00  0.00    +0.000 N 
ATOM     10  C   UNL     1       6.268   4.729  17.903  0.00  0.00    +0.000 C 
ATOM     11  S   UNL     1       3.785   6.701  17.394  0.00  0.00    +0.000 S 
ATOM     12  H   UNL     1       0.486  10.310  17.052  0.00  0.00    +0.000 HD
ATOM     13  H   UNL     1       2.211   8.818  16.901  0.00  0.00    +0.000 HD
ENDROOT
BRANCH   1  18
ATOM     14  C   UNL     1      -2.276  14.622  20.756  0.00  0.00    +0.000 C 
ATOM     15  C   UNL     1      -1.514  13.547  20.041  0.00  0.00    +0.000 A 
ATOM     16  C   UNL     1      -2.095  12.308  19.838  0.00  0.00    +0.000 A 
ATOM     17  C   UNL     1      -1.390  11.302  19.182  0.00  0.00    +0.000 A 
ATOM     18  C   UNL     1      -0.083  11.479  18.696  0.00  0.00    +0.000 A 
ATOM     19  C   UNL     1       0.514  12.744  18.888  0.00  0.00    +0.000 A 
ATOM     20  C   UNL     1       1.898  13.130  18.438  0.00  0.00    +0.000 C 
ATOM     21  C   UNL     1      -0.216  13.759  19.563  0.00  0.00    +0.000 A 
ENDBRANCH   1  18
BRANCH   9  22
ATOM     22  C   UNL     1       4.858   3.436  19.520  0.00  0.00    +0.000 C 
BRANCH  22  23
ATOM     23  C   UNL     1       3.406   2.995  19.488  0.00  0.00    +0.000 A 
ATOM     24  C   UNL     1       2.765   2.706  18.272  0.00  0.00    +0.000 A 
ATOM     25  C   UNL     1       1.398   2.420  18.239  0.00  0.00    +0.000 A 
ATOM     26  C   UNL     1       0.659   2.394  19.419  0.00  0.00    +0.000 A 
ATOM     27  C   UNL     1       1.293   2.627  20.638  0.00  0.00    +0.000 A 
ATOM     28  C   UNL     1       2.657   2.929  20.673  0.00  0.00    +0.000 A 
ENDBRANCH  22  23
ENDBRANCH   9  22
TORSDOF 3
ENDMDL
MODEL 8
REMARK VINA RESULT:      -7.6      7.689     10.724
REMARK  Name = 
REMARK  6 active torsions:
REMARK  status: ('A' for Active; 'I' for Inactive)
REMARK    1  A    between atoms: C_1  and  C_2
REMARK    2  A    between atoms: C_5  and  N_6
REMARK    3  A    between atoms: N_14  and  C_15
REMARK    4  A    between atoms: N_14  and  C_16
REMARK    5  A    between atoms: C_16  and  C_17
REMARK    6  A    between atoms: C_24  and  C_25
REMARK                            x       y       z     vdW  Elec       q    Type
REMARK                         _______ _______ _______ _____ _____    ______ ____
ROOT
ATOM      1  N   UNL     1       2.902   6.647  19.059  0.00  0.00    +0.000 N 
ATOM      2  C   UNL     1       2.183   7.819  18.865  0.00  0.00    +0.000 C 
ATOM      3  O   UNL     1       2.039   8.368  17.777  0.00  0.00    +0.000 OA
ATOM      4  N   UNL     1       1.643   8.340  20.020  0.00  0.00    +0.000 N 
ATOM      5  C   UNL     1       0.834   9.454  19.906  0.00  0.00    +0.000 A 
ATOM      6  N   UNL     1       0.249   9.950  18.846  0.00  0.00    +0.000 NA
ATOM      7  N   UNL     1      -0.479  11.082  19.129  0.00  0.00    +0.000 NA
ATOM      8  C   UNL     1      -0.405  11.443  20.394  0.00  0.00    +0.000 A 
ATOM      9  N   UNL     1      -1.045  12.523  20.929  0.00  0.00    +0.000 N 
ATOM     10  C   UNL     1      -0.478  13.288  22.019  0.00  0.00    +0.000 C 
ATOM     11  S   UNL     1       0.544  10.321  21.340  0.00  0.00    +0.000 S 
ATOM     12  H   UNL     1       2.814   6.202  19.957  0.00  0.00    +0.000 HD
ATOM     13  H   UNL     1       2.014   8.115  20.919  0.00  0.00    +0.000 HD
ENDROOT
BRANCH   1  18
ATOM     14  C   UNL     1       5.990   3.908  15.012  0.00  0.00    +0.000 C 
ATOM     15  C   UNL     1       5.169   4.605  16.054  0.00  0.00    +0.000 A 
ATOM     16  C   UNL     1       5.531   5.869  16.485  0.00  0.00    +0.000 A 
ATOM     17  C   UNL     1       4.777   6.520  17.460  0.00  0.00    +0.000 A 
ATOM     18  C   UNL     1       3.633   5.951  18.045  0.00  0.00    +0.000 A 
ATOM     19  C   UNL     1       3.250   4.666  17.604  0.00  0.00    +0.000 A 
ATOM     20  C   UNL     1       2.059   3.894  18.105  0.00  0.00    +0.000 C 
ATOM     21  C   UNL     1       4.031   4.013  16.613  0.00  0.00    +0.000 A 
ENDBRANCH   1  18
BRANCH   9  22
ATOM     22  C   UNL     1      -2.256  13.032  20.273  0.00  0.00    +0.000 C 
BRANCH  22  23
ATOM     23  C   UNL     1      -3.246  13.514  21.317  0.00  0.00    +0.000 A 
ATOM     24  C   UNL     1      -3.558  14.878  21.441  0.00  0.00    +0.000 A 
ATOM     25  C   UNL     1      -4.373  15.329  22.482  0.00  0.00    +0.000 A 
ATOM     26  C   UNL     1      -4.908  14.424  23.396  0.00  0.00    +0.000 A 
ATOM     27  C   UNL     1      -4.649  13.062  23.253  0.00  0.00    +0.000 A 
ATOM     28  C   UNL     1      -3.820  12.609  22.223  0.00  0.00    +0.000 A 
ENDBRANCH  22  23
ENDBRANCH   9  22
TORSDOF 3
ENDMDL
MODEL 9
REMARK VINA RESULT:      -7.6      7.838     10.887
REMARK  Name = 
REMARK  6 active torsions:
REMARK  status: ('A' for Active; 'I' for Inactive)
REMARK    1  A    between atoms: C_1  and  C_2
REMARK    2  A    between atoms: C_5  and  N_6
REMARK    3  A    between atoms: N_14  and  C_15
REMARK    4  A    between atoms: N_14  and  C_16
REMARK    5  A    between atoms: C_16  and  C_17
REMARK    6  A    between atoms: C_24  and  C_25
REMARK                            x       y       z     vdW  Elec       q    Type
REMARK                         _______ _______ _______ _____ _____    ______ ____
ROOT
ATOM      1  N   UNL     1       2.589   6.805  19.761  0.00  0.00    +0.000 N 
ATOM      2  C   UNL     1       1.801   7.935  19.596  0.00  0.00    +0.000 C 
ATOM      3  O   UNL     1       1.531   8.436  18.509  0.00  0.00    +0.000 OA
ATOM      4  N   UNL     1       1.344   8.475  20.778  0.00  0.00    +0.000 N 
ATOM      5  C   UNL     1       0.475   9.546  20.703  0.00  0.00    +0.000 A 
ATOM      6  N   UNL     1      -0.227   9.975  19.685  0.00  0.00    +0.000 NA
ATOM      7  N   UNL     1      -0.980  11.083  19.998  0.00  0.00    +0.000 NA
ATOM      8  C   UNL     1      -0.808  11.495  21.238  0.00  0.00    +0.000 A 
ATOM      9  N   UNL     1      -1.448  12.564  21.793  0.00  0.00    +0.000 N 
ATOM     10  C   UNL     1      -0.821  13.394  22.800  0.00  0.00    +0.000 C 
ATOM     11  S   UNL     1       0.276  10.453  22.128  0.00  0.00    +0.000 S 
ATOM     12  H   UNL     1       2.606   6.390  20.679  0.00  0.00    +0.000 HD
ATOM     13  H   UNL     1       1.806   8.301  21.646  0.00  0.00    +0.000 HD
ENDROOT
BRANCH   1  18
ATOM     14  C   UNL     1       5.427   4.044  15.549  0.00  0.00    +0.000 C 
ATOM     15  C   UNL     1       4.670   4.747  16.635  0.00  0.00    +0.000 A 
ATOM     16  C   UNL     1       5.085   5.994  17.068  0.00  0.00    +0.000 A 
ATOM     17  C   UNL     1       4.392   6.650  18.083  0.00  0.00    +0.000 A 
ATOM     18  C   UNL     1       3.258   6.105  18.708  0.00  0.00    +0.000 A 
ATOM     19  C   UNL     1       2.820   4.837  18.264  0.00  0.00    +0.000 A 
ATOM     20  C   UNL     1       1.629   4.091  18.804  0.00  0.00    +0.000 C 
ATOM     21  C   UNL     1       3.539   4.178  17.232  0.00  0.00    +0.000 A 
ENDBRANCH   1  18
BRANCH   9  22
ATOM     22  C   UNL     1      -2.736  12.993  21.236  0.00  0.00    +0.000 C 
BRANCH  22  23
ATOM     23  C   UNL     1      -3.836  12.796  22.264  0.00  0.00    +0.000 A 
ATOM     24  C   UNL     1      -5.182  13.022  21.934  0.00  0.00    +0.000 A 
ATOM     25  C   UNL     1      -6.174  12.959  22.915  0.00  0.00    +0.000 A 
ATOM     26  C   UNL     1      -5.840  12.646  24.231  0.00  0.00    +0.000 A 
ATOM     27  C   UNL     1      -4.515  12.368  24.561  0.00  0.00    +0.000 A 
ATOM     28  C   UNL     1      -3.518  12.446  23.585  0.00  0.00    +0.000 A 
ENDBRANCH  22  23
ENDBRANCH   9  22
TORSDOF 3
ENDMDL
