MODEL 1
REMARK VINA RESULT:      -7.4      0.000      0.000
REMARK  Name = 
REMARK  5 active torsions:
REMARK  status: ('A' for Active; 'I' for Inactive)
REMARK    1  A    between atoms: C_1  and  C_2
REMARK    2  A    between atoms: C_5  and  C_6
REMARK    3  A    between atoms: N_12  and  C_13
REMARK    4  A    between atoms: C_19  and  C_20
REMARK    5  A    between atoms: C_20  and  O_22
REMARK                            x       y       z     vdW  Elec       q    Type
REMARK                         _______ _______ _______ _____ _____    ______ ____
ROOT
ATOM      1  C   UNL     1       2.449   7.740  18.434  0.00  0.00    +0.000 C 
ATOM      2  O   UNL     1       3.283   7.932  17.553  0.00  0.00    +0.000 OA
ATOM      3  N   UNL     1       1.676   8.760  18.956  0.00  0.00    +0.000 N 
ATOM      4  C   UNL     1       1.585  10.033  18.316  0.00  0.00    +0.000 C 
ATOM      5  C   UNL     1       0.510  10.701  19.149  0.00  0.00    +0.000 C 
ATOM      6  C   UNL     1       0.516  12.199  18.918  0.00  0.00    +0.000 C 
ATOM      7  N   UNL     1       0.526  12.763  20.255  0.00  0.00    +0.000 NA
ATOM      8  C   UNL     1       0.047  11.637  21.085  0.00  0.00    +0.000 C 
ATOM      9  C   UNL     1       0.868  10.350  20.656  0.00  0.00    +0.000 C 
ATOM     10  C   UNL     1       0.939   8.810  20.211  0.00  0.00    +0.000 C 
ENDROOT
BRANCH   1  15
ATOM     11  C   UNL     1       1.463   2.385  20.412  0.00  0.00    +0.000 C 
ATOM     12  C   UNL     1       1.745   3.760  19.882  0.00  0.00    +0.000 A 
ATOM     13  C   UNL     1       1.739   4.030  18.507  0.00  0.00    +0.000 A 
ATOM     14  C   UNL     1       1.984   5.324  18.037  0.00  0.00    +0.000 A 
ATOM     15  C   UNL     1       2.249   6.357  18.941  0.00  0.00    +0.000 A 
ATOM     16  C   UNL     1       2.233   6.095  20.314  0.00  0.00    +0.000 A 
ATOM     17  C   UNL     1       2.004   4.802  20.781  0.00  0.00    +0.000 A 
ENDBRANCH   1  15
BRANCH   7  18
ATOM     18  C   UNL     1       1.822  13.300  20.696  0.00  0.00    +0.000 C 
ATOM     19  C   UNL     1       2.762  13.734  19.563  0.00  0.00    +0.000 C 
ATOM     20  C   UNL     1       3.703  14.720  20.229  0.00  0.00    +0.000 C 
ATOM     21  C   UNL     1       2.788  15.532  21.128  0.00  0.00    +0.000 C 
ATOM     22  C   UNL     1       1.647  14.591  21.525  0.00  0.00    +0.000 C 
ENDBRANCH   7  18
BRANCH   9  23
ATOM     23  C   UNL     1       0.248   9.742  21.946  0.00  0.00    +0.000 C 
ATOM     24  O   UNL     1       0.302  10.199  23.080  0.00  0.00    +0.000 OA
BRANCH  23  25
ATOM     25  O   UNL     1      -0.406   8.578  21.672  0.00  0.00    +0.000 OA
ATOM     26  H   UNL     1      -0.692   8.482  20.741  0.00  0.00    +0.000 HD
ENDBRANCH  23  25
ENDBRANCH   9  23
TORSDOF 4
ENDMDL
MODEL 2
REMARK VINA RESULT:      -7.2      0.239      1.168
REMARK  Name = 
REMARK  5 active torsions:
REMARK  status: ('A' for Active; 'I' for Inactive)
REMARK    1  A    between atoms: C_1  and  C_2
REMARK    2  A    between atoms: C_5  and  C_6
REMARK    3  A    between atoms: N_12  and  C_13
REMARK    4  A    between atoms: C_19  and  C_20
REMARK    5  A    between atoms: C_20  and  O_22
REMARK                            x       y       z     vdW  Elec       q    Type
REMARK                         _______ _______ _______ _____ _____    ______ ____
ROOT
ATOM      1  C   UNL     1       2.458   7.821  18.358  0.00  0.00    +0.000 C 
ATOM      2  O   UNL     1       3.336   7.990  17.517  0.00  0.00    +0.000 OA
ATOM      3  N   UNL     1       1.701   8.866  18.856  0.00  0.00    +0.000 N 
ATOM      4  C   UNL     1       1.684  10.146  18.225  0.00  0.00    +0.000 C 
ATOM      5  C   UNL     1       0.598  10.847  19.016  0.00  0.00    +0.000 C 
ATOM      6  C   UNL     1       0.669  12.345  18.800  0.00  0.00    +0.000 C 
ATOM      7  N   UNL     1       0.640  12.897  20.141  0.00  0.00    +0.000 NA
ATOM      8  C   UNL     1       0.085  11.783  20.939  0.00  0.00    +0.000 C 
ATOM      9  C   UNL     1       0.877  10.471  20.534  0.00  0.00    +0.000 C 
ATOM     10  C   UNL     1       0.912   8.932  20.078  0.00  0.00    +0.000 C 
ENDROOT
BRANCH   1  15
ATOM     11  C   UNL     1       1.604   2.409  20.237  0.00  0.00    +0.000 C 
ATOM     12  C   UNL     1       1.800   3.821  19.769  0.00  0.00    +0.000 A 
ATOM     13  C   UNL     1       2.075   4.859  20.671  0.00  0.00    +0.000 A 
ATOM     14  C   UNL     1       2.274   6.163  20.210  0.00  0.00    +0.000 A 
ATOM     15  C   UNL     1       2.186   6.443  18.843  0.00  0.00    +0.000 A 
ATOM     16  C   UNL     1       1.934   5.406  17.940  0.00  0.00    +0.000 A 
ATOM     17  C   UNL     1       1.721   4.108  18.402  0.00  0.00    +0.000 A 
ENDBRANCH   1  15
BRANCH   7  18
ATOM     18  C   UNL     1       1.935  13.384  20.643  0.00  0.00    +0.000 C 
ATOM     19  C   UNL     1       2.900  13.890  19.562  0.00  0.00    +0.000 C 
ATOM     20  C   UNL     1       3.839  14.811  20.316  0.00  0.00    +0.000 C 
ATOM     21  C   UNL     1       2.918  15.563  21.260  0.00  0.00    +0.000 C 
ATOM     22  C   UNL     1       1.760  14.610  21.564  0.00  0.00    +0.000 C 
ENDBRANCH   7  18
BRANCH   9  23
ATOM     23  C   UNL     1       0.180   9.875  21.790  0.00  0.00    +0.000 C 
ATOM     24  O   UNL     1      -0.187   8.720  21.956  0.00  0.00    +0.000 OA
BRANCH  23  25
ATOM     25  O   UNL     1       0.013  10.826  22.753  0.00  0.00    +0.000 OA
ATOM     26  H   UNL     1       0.113  11.747  22.437  0.00  0.00    +0.000 HD
ENDBRANCH  23  25
ENDBRANCH   9  23
TORSDOF 4
ENDMDL
MODEL 3
REMARK VINA RESULT:      -7.2      1.820      2.093
REMARK  Name = 
REMARK  5 active torsions:
REMARK  status: ('A' for Active; 'I' for Inactive)
REMARK    1  A    between atoms: C_1  and  C_2
REMARK    2  A    between atoms: C_5  and  C_6
REMARK    3  A    between atoms: N_12  and  C_13
REMARK    4  A    between atoms: C_19  and  C_20
REMARK    5  A    between atoms: C_20  and  O_22
REMARK                            x       y       z     vdW  Elec       q    Type
REMARK                         _______ _______ _______ _____ _____    ______ ____
ROOT
ATOM      1  C   UNL     1       2.005   8.728  18.249  0.00  0.00    +0.000 C 
ATOM      2  O   UNL     1       2.185   9.274  17.164  0.00  0.00    +0.000 OA
ATOM      3  N   UNL     1       1.159   9.251  19.208  0.00  0.00    +0.000 N 
ATOM      4  C   UNL     1       0.225  10.285  18.899  0.00  0.00    +0.000 C 
ATOM      5  C   UNL     1      -0.561  10.364  20.193  0.00  0.00    +0.000 C 
ATOM      6  C   UNL     1      -1.348  11.658  20.256  0.00  0.00    +0.000 C 
ATOM      7  N   UNL     1      -1.027  12.204  21.561  0.00  0.00    +0.000 NA
ATOM      8  C   UNL     1      -0.521  11.021  22.292  0.00  0.00    +0.000 C 
ATOM      9  C   UNL     1       0.527  10.295  21.348  0.00  0.00    +0.000 C 
ATOM     10  C   UNL     1       1.102   8.977  20.637  0.00  0.00    +0.000 C 
ENDROOT
BRANCH   1  15
ATOM     11  C   UNL     1       4.611   3.645  19.214  0.00  0.00    +0.000 C 
ATOM     12  C   UNL     1       3.965   4.977  18.968  0.00  0.00    +0.000 A 
ATOM     13  C   UNL     1       4.384   5.811  17.922  0.00  0.00    +0.000 A 
ATOM     14  C   UNL     1       3.754   7.040  17.700  0.00  0.00    +0.000 A 
ATOM     15  C   UNL     1       2.707   7.449  18.531  0.00  0.00    +0.000 A 
ATOM     16  C   UNL     1       2.273   6.609  19.560  0.00  0.00    +0.000 A 
ATOM     17  C   UNL     1       2.911   5.391  19.791  0.00  0.00    +0.000 A 
ENDBRANCH   1  15
BRANCH   7  18
ATOM     18  C   UNL     1      -0.080  13.330  21.552  0.00  0.00    +0.000 C 
ATOM     19  C   UNL     1       0.022  14.078  20.216  0.00  0.00    +0.000 C 
ATOM     20  C   UNL     1       0.563  15.441  20.603  0.00  0.00    +0.000 C 
ATOM     21  C   UNL     1      -0.194  15.775  21.876  0.00  0.00    +0.000 C 
ATOM     22  C   UNL     1      -0.503  14.433  22.545  0.00  0.00    +0.000 C 
ENDBRANCH   7  18
BRANCH   9  23
ATOM     23  C   UNL     1       0.881   9.510  22.643  0.00  0.00    +0.000 C 
ATOM     24  O   UNL     1       0.378   9.643  23.751  0.00  0.00    +0.000 OA
BRANCH  23  25
ATOM     25  O   UNL     1       1.865   8.597  22.407  0.00  0.00    +0.000 OA
ATOM     26  H   UNL     1       2.447   8.419  23.173  0.00  0.00    +0.000 HD
ENDBRANCH  23  25
ENDBRANCH   9  23
TORSDOF 4
ENDMDL
MODEL 4
REMARK VINA RESULT:      -7.1      1.253      1.458
REMARK  Name = 
REMARK  5 active torsions:
REMARK  status: ('A' for Active; 'I' for Inactive)
REMARK    1  A    between atoms: C_1  and  C_2
REMARK    2  A    between atoms: C_5  and  C_6
REMARK    3  A    between atoms: N_12  and  C_13
REMARK    4  A    between atoms: C_19  and  C_20
REMARK    5  A    between atoms: C_20  and  O_22
REMARK                            x       y       z     vdW  Elec       q    Type
REMARK                         _______ _______ _______ _____ _____    ______ ____
ROOT
ATOM      1  C   UNL     1       2.558   7.791  17.966  0.00  0.00    +0.000 C 
ATOM      2  O   UNL     1       2.977   8.152  16.870  0.00  0.00    +0.000 OA
ATOM      3  N   UNL     1       1.757   8.597  18.753  0.00  0.00    +0.000 N 
ATOM      4  C   UNL     1       1.129   9.768  18.230  0.00  0.00    +0.000 C 
ATOM      5  C   UNL     1       0.247  10.171  19.394  0.00  0.00    +0.000 C 
ATOM      6  C   UNL     1      -0.219  11.604  19.234  0.00  0.00    +0.000 C 
ATOM      7  N   UNL     1       0.076  12.216  20.516  0.00  0.00    +0.000 NA
ATOM      8  C   UNL     1       0.209  11.047  21.411  0.00  0.00    +0.000 C 
ATOM      9  C   UNL     1       1.156  10.002  20.686  0.00  0.00    +0.000 C 
ATOM     10  C   UNL     1       1.483   8.514  20.181  0.00  0.00    +0.000 C 
ENDROOT
BRANCH   1  15
ATOM     11  C   UNL     1       3.994   2.446  19.678  0.00  0.00    +0.000 C 
ATOM     12  C   UNL     1       3.628   3.842  19.265  0.00  0.00    +0.000 A 
ATOM     13  C   UNL     1       4.550   4.895  19.350  0.00  0.00    +0.000 A 
ATOM     14  C   UNL     1       4.194   6.183  18.941  0.00  0.00    +0.000 A 
ATOM     15  C   UNL     1       2.907   6.431  18.454  0.00  0.00    +0.000 A 
ATOM     16  C   UNL     1       1.993   5.379  18.348  0.00  0.00    +0.000 A 
ATOM     17  C   UNL     1       2.344   4.097  18.770  0.00  0.00    +0.000 A 
ENDBRANCH   1  15
BRANCH   7  18
ATOM     18  C   UNL     1       1.255  13.097  20.531  0.00  0.00    +0.000 C 
ATOM     19  C   UNL     1       1.765  13.519  19.146  0.00  0.00    +0.000 C 
ATOM     20  C   UNL     1       2.544  14.791  19.419  0.00  0.00    +0.000 C 
ATOM     21  C   UNL     1       1.683  15.527  20.429  0.00  0.00    +0.000 C 
ATOM     22  C   UNL     1       0.947  14.443  21.221  0.00  0.00    +0.000 C 
ENDBRANCH   7  18
BRANCH   9  23
ATOM     23  C   UNL     1       1.174   9.317  22.082  0.00  0.00    +0.000 C 
ATOM     24  O   UNL     1       0.727   9.762  23.131  0.00  0.00    +0.000 OA
BRANCH  23  25
ATOM     25  O   UNL     1       1.768   8.092  22.018  0.00  0.00    +0.000 OA
ATOM     26  H   UNL     1       1.173   7.364  21.745  0.00  0.00    +0.000 HD
ENDBRANCH  23  25
ENDBRANCH   9  23
TORSDOF 4
ENDMDL
MODEL 5
REMARK VINA RESULT:      -7.1      1.403      1.460
REMARK  Name = 
REMARK  5 active torsions:
REMARK  status: ('A' for Active; 'I' for Inactive)
REMARK    1  A    between atoms: C_1  and  C_2
REMARK    2  A    between atoms: C_5  and  C_6
REMARK    3  A    between atoms: N_12  and  C_13
REMARK    4  A    between atoms: C_19  and  C_20
REMARK    5  A    between atoms: C_20  and  O_22
REMARK                            x       y       z     vdW  Elec       q    Type
REMARK                         _______ _______ _______ _____ _____    ______ ____
ROOT
ATOM      1  C   UNL     1       3.026   7.528  17.730  0.00  0.00    +0.000 C 
ATOM      2  O   UNL     1       3.544   7.928  16.692  0.00  0.00    +0.000 OA
ATOM      3  N   UNL     1       2.167   8.312  18.478  0.00  0.00    +0.000 N 
ATOM      4  C   UNL     1       1.601   9.512  17.953  0.00  0.00    +0.000 C 
ATOM      5  C   UNL     1       0.624   9.879  19.052  0.00  0.00    +0.000 C 
ATOM      6  C   UNL     1       0.190  11.325  18.914  0.00  0.00    +0.000 C 
ATOM      7  N   UNL     1       0.378  11.878  20.241  0.00  0.00    +0.000 NA
ATOM      8  C   UNL     1       0.419  10.671  21.094  0.00  0.00    +0.000 C 
ATOM      9  C   UNL     1       1.414   9.643  20.410  0.00  0.00    +0.000 C 
ATOM     10  C   UNL     1       1.768   8.173  19.871  0.00  0.00    +0.000 C 
ENDROOT
BRANCH   1  15
ATOM     11  C   UNL     1       4.076   2.183  19.703  0.00  0.00    +0.000 C 
ATOM     12  C   UNL     1       3.798   3.555  19.161  0.00  0.00    +0.000 A 
ATOM     13  C   UNL     1       2.562   3.876  18.583  0.00  0.00    +0.000 A 
ATOM     14  C   UNL     1       2.319   5.167  18.103  0.00  0.00    +0.000 A 
ATOM     15  C   UNL     1       3.316   6.144  18.188  0.00  0.00    +0.000 A 
ATOM     16  C   UNL     1       4.541   5.831  18.785  0.00  0.00    +0.000 A 
ATOM     17  C   UNL     1       4.788   4.540  19.250  0.00  0.00    +0.000 A 
ENDBRANCH   1  15
BRANCH   7  18
ATOM     18  C   UNL     1       1.560  12.740  20.397  0.00  0.00    +0.000 C 
ATOM     19  C   UNL     1       2.245  13.143  19.084  0.00  0.00    +0.000 C 
ATOM     20  C   UNL     1       3.006  14.405  19.443  0.00  0.00    +0.000 C 
ATOM     21  C   UNL     1       2.037  15.162  20.333  0.00  0.00    +0.000 C 
ATOM     22  C   UNL     1       1.191  14.097  21.034  0.00  0.00    +0.000 C 
ENDBRANCH   7  18
BRANCH   9  23
ATOM     23  C   UNL     1       1.301   8.900  21.771  0.00  0.00    +0.000 C 
ATOM     24  O   UNL     1       1.056   9.392  22.865  0.00  0.00    +0.000 OA
BRANCH  23  25
ATOM     25  O   UNL     1       1.510   7.562  21.617  0.00  0.00    +0.000 OA
ATOM     26  H   UNL     1       1.495   7.253  20.688  0.00  0.00    +0.000 HD
ENDBRANCH  23  25
ENDBRANCH   9  23
TORSDOF 4
ENDMDL
MODEL 6
REMARK VINA RESULT:      -7.1      2.804      4.312
REMARK  Name = 
REMARK  5 active torsions:
REMARK  status: ('A' for Active; 'I' for Inactive)
REMARK    1  A    between atoms: C_1  and  C_2
REMARK    2  A    between atoms: C_5  and  C_6
REMARK    3  A    between atoms: N_12  and  C_13
REMARK    4  A    between atoms: C_19  and  C_20
REMARK    5  A    between atoms: C_20  and  O_22
REMARK                            x       y       z     vdW  Elec       q    Type
REMARK                         _______ _______ _______ _____ _____    ______ ____
ROOT
ATOM      1  C   UNL     1       1.271   8.754  20.989  0.00  0.00    +0.000 C 
ATOM      2  O   UNL     1       1.441   8.625  22.198  0.00  0.00    +0.000 OA
ATOM      3  N   UNL     1       0.676   9.875  20.441  0.00  0.00    +0.000 N 
ATOM      4  C   UNL     1       0.489  11.069  21.200  0.00  0.00    +0.000 C 
ATOM      5  C   UNL     1      -0.008  12.020  20.129  0.00  0.00    +0.000 C 
ATOM      6  C   UNL     1      -0.654  13.237  20.761  0.00  0.00    +0.000 C 
ATOM      7  N   UNL     1      -1.927  13.357  20.076  0.00  0.00    +0.000 NA
ATOM      8  C   UNL     1      -1.710  12.564  18.847  0.00  0.00    +0.000 C 
ATOM      9  C   UNL     1      -1.060  11.184  19.282  0.00  0.00    +0.000 C 
ATOM     10  C   UNL     1       0.063  10.048  19.131  0.00  0.00    +0.000 C 
ENDROOT
BRANCH   1  15
ATOM     11  C   UNL     1       3.287   4.558  17.541  0.00  0.00    +0.000 C 
ATOM     12  C   UNL     1       2.735   5.630  18.434  0.00  0.00    +0.000 A 
ATOM     13  C   UNL     1       2.185   5.327  19.687  0.00  0.00    +0.000 A 
ATOM     14  C   UNL     1       1.694   6.345  20.511  0.00  0.00    +0.000 A 
ATOM     15  C   UNL     1       1.739   7.674  20.081  0.00  0.00    +0.000 A 
ATOM     16  C   UNL     1       2.308   7.981  18.841  0.00  0.00    +0.000 A 
ATOM     17  C   UNL     1       2.783   6.964  18.014  0.00  0.00    +0.000 A 
ENDBRANCH   1  15
BRANCH   7  18
ATOM     18  C   UNL     1      -3.097  12.917  20.852  0.00  0.00    +0.000 C 
ATOM     19  C   UNL     1      -2.842  12.721  22.352  0.00  0.00    +0.000 C 
ATOM     20  C   UNL     1      -4.220  12.840  22.974  0.00  0.00    +0.000 C 
ATOM     21  C   UNL     1      -4.855  13.990  22.214  0.00  0.00    +0.000 C 
ATOM     22  C   UNL     1      -4.226  13.970  20.819  0.00  0.00    +0.000 C 
ENDBRANCH   7  18
BRANCH   9  23
ATOM     23  C   UNL     1      -1.393  10.769  17.821  0.00  0.00    +0.000 C 
ATOM     24  O   UNL     1      -1.344   9.644  17.343  0.00  0.00    +0.000 OA
BRANCH  23  25
ATOM     25  O   UNL     1      -1.775  11.847  17.081  0.00  0.00    +0.000 OA
ATOM     26  H   UNL     1      -2.697  12.139  17.232  0.00  0.00    +0.000 HD
ENDBRANCH  23  25
ENDBRANCH   9  23
TORSDOF 4
ENDMDL
MODEL 7
REMARK VINA RESULT:      -7.1      2.847      4.299
REMARK  Name = 
REMARK  5 active torsions:
REMARK  status: ('A' for Active; 'I' for Inactive)
REMARK    1  A    between atoms: C_1  and  C_2
REMARK    2  A    between atoms: C_5  and  C_6
REMARK    3  A    between atoms: N_12  and  C_13
REMARK    4  A    between atoms: C_19  and  C_20
REMARK    5  A    between atoms: C_20  and  O_22
REMARK                            x       y       z     vdW  Elec       q    Type
REMARK                         _______ _______ _______ _____ _____    ______ ____
ROOT
ATOM      1  C   UNL     1       1.346   8.832  21.103  0.00  0.00    +0.000 C 
ATOM      2  O   UNL     1       1.684   8.850  22.284  0.00  0.00    +0.000 OA
ATOM      3  N   UNL     1       0.595   9.843  20.534  0.00  0.00    +0.000 N 
ATOM      4  C   UNL     1       0.412  11.099  21.187  0.00  0.00    +0.000 C 
ATOM      5  C   UNL     1      -0.297  11.890  20.106  0.00  0.00    +0.000 C 
ATOM      6  C   UNL     1      -0.952  13.123  20.696  0.00  0.00    +0.000 C 
ATOM      7  N   UNL     1      -2.309  13.080  20.187  0.00  0.00    +0.000 NA
ATOM      8  C   UNL     1      -2.191  12.172  19.025  0.00  0.00    +0.000 C 
ATOM      9  C   UNL     1      -1.379  10.896  19.503  0.00  0.00    +0.000 C 
ATOM     10  C   UNL     1      -0.197   9.828  19.312  0.00  0.00    +0.000 C 
ENDROOT
BRANCH   1  15
ATOM     11  C   UNL     1       2.838   4.387  17.702  0.00  0.00    +0.000 C 
ATOM     12  C   UNL     1       2.483   5.550  18.581  0.00  0.00    +0.000 A 
ATOM     13  C   UNL     1       2.618   6.872  18.134  0.00  0.00    +0.000 A 
ATOM     14  C   UNL     1       2.262   7.939  18.964  0.00  0.00    +0.000 A 
ATOM     15  C   UNL     1       1.778   7.693  20.253  0.00  0.00    +0.000 A 
ATOM     16  C   UNL     1       1.622   6.374  20.691  0.00  0.00    +0.000 A 
ATOM     17  C   UNL     1       1.992   5.311  19.869  0.00  0.00    +0.000 A 
ENDBRANCH   1  15
BRANCH   7  18
ATOM     18  C   UNL     1      -3.327  12.651  21.159  0.00  0.00    +0.000 C 
ATOM     19  C   UNL     1      -2.913  12.783  22.630  0.00  0.00    +0.000 C 
ATOM     20  C   UNL     1      -4.232  12.841  23.376  0.00  0.00    +0.000 C 
ATOM     21  C   UNL     1      -5.096  13.732  22.501  0.00  0.00    +0.000 C 
ATOM     22  C   UNL     1      -4.598  13.523  21.069  0.00  0.00    +0.000 C 
ENDBRANCH   7  18
BRANCH   9  23
ATOM     23  C   UNL     1      -1.867  10.300  18.152  0.00  0.00    +0.000 C 
ATOM     24  O   UNL     1      -2.992   9.904  17.881  0.00  0.00    +0.000 OA
BRANCH  23  25
ATOM     25  O   UNL     1      -0.855  10.264  17.240  0.00  0.00    +0.000 OA
ATOM     26  H   UNL     1      -0.268  11.048  17.252  0.00  0.00    +0.000 HD
ENDBRANCH  23  25
ENDBRANCH   9  23
TORSDOF 4
ENDMDL
MODEL 8
REMARK VINA RESULT:      -7.0      3.201      4.857
REMARK  Name = 
REMARK  5 active torsions:
REMARK  status: ('A' for Active; 'I' for Inactive)
REMARK    1  A    between atoms: C_1  and  C_2
REMARK    2  A    between atoms: C_5  and  C_6
REMARK    3  A    between atoms: N_12  and  C_13
REMARK    4  A    between atoms: C_19  and  C_20
REMARK    5  A    between atoms: C_20  and  O_22
REMARK                            x       y       z     vdW  Elec       q    Type
REMARK                         _______ _______ _______ _____ _____    ______ ____
ROOT
ATOM      1  C   UNL     1      -0.306  10.920  19.161  0.00  0.00    +0.000 C 
ATOM      2  O   UNL     1      -1.505  10.774  18.941  0.00  0.00    +0.000 OA
ATOM      3  N   UNL     1       0.239  12.144  19.500  0.00  0.00    +0.000 N 
ATOM      4  C   UNL     1      -0.579  13.244  19.899  0.00  0.00    +0.000 C 
ATOM      5  C   UNL     1       0.472  14.248  20.330  0.00  0.00    +0.000 C 
ATOM      6  C   UNL     1      -0.128  15.637  20.418  0.00  0.00    +0.000 C 
ATOM      7  N   UNL     1       0.794  16.468  19.667  0.00  0.00    +0.000 NA
ATOM      8  C   UNL     1       2.023  15.646  19.638  0.00  0.00    +0.000 C 
ATOM      9  C   UNL     1       1.600  14.178  19.213  0.00  0.00    +0.000 C 
ATOM     10  C   UNL     1       1.625  12.588  19.430  0.00  0.00    +0.000 C 
ENDROOT
BRANCH   1  15
ATOM     11  C   UNL     1       3.334   6.422  18.891  0.00  0.00    +0.000 C 
ATOM     12  C   UNL     1       2.368   7.567  18.974  0.00  0.00    +0.000 A 
ATOM     13  C   UNL     1       1.804   7.961  20.195  0.00  0.00    +0.000 A 
ATOM     14  C   UNL     1       0.921   9.044  20.251  0.00  0.00    +0.000 A 
ATOM     15  C   UNL     1       0.586   9.734  19.082  0.00  0.00    +0.000 A 
ATOM     16  C   UNL     1       1.164   9.356  17.866  0.00  0.00    +0.000 A 
ATOM     17  C   UNL     1       2.033   8.267  17.809  0.00  0.00    +0.000 A 
ENDBRANCH   1  15
BRANCH   7  18
ATOM     18  C   UNL     1       0.328  16.864  18.329  0.00  0.00    +0.000 C 
ATOM     19  C   UNL     1      -0.743  17.963  18.315  0.00  0.00    +0.000 C 
ATOM     20  C   UNL     1      -0.630  18.564  16.927  0.00  0.00    +0.000 C 
ATOM     21  C   UNL     1       0.868  18.631  16.690  0.00  0.00    +0.000 C 
ATOM     22  C   UNL     1       1.472  17.474  17.489  0.00  0.00    +0.000 C 
ENDBRANCH   7  18
BRANCH   9  23
ATOM     23  C   UNL     1       3.132  13.977  19.040  0.00  0.00    +0.000 C 
ATOM     24  O   UNL     1       4.026  14.491  19.700  0.00  0.00    +0.000 OA
BRANCH  23  25
ATOM     25  O   UNL     1       3.400  13.114  18.020  0.00  0.00    +0.000 OA
ATOM     26  H   UNL     1       3.376  12.168  18.270  0.00  0.00    +0.000 HD
ENDBRANCH  23  25
ENDBRANCH   9  23
TORSDOF 4
ENDMDL
MODEL 9
REMARK VINA RESULT:      -7.0      2.543      4.218
REMARK  Name = 
REMARK  5 active torsions:
REMARK  status: ('A' for Active; 'I' for Inactive)
REMARK    1  A    between atoms: C_1  and  C_2
REMARK    2  A    between atoms: C_5  and  C_6
REMARK    3  A    between atoms: N_12  and  C_13
REMARK    4  A    between atoms: C_19  and  C_20
REMARK    5  A    between atoms: C_20  and  O_22
REMARK                            x       y       z     vdW  Elec       q    Type
REMARK                         _______ _______ _______ _____ _____    ______ ____
ROOT
ATOM      1  C   UNL     1       1.826   5.939  20.091  0.00  0.00    +0.000 C 
ATOM      2  O   UNL     1       1.144   5.236  20.831  0.00  0.00    +0.000 OA
ATOM      3  N   UNL     1       1.743   7.319  20.099  0.00  0.00    +0.000 N 
ATOM      4  C   UNL     1       1.087   8.023  21.153  0.00  0.00    +0.000 C 
ATOM      5  C   UNL     1       1.427   9.457  20.801  0.00  0.00    +0.000 C 
ATOM      6  C   UNL     1       0.515  10.415  21.542  0.00  0.00    +0.000 C 
ATOM      7  N   UNL     1       0.028  11.309  20.509  0.00  0.00    +0.000 NA
ATOM      8  C   UNL     1       1.018  11.125  19.426  0.00  0.00    +0.000 C 
ATOM      9  C   UNL     1       1.220   9.564  19.230  0.00  0.00    +0.000 C 
ATOM     10  C   UNL     1       2.164   8.274  19.084  0.00  0.00    +0.000 C 
ENDROOT
BRANCH   1  15
ATOM     11  C   UNL     1       5.604   3.566  16.396  0.00  0.00    +0.000 C 
ATOM     12  C   UNL     1       4.637   4.161  17.377  0.00  0.00    +0.000 A 
ATOM     13  C   UNL     1       5.080   4.812  18.537  0.00  0.00    +0.000 A 
ATOM     14  C   UNL     1       4.162   5.377  19.427  0.00  0.00    +0.000 A 
ATOM     15  C   UNL     1       2.791   5.284  19.170  0.00  0.00    +0.000 A 
ATOM     16  C   UNL     1       2.348   4.654  18.003  0.00  0.00    +0.000 A 
ATOM     17  C   UNL     1       3.264   4.078  17.123  0.00  0.00    +0.000 A 
ENDBRANCH   1  15
BRANCH   7  18
ATOM     18  C   UNL     1      -1.358  11.066  20.076  0.00  0.00    +0.000 C 
ATOM     19  C   UNL     1      -2.328  12.227  20.333  0.00  0.00    +0.000 C 
ATOM     20  C   UNL     1      -3.452  11.987  19.343  0.00  0.00    +0.000 C 
ATOM     21  C   UNL     1      -2.727  11.556  18.081  0.00  0.00    +0.000 C 
ATOM     22  C   UNL     1      -1.446  10.862  18.549  0.00  0.00    +0.000 C 
ENDBRANCH   7  18
BRANCH   9  23
ATOM     23  C   UNL     1       1.954  10.001  17.931  0.00  0.00    +0.000 C 
ATOM     24  O   UNL     1       2.449   9.275  17.080  0.00  0.00    +0.000 OA
BRANCH  23  25
ATOM     25  O   UNL     1       1.989  11.359  17.823  0.00  0.00    +0.000 OA
ATOM     26  H   UNL     1       1.650  11.709  16.974  0.00  0.00    +0.000 HD
ENDBRANCH  23  25
ENDBRANCH   9  23
TORSDOF 4
ENDMDL
