MODEL 1
REMARK VINA RESULT:      -7.8      0.000      0.000
REMARK  Name = 
REMARK  11 active torsions:
REMARK  status: ('A' for Active; 'I' for Inactive)
REMARK    1  A    between atoms: C_1  and  O_2
REMARK    2  A    between atoms: O_2  and  C_3
REMARK    3  A    between atoms: C_5  and  C_6
REMARK    4  A    between atoms: N_8  and  C_9
REMARK    5  A    between atoms: C_9  and  C_10
REMARK    6  A    between atoms: C_10  and  C_11
REMARK    7  A    between atoms: N_13  and  C_14
REMARK    8  A    between atoms: C_23  and  O_24
REMARK    9  A    between atoms: O_24  and  C_25
REMARK   10  A    between atoms: C_26  and  O_27
REMARK   11  A    between atoms: O_27  and  C_28
REMARK                            x       y       z     vdW  Elec       q    Type
REMARK                         _______ _______ _______ _____ _____    ______ ____
ROOT
ATOM      1  C   UNL     1       8.435   9.301  18.420  0.00  0.00    +0.000 C 
ATOM      2  O   UNL     1       7.514   9.642  17.694  0.00  0.00    +0.000 OA
ATOM      3  N   UNL     1       8.625   7.994  18.831  0.00  0.00    +0.000 N 
ATOM      4  H   UNL     1       9.186   7.793  19.653  0.00  0.00    +0.000 HD
ENDROOT
BRANCH   1   7
ATOM      5  C   UNL     1      11.129  11.969  18.462  0.00  0.00    +0.000 A 
ATOM      6  C   UNL     1      10.378  10.827  18.116  0.00  0.00    +0.000 A 
ATOM      7  C   UNL     1       9.371  10.338  18.956  0.00  0.00    +0.000 A 
ATOM      8  C   UNL     1       9.239  10.906  20.214  0.00  0.00    +0.000 A 
ATOM      9  C   UNL     1      10.029  11.983  20.616  0.00  0.00    +0.000 A 
ATOM     10  C   UNL     1      10.981  12.549  19.740  0.00  0.00    +0.000 A 
BRANCH   5  12
ATOM     11  C   UNL     1      11.304  13.393  16.588  0.00  0.00    +0.000 C 
ATOM     12  O   UNL     1      11.966  12.526  17.524  0.00  0.00    +0.000 OA
ENDBRANCH   5  12
BRANCH   9  13
ATOM     13  O   UNL     1       9.666  12.396  21.877  0.00  0.00    +0.000 OA
ATOM     14  C   UNL     1       8.536  11.821  22.514  0.00  0.00    +0.000 C 
ENDBRANCH   9  13
BRANCH  10  15
ATOM     15  O   UNL     1      11.626  13.647  20.233  0.00  0.00    +0.000 OA
ATOM     16  C   UNL     1      11.195  14.969  19.995  0.00  0.00    +0.000 C 
ENDBRANCH  10  15
ENDBRANCH   1   7
BRANCH   3  17
ATOM     17  C   UNL     1       7.688   6.946  18.470  0.00  0.00    +0.000 C 
BRANCH  17  18
ATOM     18  C   UNL     1       7.610   6.704  16.953  0.00  0.00    +0.000 C 
BRANCH  18  19
ATOM     19  C   UNL     1       6.252   6.164  16.552  0.00  0.00    +0.000 C 
ATOM     20  O   UNL     1       5.975   5.899  15.377  0.00  0.00    +0.000 OA
ATOM     21  N   UNL     1       5.331   6.048  17.570  0.00  0.00    +0.000 N 
ATOM     22  H   UNL     1       5.646   6.163  18.526  0.00  0.00    +0.000 HD
BRANCH  21  23
ATOM     23  C   UNL     1       3.958   5.554  17.336  0.00  0.00    +0.000 C 
ATOM     24  C   UNL     1       3.889   4.032  17.534  0.00  0.00    +0.000 C 
ATOM     25  C   UNL     1       2.534   3.362  17.271  0.00  0.00    +0.000 C 
ATOM     26  C   UNL     1       1.397   3.617  18.267  0.00  0.00    +0.000 C 
ATOM     27  C   UNL     1       1.805   3.797  19.730  0.00  0.00    +0.000 C 
ATOM     28  C   UNL     1       1.841   5.250  20.205  0.00  0.00    +0.000 C 
ATOM     29  C   UNL     1       2.948   6.156  19.659  0.00  0.00    +0.000 C 
ATOM     30  C   UNL     1       2.949   6.384  18.145  0.00  0.00    +0.000 C 
ENDBRANCH  21  23
ENDBRANCH  18  19
ENDBRANCH  17  18
ENDBRANCH   3  17
TORSDOF 8
ENDMDL
MODEL 2
REMARK VINA RESULT:      -7.5      5.208      9.027
REMARK  Name = 
REMARK  11 active torsions:
REMARK  status: ('A' for Active; 'I' for Inactive)
REMARK    1  A    between atoms: C_1  and  O_2
REMARK    2  A    between atoms: O_2  and  C_3
REMARK    3  A    between atoms: C_5  and  C_6
REMARK    4  A    between atoms: N_8  and  C_9
REMARK    5  A    between atoms: C_9  and  C_10
REMARK    6  A    between atoms: C_10  and  C_11
REMARK    7  A    between atoms: N_13  and  C_14
REMARK    8  A    between atoms: C_23  and  O_24
REMARK    9  A    between atoms: O_24  and  C_25
REMARK   10  A    between atoms: C_26  and  O_27
REMARK   11  A    between atoms: O_27  and  C_28
REMARK                            x       y       z     vdW  Elec       q    Type
REMARK                         _______ _______ _______ _____ _____    ______ ____
ROOT
ATOM      1  C   UNL     1       2.357   6.326  19.750  0.00  0.00    +0.000 C 
ATOM      2  O   UNL     1       1.954   5.594  20.642  0.00  0.00    +0.000 OA
ATOM      3  N   UNL     1       2.028   7.667  19.671  0.00  0.00    +0.000 N 
ATOM      4  H   UNL     1       2.109   8.162  18.789  0.00  0.00    +0.000 HD
ENDROOT
BRANCH   1   7
ATOM      5  C   UNL     1       5.031   6.093  17.071  0.00  0.00    +0.000 A 
ATOM      6  C   UNL     1       4.048   6.602  17.944  0.00  0.00    +0.000 A 
ATOM      7  C   UNL     1       3.187   5.750  18.646  0.00  0.00    +0.000 A 
ATOM      8  C   UNL     1       3.214   4.400  18.338  0.00  0.00    +0.000 A 
ATOM      9  C   UNL     1       4.119   3.879  17.413  0.00  0.00    +0.000 A 
ATOM     10  C   UNL     1       5.060   4.714  16.771  0.00  0.00    +0.000 A 
BRANCH   5  12
ATOM     11  C   UNL     1       7.189   7.014  17.330  0.00  0.00    +0.000 C 
ATOM     12  O   UNL     1       5.977   6.949  16.559  0.00  0.00    +0.000 OA
ENDBRANCH   5  12
BRANCH   9  13
ATOM     13  O   UNL     1       3.982   2.512  17.330  0.00  0.00    +0.000 OA
ATOM     14  C   UNL     1       3.292   1.805  18.347  0.00  0.00    +0.000 C 
ENDBRANCH   9  13
BRANCH  10  15
ATOM     15  O   UNL     1       5.936   4.060  15.953  0.00  0.00    +0.000 OA
ATOM     16  C   UNL     1       5.913   4.173  14.547  0.00  0.00    +0.000 C 
ENDBRANCH  10  15
ENDBRANCH   1   7
BRANCH   3  17
ATOM     17  C   UNL     1       1.118   8.277  20.624  0.00  0.00    +0.000 C 
BRANCH  17  18
ATOM     18  C   UNL     1       1.305   9.799  20.746  0.00  0.00    +0.000 C 
BRANCH  18  19
ATOM     19  C   UNL     1       0.710  10.522  19.555  0.00  0.00    +0.000 C 
ATOM     20  O   UNL     1       1.305  11.444  18.987  0.00  0.00    +0.000 OA
ATOM     21  N   UNL     1      -0.558  10.127  19.188  0.00  0.00    +0.000 N 
ATOM     22  H   UNL     1      -0.946   9.291  19.607  0.00  0.00    +0.000 HD
BRANCH  21  23
ATOM     23  C   UNL     1      -1.279  10.749  18.058  0.00  0.00    +0.000 C 
ATOM     24  C   UNL     1      -2.209   9.730  17.382  0.00  0.00    +0.000 C 
ATOM     25  C   UNL     1      -2.988  10.215  16.152  0.00  0.00    +0.000 C 
ATOM     26  C   UNL     1      -4.125  11.220  16.368  0.00  0.00    +0.000 C 
ATOM     27  C   UNL     1      -4.911  11.085  17.673  0.00  0.00    +0.000 C 
ATOM     28  C   UNL     1      -4.522  12.091  18.757  0.00  0.00    +0.000 C 
ATOM     29  C   UNL     1      -3.153  11.933  19.424  0.00  0.00    +0.000 C 
ATOM     30  C   UNL     1      -1.936  12.065  18.505  0.00  0.00    +0.000 C 
ENDBRANCH  21  23
ENDBRANCH  18  19
ENDBRANCH  17  18
ENDBRANCH   3  17
TORSDOF 8
ENDMDL
MODEL 3
REMARK VINA RESULT:      -7.4      5.624      8.453
REMARK  Name = 
REMARK  11 active torsions:
REMARK  status: ('A' for Active; 'I' for Inactive)
REMARK    1  A    between atoms: C_1  and  O_2
REMARK    2  A    between atoms: O_2  and  C_3
REMARK    3  A    between atoms: C_5  and  C_6
REMARK    4  A    between atoms: N_8  and  C_9
REMARK    5  A    between atoms: C_9  and  C_10
REMARK    6  A    between atoms: C_10  and  C_11
REMARK    7  A    between atoms: N_13  and  C_14
REMARK    8  A    between atoms: C_23  and  O_24
REMARK    9  A    between atoms: O_24  and  C_25
REMARK   10  A    between atoms: C_26  and  O_27
REMARK   11  A    between atoms: O_27  and  C_28
REMARK                            x       y       z     vdW  Elec       q    Type
REMARK                         _______ _______ _______ _____ _____    ______ ____
ROOT
ATOM      1  C   UNL     1       1.698   7.769  20.137  0.00  0.00    +0.000 C 
ATOM      2  O   UNL     1       2.536   7.571  19.269  0.00  0.00    +0.000 OA
ATOM      3  N   UNL     1       1.337   6.810  21.066  0.00  0.00    +0.000 N 
ATOM      4  H   UNL     1       0.452   6.883  21.558  0.00  0.00    +0.000 HD
ENDROOT
BRANCH   1   7
ATOM      5  C   UNL     1      -0.439  10.673  18.964  0.00  0.00    +0.000 A 
ATOM      6  C   UNL     1       0.462   9.588  18.973  0.00  0.00    +0.000 A 
ATOM      7  C   UNL     1       0.971   9.076  20.171  0.00  0.00    +0.000 A 
ATOM      8  C   UNL     1       0.697   9.764  21.343  0.00  0.00    +0.000 A 
ATOM      9  C   UNL     1      -0.122  10.893  21.352  0.00  0.00    +0.000 A 
ATOM     10  C   UNL     1      -0.722  11.363  20.163  0.00  0.00    +0.000 A 
BRANCH   5  12
ATOM     11  C   UNL     1      -2.215  10.210  17.480  0.00  0.00    +0.000 C 
ATOM     12  O   UNL     1      -1.063  11.013  17.787  0.00  0.00    +0.000 OA
ENDBRANCH   5  12
BRANCH   9  13
ATOM     13  O   UNL     1      -0.282  11.356  22.638  0.00  0.00    +0.000 OA
ATOM     14  C   UNL     1      -1.530  11.206  23.296  0.00  0.00    +0.000 C 
ENDBRANCH   9  13
BRANCH  10  15
ATOM     15  O   UNL     1      -1.562  12.425  20.331  0.00  0.00    +0.000 OA
ATOM     16  C   UNL     1      -1.149  13.768  20.196  0.00  0.00    +0.000 C 
ENDBRANCH  10  15
ENDBRANCH   1   7
BRANCH   3  17
ATOM     17  C   UNL     1       1.893   5.470  21.022  0.00  0.00    +0.000 C 
BRANCH  17  18
ATOM     18  C   UNL     1       1.221   4.572  19.970  0.00  0.00    +0.000 C 
BRANCH  18  19
ATOM     19  C   UNL     1       2.214   4.119  18.919  0.00  0.00    +0.000 C 
ATOM     20  O   UNL     1       2.053   3.077  18.274  0.00  0.00    +0.000 OA
ATOM     21  N   UNL     1       3.334   4.909  18.775  0.00  0.00    +0.000 N 
ATOM     22  H   UNL     1       3.355   5.809  19.239  0.00  0.00    +0.000 HD
BRANCH  21  23
ATOM     23  C   UNL     1       4.401   4.591  17.805  0.00  0.00    +0.000 C 
ATOM     24  C   UNL     1       4.519   5.698  16.746  0.00  0.00    +0.000 C 
ATOM     25  C   UNL     1       5.553   5.482  15.633  0.00  0.00    +0.000 C 
ATOM     26  C   UNL     1       7.039   5.573  16.000  0.00  0.00    +0.000 C 
ATOM     27  C   UNL     1       7.406   6.572  17.098  0.00  0.00    +0.000 C 
ATOM     28  C   UNL     1       7.645   5.945  18.473  0.00  0.00    +0.000 C 
ATOM     29  C   UNL     1       6.436   5.380  19.224  0.00  0.00    +0.000 C 
ATOM     30  C   UNL     1       5.699   4.225  18.542  0.00  0.00    +0.000 C 
ENDBRANCH  21  23
ENDBRANCH  18  19
ENDBRANCH  17  18
ENDBRANCH   3  17
TORSDOF 8
ENDMDL
MODEL 4
REMARK VINA RESULT:      -7.4      4.739      8.123
REMARK  Name = 
REMARK  11 active torsions:
REMARK  status: ('A' for Active; 'I' for Inactive)
REMARK    1  A    between atoms: C_1  and  O_2
REMARK    2  A    between atoms: O_2  and  C_3
REMARK    3  A    between atoms: C_5  and  C_6
REMARK    4  A    between atoms: N_8  and  C_9
REMARK    5  A    between atoms: C_9  and  C_10
REMARK    6  A    between atoms: C_10  and  C_11
REMARK    7  A    between atoms: N_13  and  C_14
REMARK    8  A    between atoms: C_23  and  O_24
REMARK    9  A    between atoms: O_24  and  C_25
REMARK   10  A    between atoms: C_26  and  O_27
REMARK   11  A    between atoms: O_27  and  C_28
REMARK                            x       y       z     vdW  Elec       q    Type
REMARK                         _______ _______ _______ _____ _____    ______ ____
ROOT
ATOM      1  C   UNL     1       3.989   3.915  17.585  0.00  0.00    +0.000 C 
ATOM      2  O   UNL     1       3.923   2.807  18.098  0.00  0.00    +0.000 OA
ATOM      3  N   UNL     1       2.997   4.869  17.722  0.00  0.00    +0.000 N 
ATOM      4  H   UNL     1       2.927   5.633  17.058  0.00  0.00    +0.000 HD
ENDROOT
BRANCH   1   7
ATOM      5  C   UNL     1       6.232   3.973  14.528  0.00  0.00    +0.000 A 
ATOM      6  C   UNL     1       5.313   3.547  15.510  0.00  0.00    +0.000 A 
ATOM      7  C   UNL     1       5.155   4.250  16.709  0.00  0.00    +0.000 A 
ATOM      8  C   UNL     1       6.040   5.282  16.982  0.00  0.00    +0.000 A 
ATOM      9  C   UNL     1       7.017   5.669  16.064  0.00  0.00    +0.000 A 
ATOM     10  C   UNL     1       7.122   5.032  14.807  0.00  0.00    +0.000 A 
BRANCH   5  12
ATOM     11  C   UNL     1       4.954   3.482  12.604  0.00  0.00    +0.000 C 
ATOM     12  O   UNL     1       6.212   3.372  13.291  0.00  0.00    +0.000 OA
ENDBRANCH   5  12
BRANCH   9  13
ATOM     13  O   UNL     1       7.724   6.746  16.546  0.00  0.00    +0.000 OA
ATOM     14  C   UNL     1       7.150   7.587  17.533  0.00  0.00    +0.000 C 
ENDBRANCH   9  13
BRANCH  10  15
ATOM     15  O   UNL     1       8.066   5.564  13.977  0.00  0.00    +0.000 OA
ATOM     16  C   UNL     1       7.980   5.507  12.570  0.00  0.00    +0.000 C 
ENDBRANCH  10  15
ENDBRANCH   1   7
BRANCH   3  17
ATOM     17  C   UNL     1       1.769   4.581  18.441  0.00  0.00    +0.000 C 
BRANCH  17  18
ATOM     18  C   UNL     1       1.802   5.054  19.905  0.00  0.00    +0.000 C 
BRANCH  18  19
ATOM     19  C   UNL     1       2.150   6.525  19.998  0.00  0.00    +0.000 C 
ATOM     20  O   UNL     1       3.200   6.979  19.528  0.00  0.00    +0.000 OA
ATOM     21  N   UNL     1       1.255   7.310  20.691  0.00  0.00    +0.000 N 
ATOM     22  H   UNL     1       0.359   6.912  20.948  0.00  0.00    +0.000 HD
BRANCH  21  23
ATOM     23  C   UNL     1       1.463   8.759  20.883  0.00  0.00    +0.000 C 
ATOM     24  C   UNL     1       0.610   9.566  19.892  0.00  0.00    +0.000 C 
ATOM     25  C   UNL     1       0.761  11.092  19.933  0.00  0.00    +0.000 C 
ATOM     26  C   UNL     1       0.193  11.842  21.143  0.00  0.00    +0.000 C 
ATOM     27  C   UNL     1      -1.073  11.256  21.771  0.00  0.00    +0.000 C 
ATOM     28  C   UNL     1      -0.835  10.447  23.046  0.00  0.00    +0.000 C 
ATOM     29  C   UNL     1      -0.129   9.094  22.916  0.00  0.00    +0.000 C 
ATOM     30  C   UNL     1       1.299   9.129  22.366  0.00  0.00    +0.000 C 
ENDBRANCH  21  23
ENDBRANCH  18  19
ENDBRANCH  17  18
ENDBRANCH   3  17
TORSDOF 8
ENDMDL
MODEL 5
REMARK VINA RESULT:      -7.4      6.729     10.710
REMARK  Name = 
REMARK  11 active torsions:
REMARK  status: ('A' for Active; 'I' for Inactive)
REMARK    1  A    between atoms: C_1  and  O_2
REMARK    2  A    between atoms: O_2  and  C_3
REMARK    3  A    between atoms: C_5  and  C_6
REMARK    4  A    between atoms: N_8  and  C_9
REMARK    5  A    between atoms: C_9  and  C_10
REMARK    6  A    between atoms: C_10  and  C_11
REMARK    7  A    between atoms: N_13  and  C_14
REMARK    8  A    between atoms: C_23  and  O_24
REMARK    9  A    between atoms: O_24  and  C_25
REMARK   10  A    between atoms: C_26  and  O_27
REMARK   11  A    between atoms: O_27  and  C_28
REMARK                            x       y       z     vdW  Elec       q    Type
REMARK                         _______ _______ _______ _____ _____    ______ ____
ROOT
ATOM      1  C   UNL     1       2.174   8.407  18.369  0.00  0.00    +0.000 C 
ATOM      2  O   UNL     1       2.342   8.974  17.299  0.00  0.00    +0.000 OA
ATOM      3  N   UNL     1       1.445   8.959  19.407  0.00  0.00    +0.000 N 
ATOM      4  H   UNL     1       1.577   8.627  20.357  0.00  0.00    +0.000 HD
ENDROOT
BRANCH   1   7
ATOM      5  C   UNL     1       2.856   5.009  19.907  0.00  0.00    +0.000 A 
ATOM      6  C   UNL     1       2.467   6.355  19.746  0.00  0.00    +0.000 A 
ATOM      7  C   UNL     1       2.835   7.087  18.612  0.00  0.00    +0.000 A 
ATOM      8  C   UNL     1       3.730   6.509  17.726  0.00  0.00    +0.000 A 
ATOM      9  C   UNL     1       4.200   5.208  17.906  0.00  0.00    +0.000 A 
ATOM     10  C   UNL     1       3.759   4.423  18.994  0.00  0.00    +0.000 A 
BRANCH   5  12
ATOM     11  C   UNL     1       1.051   3.660  20.611  0.00  0.00    +0.000 C 
ATOM     12  O   UNL     1       2.311   4.274  20.933  0.00  0.00    +0.000 OA
ENDBRANCH   5  12
BRANCH   9  13
ATOM     13  O   UNL     1       5.027   4.851  16.865  0.00  0.00    +0.000 OA
ATOM     14  C   UNL     1       5.374   5.806  15.876  0.00  0.00    +0.000 C 
ENDBRANCH   9  13
BRANCH  10  15
ATOM     15  O   UNL     1       4.236   3.143  19.003  0.00  0.00    +0.000 OA
ATOM     16  C   UNL     1       3.573   2.066  18.379  0.00  0.00    +0.000 C 
ENDBRANCH  10  15
ENDBRANCH   1   7
BRANCH   3  17
ATOM     17  C   UNL     1       0.883  10.293  19.307  0.00  0.00    +0.000 C 
BRANCH  17  18
ATOM     18  C   UNL     1      -0.531  10.398  19.902  0.00  0.00    +0.000 C 
BRANCH  18  19
ATOM     19  C   UNL     1      -0.494  10.957  21.310  0.00  0.00    +0.000 C 
ATOM     20  O   UNL     1       0.375  10.622  22.123  0.00  0.00    +0.000 OA
ATOM     21  N   UNL     1      -1.522  11.812  21.642  0.00  0.00    +0.000 N 
ATOM     22  H   UNL     1      -2.133  12.145  20.906  0.00  0.00    +0.000 HD
BRANCH  21  23
ATOM     23  C   UNL     1      -1.634  12.425  22.981  0.00  0.00    +0.000 C 
ATOM     24  C   UNL     1      -1.254  13.913  22.930  0.00  0.00    +0.000 C 
ATOM     25  C   UNL     1      -1.269  14.676  24.261  0.00  0.00    +0.000 C 
ATOM     26  C   UNL     1      -2.627  14.970  24.910  0.00  0.00    +0.000 C 
ATOM     27  C   UNL     1      -3.794  15.225  23.956  0.00  0.00    +0.000 C 
ATOM     28  C   UNL     1      -4.733  14.033  23.766  0.00  0.00    +0.000 C 
ATOM     29  C   UNL     1      -4.207  12.821  22.992  0.00  0.00    +0.000 C 
ATOM     30  C   UNL     1      -3.002  12.102  23.602  0.00  0.00    +0.000 C 
ENDBRANCH  21  23
ENDBRANCH  18  19
ENDBRANCH  17  18
ENDBRANCH   3  17
TORSDOF 8
ENDMDL
MODEL 6
REMARK VINA RESULT:      -7.3      6.846     10.250
REMARK  Name = 
REMARK  11 active torsions:
REMARK  status: ('A' for Active; 'I' for Inactive)
REMARK    1  A    between atoms: C_1  and  O_2
REMARK    2  A    between atoms: O_2  and  C_3
REMARK    3  A    between atoms: C_5  and  C_6
REMARK    4  A    between atoms: N_8  and  C_9
REMARK    5  A    between atoms: C_9  and  C_10
REMARK    6  A    between atoms: C_10  and  C_11
REMARK    7  A    between atoms: N_13  and  C_14
REMARK    8  A    between atoms: C_23  and  O_24
REMARK    9  A    between atoms: O_24  and  C_25
REMARK   10  A    between atoms: C_26  and  O_27
REMARK   11  A    between atoms: O_27  and  C_28
REMARK                            x       y       z     vdW  Elec       q    Type
REMARK                         _______ _______ _______ _____ _____    ______ ____
ROOT
ATOM      1  C   UNL     1      -0.078  10.738  18.920  0.00  0.00    +0.000 C 
ATOM      2  O   UNL     1       0.264  10.815  20.091  0.00  0.00    +0.000 OA
ATOM      3  N   UNL     1       0.788  10.372  17.905  0.00  0.00    +0.000 N 
ATOM      4  H   UNL     1       0.576  10.611  16.942  0.00  0.00    +0.000 HD
ENDROOT
BRANCH   1   7
ATOM      5  C   UNL     1      -3.388  10.696  17.069  0.00  0.00    +0.000 A 
ATOM      6  C   UNL     1      -2.013  10.583  17.362  0.00  0.00    +0.000 A 
ATOM      7  C   UNL     1      -1.473  11.120  18.536  0.00  0.00    +0.000 A 
ATOM      8  C   UNL     1      -2.292  11.909  19.328  0.00  0.00    +0.000 A 
ATOM      9  C   UNL     1      -3.637  12.109  19.016  0.00  0.00    +0.000 A 
ATOM     10  C   UNL     1      -4.219  11.492  17.887  0.00  0.00    +0.000 A 
BRANCH   5  12
ATOM     11  C   UNL     1      -3.324  10.322  14.739  0.00  0.00    +0.000 C 
ATOM     12  O   UNL     1      -3.906   9.988  16.011  0.00  0.00    +0.000 OA
ENDBRANCH   5  12
BRANCH   9  13
ATOM     13  O   UNL     1      -4.241  12.879  19.984  0.00  0.00    +0.000 OA
ATOM     14  C   UNL     1      -5.188  12.296  20.865  0.00  0.00    +0.000 C 
ENDBRANCH   9  13
BRANCH  10  15
ATOM     15  O   UNL     1      -5.560  11.708  17.748  0.00  0.00    +0.000 OA
ATOM     16  C   UNL     1      -6.097  12.761  16.979  0.00  0.00    +0.000 C 
ENDBRANCH  10  15
ENDBRANCH   1   7
BRANCH   3  17
ATOM     17  C   UNL     1       2.192  10.117  18.169  0.00  0.00    +0.000 C 
BRANCH  17  18
ATOM     18  C   UNL     1       2.657   8.736  17.673  0.00  0.00    +0.000 C 
BRANCH  18  19
ATOM     19  C   UNL     1       2.220   7.638  18.621  0.00  0.00    +0.000 C 
ATOM     20  O   UNL     1       1.823   7.882  19.766  0.00  0.00    +0.000 OA
ATOM     21  N   UNL     1       2.352   6.351  18.147  0.00  0.00    +0.000 N 
ATOM     22  H   UNL     1       2.565   6.215  17.166  0.00  0.00    +0.000 HD
BRANCH  21  23
ATOM     23  C   UNL     1       1.985   5.173  18.958  0.00  0.00    +0.000 C 
ATOM     24  C   UNL     1       1.452   4.043  18.064  0.00  0.00    +0.000 C 
ATOM     25  C   UNL     1       0.977   2.767  18.771  0.00  0.00    +0.000 C 
ATOM     26  C   UNL     1       2.034   1.860  19.411  0.00  0.00    +0.000 C 
ATOM     27  C   UNL     1       3.388   1.793  18.704  0.00  0.00    +0.000 C 
ATOM     28  C   UNL     1       4.485   2.641  19.349  0.00  0.00    +0.000 C 
ATOM     29  C   UNL     1       4.369   4.165  19.243  0.00  0.00    +0.000 C 
ATOM     30  C   UNL     1       3.139   4.795  19.901  0.00  0.00    +0.000 C 
ENDBRANCH  21  23
ENDBRANCH  18  19
ENDBRANCH  17  18
ENDBRANCH   3  17
TORSDOF 8
ENDMDL
MODEL 7
REMARK VINA RESULT:      -7.3      6.837     10.180
REMARK  Name = 
REMARK  11 active torsions:
REMARK  status: ('A' for Active; 'I' for Inactive)
REMARK    1  A    between atoms: C_1  and  O_2
REMARK    2  A    between atoms: O_2  and  C_3
REMARK    3  A    between atoms: C_5  and  C_6
REMARK    4  A    between atoms: N_8  and  C_9
REMARK    5  A    between atoms: C_9  and  C_10
REMARK    6  A    between atoms: C_10  and  C_11
REMARK    7  A    between atoms: N_13  and  C_14
REMARK    8  A    between atoms: C_23  and  O_24
REMARK    9  A    between atoms: O_24  and  C_25
REMARK   10  A    between atoms: C_26  and  O_27
REMARK   11  A    between atoms: O_27  and  C_28
REMARK                            x       y       z     vdW  Elec       q    Type
REMARK                         _______ _______ _______ _____ _____    ______ ____
ROOT
ATOM      1  C   UNL     1      -0.212  10.907  19.223  0.00  0.00    +0.000 C 
ATOM      2  O   UNL     1       0.603  11.727  19.620  0.00  0.00    +0.000 OA
ATOM      3  N   UNL     1       0.092   9.569  19.045  0.00  0.00    +0.000 N 
ATOM      4  H   UNL     1      -0.482   8.991  18.440  0.00  0.00    +0.000 HD
ENDROOT
BRANCH   1   7
ATOM      5  C   UNL     1      -3.412  11.239  17.217  0.00  0.00    +0.000 A 
ATOM      6  C   UNL     1      -2.055  11.065  17.559  0.00  0.00    +0.000 A 
ATOM      7  C   UNL     1      -1.586  11.362  18.843  0.00  0.00    +0.000 A 
ATOM      8  C   UNL     1      -2.452  11.986  19.726  0.00  0.00    +0.000 A 
ATOM      9  C   UNL     1      -3.779  12.249  19.384  0.00  0.00    +0.000 A 
ATOM     10  C   UNL     1      -4.293  11.864  18.126  0.00  0.00    +0.000 A 
BRANCH   5  12
ATOM     11  C   UNL     1      -2.848  10.129  15.212  0.00  0.00    +0.000 C 
ATOM     12  O   UNL     1      -3.866  10.752  16.014  0.00  0.00    +0.000 OA
ENDBRANCH   5  12
BRANCH   9  13
ATOM     13  O   UNL     1      -4.442  12.819  20.448  0.00  0.00    +0.000 OA
ATOM     14  C   UNL     1      -3.767  13.735  21.294  0.00  0.00    +0.000 C 
ENDBRANCH   9  13
BRANCH  10  15
ATOM     15  O   UNL     1      -5.625  12.110  17.956  0.00  0.00    +0.000 OA
ATOM     16  C   UNL     1      -6.628  11.157  18.233  0.00  0.00    +0.000 C 
ENDBRANCH  10  15
ENDBRANCH   1   7
BRANCH   3  17
ATOM     17  C   UNL     1       1.437   9.067  19.260  0.00  0.00    +0.000 C 
BRANCH  17  18
ATOM     18  C   UNL     1       2.241   8.920  17.957  0.00  0.00    +0.000 C 
BRANCH  18  19
ATOM     19  C   UNL     1       2.875   7.548  17.856  0.00  0.00    +0.000 C 
ATOM     20  O   UNL     1       3.858   7.334  17.137  0.00  0.00    +0.000 OA
ATOM     21  N   UNL     1       2.250   6.546  18.566  0.00  0.00    +0.000 N 
ATOM     22  H   UNL     1       1.528   6.799  19.229  0.00  0.00    +0.000 HD
BRANCH  21  23
ATOM     23  C   UNL     1       2.738   5.152  18.553  0.00  0.00    +0.000 C 
ATOM     24  C   UNL     1       3.882   4.969  19.563  0.00  0.00    +0.000 C 
ATOM     25  C   UNL     1       4.532   3.581  19.627  0.00  0.00    +0.000 C 
ATOM     26  C   UNL     1       3.719   2.429  20.230  0.00  0.00    +0.000 C 
ATOM     27  C   UNL     1       2.763   2.796  21.366  0.00  0.00    +0.000 C 
ATOM     28  C   UNL     1       1.296   2.917  20.949  0.00  0.00    +0.000 C 
ATOM     29  C   UNL     1       0.896   4.104  20.067  0.00  0.00    +0.000 C 
ATOM     30  C   UNL     1       1.560   4.174  18.689  0.00  0.00    +0.000 C 
ENDBRANCH  21  23
ENDBRANCH  18  19
ENDBRANCH  17  18
ENDBRANCH   3  17
TORSDOF 8
ENDMDL
MODEL 8
REMARK VINA RESULT:      -7.3      1.204      1.302
REMARK  Name = 
REMARK  11 active torsions:
REMARK  status: ('A' for Active; 'I' for Inactive)
REMARK    1  A    between atoms: C_1  and  O_2
REMARK    2  A    between atoms: O_2  and  C_3
REMARK    3  A    between atoms: C_5  and  C_6
REMARK    4  A    between atoms: N_8  and  C_9
REMARK    5  A    between atoms: C_9  and  C_10
REMARK    6  A    between atoms: C_10  and  C_11
REMARK    7  A    between atoms: N_13  and  C_14
REMARK    8  A    between atoms: C_23  and  O_24
REMARK    9  A    between atoms: O_24  and  C_25
REMARK   10  A    between atoms: C_26  and  O_27
REMARK   11  A    between atoms: O_27  and  C_28
REMARK                            x       y       z     vdW  Elec       q    Type
REMARK                         _______ _______ _______ _____ _____    ______ ____
ROOT
ATOM      1  C   UNL     1       8.484   8.869  18.196  0.00  0.00    +0.000 C 
ATOM      2  O   UNL     1       7.938   8.889  17.103  0.00  0.00    +0.000 OA
ATOM      3  N   UNL     1       8.543   7.735  18.987  0.00  0.00    +0.000 N 
ATOM      4  H   UNL     1       8.715   7.816  19.984  0.00  0.00    +0.000 HD
ENDROOT
BRANCH   1   7
ATOM      5  C   UNL     1       9.827  12.413  18.302  0.00  0.00    +0.000 A 
ATOM      6  C   UNL     1       9.508  11.112  17.861  0.00  0.00    +0.000 A 
ATOM      7  C   UNL     1       9.059  10.132  18.754  0.00  0.00    +0.000 A 
ATOM      8  C   UNL     1       9.091  10.421  20.109  0.00  0.00    +0.000 A 
ATOM      9  C   UNL     1       9.485  11.674  20.579  0.00  0.00    +0.000 A 
ATOM     10  C   UNL     1       9.846  12.704  19.683  0.00  0.00    +0.000 A 
BRANCH   5  12
ATOM     11  C   UNL     1      11.357  13.291  16.733  0.00  0.00    +0.000 C 
ATOM     12  O   UNL     1      10.071  13.393  17.369  0.00  0.00    +0.000 OA
ENDBRANCH   5  12
BRANCH   9  13
ATOM     13  O   UNL     1       9.375  11.725  21.950  0.00  0.00    +0.000 OA
ATOM     14  C   UNL     1       8.101  11.873  22.554  0.00  0.00    +0.000 C 
ENDBRANCH   9  13
BRANCH  10  15
ATOM     15  O   UNL     1      10.131  13.901  20.275  0.00  0.00    +0.000 OA
ATOM     16  C   UNL     1      11.410  14.495  20.242  0.00  0.00    +0.000 C 
ENDBRANCH  10  15
ENDBRANCH   1   7
BRANCH   3  17
ATOM     17  C   UNL     1       7.893   6.501  18.584  0.00  0.00    +0.000 C 
BRANCH  17  18
ATOM     18  C   UNL     1       6.647   6.732  17.712  0.00  0.00    +0.000 C 
BRANCH  18  19
ATOM     19  C   UNL     1       5.861   5.450  17.528  0.00  0.00    +0.000 C 
ATOM     20  O   UNL     1       6.320   4.485  16.907  0.00  0.00    +0.000 OA
ATOM     21  N   UNL     1       4.583   5.453  18.044  0.00  0.00    +0.000 N 
ATOM     22  H   UNL     1       4.304   6.219  18.645  0.00  0.00    +0.000 HD
BRANCH  21  23
ATOM     23  C   UNL     1       3.687   4.284  17.929  0.00  0.00    +0.000 C 
ATOM     24  C   UNL     1       4.143   3.157  18.868  0.00  0.00    +0.000 C 
ATOM     25  C   UNL     1       3.339   1.851  18.821  0.00  0.00    +0.000 C 
ATOM     26  C   UNL     1       1.919   1.856  19.399  0.00  0.00    +0.000 C 
ATOM     27  C   UNL     1       1.679   2.771  20.600  0.00  0.00    +0.000 C 
ATOM     28  C   UNL     1       0.982   4.090  20.265  0.00  0.00    +0.000 C 
ATOM     29  C   UNL     1       1.771   5.137  19.472  0.00  0.00    +0.000 C 
ATOM     30  C   UNL     1       2.220   4.723  18.069  0.00  0.00    +0.000 C 
ENDBRANCH  21  23
ENDBRANCH  18  19
ENDBRANCH  17  18
ENDBRANCH   3  17
TORSDOF 8
ENDMDL
MODEL 9
REMARK VINA RESULT:      -7.2      6.899     10.351
REMARK  Name = 
REMARK  11 active torsions:
REMARK  status: ('A' for Active; 'I' for Inactive)
REMARK    1  A    between atoms: C_1  and  O_2
REMARK    2  A    between atoms: O_2  and  C_3
REMARK    3  A    between atoms: C_5  and  C_6
REMARK    4  A    between atoms: N_8  and  C_9
REMARK    5  A    between atoms: C_9  and  C_10
REMARK    6  A    between atoms: C_10  and  C_11
REMARK    7  A    between atoms: N_13  and  C_14
REMARK    8  A    between atoms: C_23  and  O_24
REMARK    9  A    between atoms: O_24  and  C_25
REMARK   10  A    between atoms: C_26  and  O_27
REMARK   11  A    between atoms: O_27  and  C_28
REMARK                            x       y       z     vdW  Elec       q    Type
REMARK                         _______ _______ _______ _____ _____    ______ ____
ROOT
ATOM      1  C   UNL     1       1.984   8.655  18.359  0.00  0.00    +0.000 C 
ATOM      2  O   UNL     1       2.178   9.231  17.298  0.00  0.00    +0.000 OA
ATOM      3  N   UNL     1       1.265   9.216  19.399  0.00  0.00    +0.000 N 
ATOM      4  H   UNL     1       1.379   8.868  20.346  0.00  0.00    +0.000 HD
ENDROOT
BRANCH   1   7
ATOM      5  C   UNL     1       4.447   5.786  18.079  0.00  0.00    +0.000 A 
ATOM      6  C   UNL     1       3.661   6.914  17.767  0.00  0.00    +0.000 A 
ATOM      7  C   UNL     1       2.602   7.312  18.590  0.00  0.00    +0.000 A 
ATOM      8  C   UNL     1       2.238   6.476  19.633  0.00  0.00    +0.000 A 
ATOM      9  C   UNL     1       2.945   5.306  19.913  0.00  0.00    +0.000 A 
ATOM     10  C   UNL     1       4.077   4.945  19.150  0.00  0.00    +0.000 A 
BRANCH   5  12
ATOM     11  C   UNL     1       6.743   6.272  17.825  0.00  0.00    +0.000 C 
ATOM     12  O   UNL     1       5.592   5.549  17.356  0.00  0.00    +0.000 OA
ENDBRANCH   5  12
BRANCH   9  13
ATOM     13  O   UNL     1       2.422   4.687  21.026  0.00  0.00    +0.000 OA
ATOM     14  C   UNL     1       1.347   3.772  20.889  0.00  0.00    +0.000 C 
ENDBRANCH   9  13
BRANCH  10  15
ATOM     15  O   UNL     1       4.720   3.821  19.584  0.00  0.00    +0.000 OA
ATOM     16  C   UNL     1       4.337   2.516  19.207  0.00  0.00    +0.000 C 
ENDBRANCH  10  15
ENDBRANCH   1   7
BRANCH   3  17
ATOM     17  C   UNL     1       0.745  10.569  19.313  0.00  0.00    +0.000 C 
BRANCH  17  18
ATOM     18  C   UNL     1      -0.666  10.712  19.909  0.00  0.00    +0.000 C 
BRANCH  18  19
ATOM     19  C   UNL     1      -0.613  11.279  21.313  0.00  0.00    +0.000 C 
ATOM     20  O   UNL     1       0.372  11.123  22.044  0.00  0.00    +0.000 OA
ATOM     21  N   UNL     1      -1.753  11.924  21.741  0.00  0.00    +0.000 N 
ATOM     22  H   UNL     1      -2.478  12.128  21.064  0.00  0.00    +0.000 HD
BRANCH  21  23
ATOM     23  C   UNL     1      -1.862  12.514  23.091  0.00  0.00    +0.000 C 
ATOM     24  C   UNL     1      -1.392  13.977  23.082  0.00  0.00    +0.000 C 
ATOM     25  C   UNL     1      -1.395  14.712  24.429  0.00  0.00    +0.000 C 
ATOM     26  C   UNL     1      -2.749  15.075  25.051  0.00  0.00    +0.000 C 
ATOM     27  C   UNL     1      -3.873  15.420  24.073  0.00  0.00    +0.000 C 
ATOM     28  C   UNL     1      -4.878  14.292  23.835  0.00  0.00    +0.000 C 
ATOM     29  C   UNL     1      -4.406  13.067  23.046  0.00  0.00    +0.000 C 
ATOM     30  C   UNL     1      -3.263  12.262  23.670  0.00  0.00    +0.000 C 
ENDBRANCH  21  23
ENDBRANCH  18  19
ENDBRANCH  17  18
ENDBRANCH   3  17
TORSDOF 8
ENDMDL
