MODEL 1
REMARK VINA RESULT:      -7.8      0.000      0.000
REMARK  Name = 
REMARK  4 active torsions:
REMARK  status: ('A' for Active; 'I' for Inactive)
REMARK    1  A    between atoms: C_2  and  C_3
REMARK    2  A    between atoms: C_2  and  C_10
REMARK    3  A    between atoms: C_8  and  O_9
REMARK    4  A    between atoms: C_16  and  O_17
REMARK                            x       y       z     vdW  Elec       q    Type
REMARK                         _______ _______ _______ _____ _____    ______ ____
ROOT
ATOM      1  C   UNL     1       4.145   3.651  17.858  0.00  0.00    +0.000 A 
ATOM      2  C   UNL     1       3.759   2.325  17.698  0.00  0.00    +0.000 A 
ATOM      3  N   UNL     1       3.021   2.011  18.784  0.00  0.00    +0.000 N 
ATOM      4  C   UNL     1       2.424   3.156  19.227  0.00  0.00    +0.000 A 
ATOM      5  C   UNL     1       1.214   3.345  19.897  0.00  0.00    +0.000 A 
ATOM      6  C   UNL     1       0.995   4.599  20.454  0.00  0.00    +0.000 A 
ATOM      7  C   UNL     1       1.997   5.555  20.420  0.00  0.00    +0.000 A 
ATOM      8  C   UNL     1       3.187   5.367  19.679  0.00  0.00    +0.000 A 
ATOM      9  C   UNL     1       3.330   4.178  18.932  0.00  0.00    +0.000 A 
ATOM     10  H   UNL     1       3.116   1.154  19.317  0.00  0.00    +0.000 HD
ENDROOT
BRANCH   1  12
ATOM     11  O   UNL     1       5.012   3.963  15.705  0.00  0.00    +0.000 OA
ATOM     12  C   UNL     1       5.133   4.203  16.918  0.00  0.00    +0.000 C 
BRANCH  12  13
ATOM     13  C   UNL     1       6.181   5.139  17.260  0.00  0.00    +0.000 A 
ATOM     14  C   UNL     1       6.986   4.805  18.364  0.00  0.00    +0.000 A 
ATOM     15  C   UNL     1       7.852   5.735  18.924  0.00  0.00    +0.000 A 
ATOM     16  C   UNL     1       7.923   7.015  18.376  0.00  0.00    +0.000 A 
ATOM     17  C   UNL     1       7.130   7.359  17.285  0.00  0.00    +0.000 A 
ATOM     18  C   UNL     1       6.253   6.413  16.744  0.00  0.00    +0.000 A 
BRANCH  18  19
ATOM     19  O   UNL     1       5.394   6.798  15.722  0.00  0.00    +0.000 OA
ATOM     20  H   UNL     1       5.004   7.657  15.934  0.00  0.00    +0.000 HD
ENDBRANCH  18  19
ENDBRANCH  12  13
ENDBRANCH   1  12
BRANCH   7  21
ATOM     21  O   UNL     1       1.859   6.716  21.134  0.00  0.00    +0.000 OA
ATOM     22  H   UNL     1       2.730   7.095  21.253  0.00  0.00    +0.000 HD
ENDBRANCH   7  21
TORSDOF 4
ENDMDL
MODEL 2
REMARK VINA RESULT:      -7.8      2.455      5.529
REMARK  Name = 
REMARK  4 active torsions:
REMARK  status: ('A' for Active; 'I' for Inactive)
REMARK    1  A    between atoms: C_2  and  C_3
REMARK    2  A    between atoms: C_2  and  C_10
REMARK    3  A    between atoms: C_8  and  O_9
REMARK    4  A    between atoms: C_16  and  O_17
REMARK                            x       y       z     vdW  Elec       q    Type
REMARK                         _______ _______ _______ _____ _____    ______ ____
ROOT
ATOM      1  C   UNL     1       4.366   5.090  17.616  0.00  0.00    +0.000 A 
ATOM      2  C   UNL     1       4.213   5.962  16.544  0.00  0.00    +0.000 A 
ATOM      3  N   UNL     1       5.031   7.008  16.789  0.00  0.00    +0.000 N 
ATOM      4  C   UNL     1       6.078   6.553  17.536  0.00  0.00    +0.000 A 
ATOM      5  C   UNL     1       7.401   6.996  17.607  0.00  0.00    +0.000 A 
ATOM      6  C   UNL     1       8.171   6.506  18.655  0.00  0.00    +0.000 A 
ATOM      7  C   UNL     1       7.589   5.705  19.624  0.00  0.00    +0.000 A 
ATOM      8  C   UNL     1       6.268   5.214  19.498  0.00  0.00    +0.000 A 
ATOM      9  C   UNL     1       5.545   5.533  18.329  0.00  0.00    +0.000 A 
ATOM     10  H   UNL     1       4.772   7.982  16.671  0.00  0.00    +0.000 HD
ENDROOT
BRANCH   1  12
ATOM     11  O   UNL     1       3.256   3.230  16.724  0.00  0.00    +0.000 OA
ATOM     12  C   UNL     1       3.439   3.951  17.719  0.00  0.00    +0.000 C 
BRANCH  12  13
ATOM     13  C   UNL     1       2.810   3.493  18.937  0.00  0.00    +0.000 A 
ATOM     14  C   UNL     1       1.594   4.107  19.287  0.00  0.00    +0.000 A 
ATOM     15  C   UNL     1       1.035   3.921  20.545  0.00  0.00    +0.000 A 
ATOM     16  C   UNL     1       1.691   3.109  21.468  0.00  0.00    +0.000 A 
ATOM     17  C   UNL     1       2.896   2.496  21.135  0.00  0.00    +0.000 A 
ATOM     18  C   UNL     1       3.451   2.708  19.868  0.00  0.00    +0.000 A 
BRANCH  18  19
ATOM     19  O   UNL     1       4.703   2.175  19.584  0.00  0.00    +0.000 OA
ATOM     20  H   UNL     1       5.219   2.109  20.400  0.00  0.00    +0.000 HD
ENDBRANCH  18  19
ENDBRANCH  12  13
ENDBRANCH   1  12
BRANCH   7  21
ATOM     21  O   UNL     1       8.291   5.383  20.756  0.00  0.00    +0.000 OA
ATOM     22  H   UNL     1       9.104   4.955  20.487  0.00  0.00    +0.000 HD
ENDBRANCH   7  21
TORSDOF 4
ENDMDL
MODEL 3
REMARK VINA RESULT:      -7.7      3.188      4.349
REMARK  Name = 
REMARK  4 active torsions:
REMARK  status: ('A' for Active; 'I' for Inactive)
REMARK    1  A    between atoms: C_2  and  C_3
REMARK    2  A    between atoms: C_2  and  C_10
REMARK    3  A    between atoms: C_8  and  O_9
REMARK    4  A    between atoms: C_16  and  O_17
REMARK                            x       y       z     vdW  Elec       q    Type
REMARK                         _______ _______ _______ _____ _____    ______ ____
ROOT
ATOM      1  C   UNL     1       5.374   5.318  16.447  0.00  0.00    +0.000 A 
ATOM      2  C   UNL     1       5.316   6.638  16.878  0.00  0.00    +0.000 A 
ATOM      3  N   UNL     1       4.091   6.806  17.420  0.00  0.00    +0.000 N 
ATOM      4  C   UNL     1       3.683   5.600  17.910  0.00  0.00    +0.000 A 
ATOM      5  C   UNL     1       2.840   5.296  18.981  0.00  0.00    +0.000 A 
ATOM      6  C   UNL     1       2.397   3.982  19.076  0.00  0.00    +0.000 A 
ATOM      7  C   UNL     1       2.710   3.073  18.079  0.00  0.00    +0.000 A 
ATOM      8  C   UNL     1       3.619   3.383  17.040  0.00  0.00    +0.000 A 
ATOM      9  C   UNL     1       4.242   4.649  17.051  0.00  0.00    +0.000 A 
ATOM     10  H   UNL     1       3.490   7.605  17.248  0.00  0.00    +0.000 HD
ENDROOT
BRANCH   1  12
ATOM     11  O   UNL     1       7.602   4.644  16.190  0.00  0.00    +0.000 OA
ATOM     12  C   UNL     1       6.526   4.906  15.628  0.00  0.00    +0.000 C 
BRANCH  12  13
ATOM     13  C   UNL     1       6.488   4.634  14.208  0.00  0.00    +0.000 A 
ATOM     14  C   UNL     1       5.513   3.722  13.768  0.00  0.00    +0.000 A 
ATOM     15  C   UNL     1       5.545   3.209  12.478  0.00  0.00    +0.000 A 
ATOM     16  C   UNL     1       6.558   3.611  11.611  0.00  0.00    +0.000 A 
ATOM     17  C   UNL     1       7.532   4.512  12.034  0.00  0.00    +0.000 A 
ATOM     18  C   UNL     1       7.491   5.007  13.342  0.00  0.00    +0.000 A 
BRANCH  18  19
ATOM     19  O   UNL     1       8.524   5.824  13.785  0.00  0.00    +0.000 OA
ATOM     20  H   UNL     1       9.184   5.289  14.246  0.00  0.00    +0.000 HD
ENDBRANCH  18  19
ENDBRANCH  12  13
ENDBRANCH   1  12
BRANCH   7  21
ATOM     21  O   UNL     1       2.117   1.838  18.070  0.00  0.00    +0.000 OA
ATOM     22  H   UNL     1       1.379   1.860  18.680  0.00  0.00    +0.000 HD
ENDBRANCH   7  21
TORSDOF 4
ENDMDL
MODEL 4
REMARK VINA RESULT:      -7.7      2.222      5.875
REMARK  Name = 
REMARK  4 active torsions:
REMARK  status: ('A' for Active; 'I' for Inactive)
REMARK    1  A    between atoms: C_2  and  C_3
REMARK    2  A    between atoms: C_2  and  C_10
REMARK    3  A    between atoms: C_8  and  O_9
REMARK    4  A    between atoms: C_16  and  O_17
REMARK                            x       y       z     vdW  Elec       q    Type
REMARK                         _______ _______ _______ _____ _____    ______ ____
ROOT
ATOM      1  C   UNL     1       4.668   5.088  18.274  0.00  0.00    +0.000 A 
ATOM      2  C   UNL     1       5.750   5.149  19.145  0.00  0.00    +0.000 A 
ATOM      3  N   UNL     1       6.770   4.518  18.526  0.00  0.00    +0.000 N 
ATOM      4  C   UNL     1       6.591   4.655  17.180  0.00  0.00    +0.000 A 
ATOM      5  C   UNL     1       7.524   4.706  16.143  0.00  0.00    +0.000 A 
ATOM      6  C   UNL     1       7.030   4.585  14.849  0.00  0.00    +0.000 A 
ATOM      7  C   UNL     1       5.686   4.319  14.645  0.00  0.00    +0.000 A 
ATOM      8  C   UNL     1       4.748   4.338  15.703  0.00  0.00    +0.000 A 
ATOM      9  C   UNL     1       5.205   4.671  16.996  0.00  0.00    +0.000 A 
ATOM     10  H   UNL     1       7.388   3.848  18.972  0.00  0.00    +0.000 HD
ENDROOT
BRANCH   1  12
ATOM     11  O   UNL     1       2.928   6.645  18.457  0.00  0.00    +0.000 OA
ATOM     12  C   UNL     1       3.353   5.521  18.772  0.00  0.00    +0.000 C 
BRANCH  12  13
ATOM     13  C   UNL     1       2.418   4.689  19.498  0.00  0.00    +0.000 A 
ATOM     14  C   UNL     1       2.680   4.496  20.866  0.00  0.00    +0.000 A 
ATOM     15  C   UNL     1       1.996   3.531  21.595  0.00  0.00    +0.000 A 
ATOM     16  C   UNL     1       1.035   2.750  20.956  0.00  0.00    +0.000 A 
ATOM     17  C   UNL     1       0.768   2.930  19.601  0.00  0.00    +0.000 A 
ATOM     18  C   UNL     1       1.477   3.897  18.881  0.00  0.00    +0.000 A 
BRANCH  18  19
ATOM     19  O   UNL     1       1.275   3.997  17.509  0.00  0.00    +0.000 OA
ATOM     20  H   UNL     1       2.111   4.218  17.075  0.00  0.00    +0.000 HD
ENDBRANCH  18  19
ENDBRANCH  12  13
ENDBRANCH   1  12
BRANCH   7  21
ATOM     21  O   UNL     1       5.235   4.006  13.389  0.00  0.00    +0.000 OA
ATOM     22  H   UNL     1       5.919   3.502  12.946  0.00  0.00    +0.000 HD
ENDBRANCH   7  21
TORSDOF 4
ENDMDL
MODEL 5
REMARK VINA RESULT:      -7.3      2.077      6.073
REMARK  Name = 
REMARK  4 active torsions:
REMARK  status: ('A' for Active; 'I' for Inactive)
REMARK    1  A    between atoms: C_2  and  C_3
REMARK    2  A    between atoms: C_2  and  C_10
REMARK    3  A    between atoms: C_8  and  O_9
REMARK    4  A    between atoms: C_16  and  O_17
REMARK                            x       y       z     vdW  Elec       q    Type
REMARK                         _______ _______ _______ _____ _____    ______ ____
ROOT
ATOM      1  C   UNL     1       5.071   4.915  18.174  0.00  0.00    +0.000 A 
ATOM      2  C   UNL     1       6.246   5.058  18.904  0.00  0.00    +0.000 A 
ATOM      3  N   UNL     1       7.230   4.531  18.143  0.00  0.00    +0.000 N 
ATOM      4  C   UNL     1       6.869   4.675  16.835  0.00  0.00    +0.000 A 
ATOM      5  C   UNL     1       7.653   4.827  15.690  0.00  0.00    +0.000 A 
ATOM      6  C   UNL     1       7.010   4.685  14.466  0.00  0.00    +0.000 A 
ATOM      7  C   UNL     1       5.680   4.303  14.425  0.00  0.00    +0.000 A 
ATOM      8  C   UNL     1       4.887   4.220  15.594  0.00  0.00    +0.000 A 
ATOM      9  C   UNL     1       5.474   4.569  16.828  0.00  0.00    +0.000 A 
ATOM     10  H   UNL     1       7.955   3.912  18.488  0.00  0.00    +0.000 HD
ENDROOT
BRANCH   1  12
ATOM     11  O   UNL     1       3.454   6.406  18.980  0.00  0.00    +0.000 OA
ATOM     12  C   UNL     1       3.798   5.220  18.846  0.00  0.00    +0.000 C 
BRANCH  12  13
ATOM     13  C   UNL     1       2.813   4.242  19.253  0.00  0.00    +0.000 A 
ATOM     14  C   UNL     1       2.380   3.338  18.268  0.00  0.00    +0.000 A 
ATOM     15  C   UNL     1       1.273   2.525  18.480  0.00  0.00    +0.000 A 
ATOM     16  C   UNL     1       0.589   2.610  19.691  0.00  0.00    +0.000 A 
ATOM     17  C   UNL     1       1.005   3.504  20.674  0.00  0.00    +0.000 A 
ATOM     18  C   UNL     1       2.114   4.324  20.436  0.00  0.00    +0.000 A 
BRANCH  18  19
ATOM     19  O   UNL     1       2.457   5.282  21.383  0.00  0.00    +0.000 OA
ATOM     20  H   UNL     1       3.256   5.746  21.097  0.00  0.00    +0.000 HD
ENDBRANCH  18  19
ENDBRANCH  12  13
ENDBRANCH   1  12
BRANCH   7  21
ATOM     21  O   UNL     1       5.100   3.973  13.228  0.00  0.00    +0.000 OA
ATOM     22  H   UNL     1       5.205   3.029  13.099  0.00  0.00    +0.000 HD
ENDBRANCH   7  21
TORSDOF 4
ENDMDL
MODEL 6
REMARK VINA RESULT:      -7.3      2.972      6.455
REMARK  Name = 
REMARK  4 active torsions:
REMARK  status: ('A' for Active; 'I' for Inactive)
REMARK    1  A    between atoms: C_2  and  C_3
REMARK    2  A    between atoms: C_2  and  C_10
REMARK    3  A    between atoms: C_8  and  O_9
REMARK    4  A    between atoms: C_16  and  O_17
REMARK                            x       y       z     vdW  Elec       q    Type
REMARK                         _______ _______ _______ _____ _____    ______ ____
ROOT
ATOM      1  C   UNL     1       5.522   5.114  16.215  0.00  0.00    +0.000 A 
ATOM      2  C   UNL     1       6.608   5.906  16.569  0.00  0.00    +0.000 A 
ATOM      3  N   UNL     1       7.624   5.538  15.759  0.00  0.00    +0.000 N 
ATOM      4  C   UNL     1       7.083   5.088  14.590  0.00  0.00    +0.000 A 
ATOM      5  C   UNL     1       7.591   5.108  13.289  0.00  0.00    +0.000 A 
ATOM      6  C   UNL     1       6.925   4.337  12.344  0.00  0.00    +0.000 A 
ATOM      7  C   UNL     1       5.879   3.517  12.734  0.00  0.00    +0.000 A 
ATOM      8  C   UNL     1       5.337   3.562  14.040  0.00  0.00    +0.000 A 
ATOM      9  C   UNL     1       5.869   4.497  14.953  0.00  0.00    +0.000 A 
ATOM     10  H   UNL     1       8.576   5.376  16.067  0.00  0.00    +0.000 HD
ENDROOT
BRANCH   1  12
ATOM     11  O   UNL     1       3.716   6.229  17.207  0.00  0.00    +0.000 OA
ATOM     12  C   UNL     1       4.327   5.156  17.074  0.00  0.00    +0.000 C 
BRANCH  12  13
ATOM     13  C   UNL     1       3.695   4.006  17.683  0.00  0.00    +0.000 A 
ATOM     14  C   UNL     1       2.320   3.841  17.437  0.00  0.00    +0.000 A 
ATOM     15  C   UNL     1       1.570   2.922  18.161  0.00  0.00    +0.000 A 
ATOM     16  C   UNL     1       2.197   2.153  19.140  0.00  0.00    +0.000 A 
ATOM     17  C   UNL     1       3.557   2.308  19.394  0.00  0.00    +0.000 A 
ATOM     18  C   UNL     1       4.292   3.249  18.665  0.00  0.00    +0.000 A 
BRANCH  18  19
ATOM     19  O   UNL     1       5.624   3.467  18.998  0.00  0.00    +0.000 OA
ATOM     20  H   UNL     1       5.683   4.198  19.629  0.00  0.00    +0.000 HD
ENDBRANCH  18  19
ENDBRANCH  12  13
ENDBRANCH   1  12
BRANCH   7  21
ATOM     21  O   UNL     1       5.351   2.614  11.848  0.00  0.00    +0.000 OA
ATOM     22  H   UNL     1       5.676   2.833  10.974  0.00  0.00    +0.000 HD
ENDBRANCH   7  21
TORSDOF 4
ENDMDL
MODEL 7
REMARK VINA RESULT:      -7.2      2.857      4.027
REMARK  Name = 
REMARK  4 active torsions:
REMARK  status: ('A' for Active; 'I' for Inactive)
REMARK    1  A    between atoms: C_2  and  C_3
REMARK    2  A    between atoms: C_2  and  C_10
REMARK    3  A    between atoms: C_8  and  O_9
REMARK    4  A    between atoms: C_16  and  O_17
REMARK                            x       y       z     vdW  Elec       q    Type
REMARK                         _______ _______ _______ _____ _____    ______ ____
ROOT
ATOM      1  C   UNL     1       5.313   4.792  16.892  0.00  0.00    +0.000 A 
ATOM      2  C   UNL     1       6.443   4.479  17.638  0.00  0.00    +0.000 A 
ATOM      3  N   UNL     1       5.996   4.001  18.819  0.00  0.00    +0.000 N 
ATOM      4  C   UNL     1       4.778   3.424  18.602  0.00  0.00    +0.000 A 
ATOM      5  C   UNL     1       4.148   2.365  19.257  0.00  0.00    +0.000 A 
ATOM      6  C   UNL     1       2.798   2.174  18.985  0.00  0.00    +0.000 A 
ATOM      7  C   UNL     1       2.120   3.076  18.182  0.00  0.00    +0.000 A 
ATOM      8  C   UNL     1       2.791   4.102  17.475  0.00  0.00    +0.000 A 
ATOM      9  C   UNL     1       4.196   4.176  17.577  0.00  0.00    +0.000 A 
ATOM     10  H   UNL     1       6.369   4.264  19.725  0.00  0.00    +0.000 HD
ENDROOT
BRANCH   1  12
ATOM     11  O   UNL     1       5.540   6.768  15.655  0.00  0.00    +0.000 OA
ATOM     12  C   UNL     1       5.498   5.527  15.630  0.00  0.00    +0.000 C 
BRANCH  12  13
ATOM     13  C   UNL     1       5.784   4.925  14.347  0.00  0.00    +0.000 A 
ATOM     14  C   UNL     1       4.791   4.087  13.810  0.00  0.00    +0.000 A 
ATOM     15  C   UNL     1       5.057   3.275  12.715  0.00  0.00    +0.000 A 
ATOM     16  C   UNL     1       6.327   3.299  12.142  0.00  0.00    +0.000 A 
ATOM     17  C   UNL     1       7.320   4.123  12.665  0.00  0.00    +0.000 A 
ATOM     18  C   UNL     1       7.038   4.923  13.777  0.00  0.00    +0.000 A 
BRANCH  18  19
ATOM     19  O   UNL     1       8.064   5.662  14.353  0.00  0.00    +0.000 OA
ATOM     20  H   UNL     1       8.623   6.035  13.657  0.00  0.00    +0.000 HD
ENDBRANCH  18  19
ENDBRANCH  12  13
ENDBRANCH   1  12
BRANCH   7  21
ATOM     21  O   UNL     1       0.757   3.002  18.071  0.00  0.00    +0.000 OA
ATOM     22  H   UNL     1       0.484   2.129  18.354  0.00  0.00    +0.000 HD
ENDBRANCH   7  21
TORSDOF 4
ENDMDL
MODEL 8
REMARK VINA RESULT:      -7.2      2.981      4.156
REMARK  Name = 
REMARK  4 active torsions:
REMARK  status: ('A' for Active; 'I' for Inactive)
REMARK    1  A    between atoms: C_2  and  C_3
REMARK    2  A    between atoms: C_2  and  C_10
REMARK    3  A    between atoms: C_8  and  O_9
REMARK    4  A    between atoms: C_16  and  O_17
REMARK                            x       y       z     vdW  Elec       q    Type
REMARK                         _______ _______ _______ _____ _____    ______ ____
ROOT
ATOM      1  C   UNL     1       2.519   5.999  18.871  0.00  0.00    +0.000 A 
ATOM      2  C   UNL     1       2.151   5.570  20.141  0.00  0.00    +0.000 A 
ATOM      3  N   UNL     1       2.059   6.680  20.904  0.00  0.00    +0.000 N 
ATOM      4  C   UNL     1       1.720   7.720  20.088  0.00  0.00    +0.000 A 
ATOM      5  C   UNL     1       0.994   8.882  20.356  0.00  0.00    +0.000 A 
ATOM      6  C   UNL     1       1.037   9.884  19.393  0.00  0.00    +0.000 A 
ATOM      7  C   UNL     1       1.856   9.743  18.285  0.00  0.00    +0.000 A 
ATOM      8  C   UNL     1       2.529   8.532  17.999  0.00  0.00    +0.000 A 
ATOM      9  C   UNL     1       2.325   7.433  18.860  0.00  0.00    +0.000 A 
ATOM     10  H   UNL     1       2.435   6.767  21.841  0.00  0.00    +0.000 HD
ENDROOT
BRANCH   1  12
ATOM     11  O   UNL     1       2.035   4.165  17.496  0.00  0.00    +0.000 OA
ATOM     12  C   UNL     1       2.893   4.980  17.877  0.00  0.00    +0.000 C 
BRANCH  12  13
ATOM     13  C   UNL     1       4.156   4.919  17.176  0.00  0.00    +0.000 A 
ATOM     14  C   UNL     1       4.584   6.102  16.548  0.00  0.00    +0.000 A 
ATOM     15  C   UNL     1       5.647   6.092  15.653  0.00  0.00    +0.000 A 
ATOM     16  C   UNL     1       6.298   4.889  15.383  0.00  0.00    +0.000 A 
ATOM     17  C   UNL     1       5.883   3.711  15.998  0.00  0.00    +0.000 A 
ATOM     18  C   UNL     1       4.801   3.739  16.884  0.00  0.00    +0.000 A 
BRANCH  18  19
ATOM     19  O   UNL     1       4.332   2.541  17.411  0.00  0.00    +0.000 OA
ATOM     20  H   UNL     1       5.064   2.059  17.819  0.00  0.00    +0.000 HD
ENDBRANCH  18  19
ENDBRANCH  12  13
ENDBRANCH   1  12
BRANCH   7  21
ATOM     21  O   UNL     1       2.049  10.803  17.439  0.00  0.00    +0.000 OA
ATOM     22  H   UNL     1       2.907  11.183  17.632  0.00  0.00    +0.000 HD
ENDBRANCH   7  21
TORSDOF 4
ENDMDL
MODEL 9
REMARK VINA RESULT:      -7.2      2.362      3.283
REMARK  Name = 
REMARK  4 active torsions:
REMARK  status: ('A' for Active; 'I' for Inactive)
REMARK    1  A    between atoms: C_2  and  C_3
REMARK    2  A    between atoms: C_2  and  C_10
REMARK    3  A    between atoms: C_8  and  O_9
REMARK    4  A    between atoms: C_16  and  O_17
REMARK                            x       y       z     vdW  Elec       q    Type
REMARK                         _______ _______ _______ _____ _____    ______ ____
ROOT
ATOM      1  C   UNL     1       4.346   4.994  18.627  0.00  0.00    +0.000 A 
ATOM      2  C   UNL     1       4.236   6.140  19.405  0.00  0.00    +0.000 A 
ATOM      3  N   UNL     1       2.929   6.257  19.724  0.00  0.00    +0.000 N 
ATOM      4  C   UNL     1       2.393   5.002  19.752  0.00  0.00    +0.000 A 
ATOM      5  C   UNL     1       1.334   4.486  20.502  0.00  0.00    +0.000 A 
ATOM      6  C   UNL     1       0.845   3.242  20.122  0.00  0.00    +0.000 A 
ATOM      7  C   UNL     1       1.335   2.625  18.983  0.00  0.00    +0.000 A 
ATOM      8  C   UNL     1       2.451   3.132  18.277  0.00  0.00    +0.000 A 
ATOM      9  C   UNL     1       3.093   4.284  18.778  0.00  0.00    +0.000 A 
ATOM     10  H   UNL     1       2.401   7.121  19.681  0.00  0.00    +0.000 HD
ENDROOT
BRANCH   1  12
ATOM     11  O   UNL     1       6.593   4.332  18.645  0.00  0.00    +0.000 OA
ATOM     12  C   UNL     1       5.633   4.728  17.963  0.00  0.00    +0.000 C 
BRANCH  12  13
ATOM     13  C   UNL     1       5.856   4.749  16.535  0.00  0.00    +0.000 A 
ATOM     14  C   UNL     1       5.181   3.776  15.778  0.00  0.00    +0.000 A 
ATOM     15  C   UNL     1       5.507   3.552  14.446  0.00  0.00    +0.000 A 
ATOM     16  C   UNL     1       6.518   4.309  13.857  0.00  0.00    +0.000 A 
ATOM     17  C   UNL     1       7.197   5.274  14.596  0.00  0.00    +0.000 A 
ATOM     18  C   UNL     1       6.863   5.476  15.939  0.00  0.00    +0.000 A 
BRANCH  18  19
ATOM     19  O   UNL     1       7.615   6.368  16.694  0.00  0.00    +0.000 OA
ATOM     20  H   UNL     1       8.551   6.131  16.637  0.00  0.00    +0.000 HD
ENDBRANCH  18  19
ENDBRANCH  12  13
ENDBRANCH   1  12
BRANCH   7  21
ATOM     21  O   UNL     1       0.723   1.499  18.498  0.00  0.00    +0.000 OA
ATOM     22  H   UNL     1       0.801   1.508  17.544  0.00  0.00    +0.000 HD
ENDBRANCH   7  21
TORSDOF 4
ENDMDL
