MODEL 1
REMARK VINA RESULT:      -9.3      0.000      0.000
REMARK  Name = 
REMARK  11 active torsions:
REMARK  status: ('A' for Active; 'I' for Inactive)
REMARK    1  A    between atoms: C_1  and  O_2
REMARK    2  A    between atoms: O_2  and  C_3
REMARK    3  A    between atoms: C_7  and  C_8
REMARK    4  A    between atoms: C_10  and  C_11
REMARK    5  A    between atoms: C_11  and  S_12
REMARK    6  A    between atoms: S_12  and  C_15
REMARK    7  A    between atoms: C_15  and  C_16
REMARK    8  A    between atoms: N_18  and  C_19
REMARK    9  A    between atoms: C_20  and  C_21
REMARK   10  A    between atoms: C_25  and  C_26
REMARK   11  A    between atoms: C_27  and  C_28
REMARK                            x       y       z     vdW  Elec       q    Type
REMARK                         _______ _______ _______ _____ _____    ______ ____
ROOT
ATOM      1  S   UNL     1       6.756   5.123  15.777  0.00  0.00    +0.000 S 
ATOM      2  O   UNL     1       6.866   5.488  14.367  0.00  0.00    +0.000 OA
ATOM      3  O   UNL     1       7.935   4.593  16.442  0.00  0.00    +0.000 OA
ENDROOT
BRANCH   1   4
ATOM      4  C   UNL     1       6.158   6.561  16.681  0.00  0.00    +0.000 C 
BRANCH   4   7
ATOM      5  C   UNL     1       8.402   8.784  18.273  0.00  0.00    +0.000 A 
ATOM      6  N   UNL     1       7.504   8.509  17.351  0.00  0.00    +0.000 NA
ATOM      7  C   UNL     1       7.176   7.185  17.560  0.00  0.00    +0.000 A 
ATOM      8  C   UNL     1       7.871   6.723  18.664  0.00  0.00    +0.000 A 
ATOM      9  C   UNL     1       7.962   5.494  19.470  0.00  0.00    +0.000 C 
ATOM     10  O   UNL     1       8.675   7.738  19.103  0.00  0.00    +0.000 OA
BRANCH   5  15
ATOM     11  C   UNL     1       9.934  11.653  20.139  0.00  0.00    +0.000 A 
ATOM     12  C   UNL     1      10.431  12.426  19.089  0.00  0.00    +0.000 A 
ATOM     13  C   UNL     1      10.279  12.012  17.765  0.00  0.00    +0.000 A 
ATOM     14  C   UNL     1       9.619  10.817  17.485  0.00  0.00    +0.000 A 
ATOM     15  C   UNL     1       9.111  10.028  18.526  0.00  0.00    +0.000 A 
ATOM     16  C   UNL     1       9.282  10.454  19.853  0.00  0.00    +0.000 A 
BRANCH  11  18
ATOM     17  C   UNL     1       8.993  12.717  22.042  0.00  0.00    +0.000 C 
ATOM     18  O   UNL     1      10.135  12.172  21.389  0.00  0.00    +0.000 OA
ENDBRANCH  11  18
ENDBRANCH   5  15
ENDBRANCH   4   7
ENDBRANCH   1   4
BRANCH   1  19
ATOM     19  C   UNL     1       5.516   3.858  15.892  0.00  0.00    +0.000 C 
BRANCH  19  20
ATOM     20  C   UNL     1       4.766   4.024  17.173  0.00  0.00    +0.000 C 
ATOM     21  O   UNL     1       5.311   3.809  18.253  0.00  0.00    +0.000 OA
ATOM     22  N   UNL     1       3.430   4.375  17.048  0.00  0.00    +0.000 N 
ATOM     23  H   UNL     1       2.952   4.029  16.226  0.00  0.00    +0.000 HD
BRANCH  22  24
ATOM     24  C   UNL     1       2.646   4.555  18.218  0.00  0.00    +0.000 A 
ATOM     25  C   UNL     1       2.525   5.828  18.823  0.00  0.00    +0.000 A 
ATOM     26  C   UNL     1       3.001   7.112  18.194  0.00  0.00    +0.000 C 
ATOM     27  C   UNL     1       1.867   5.939  20.058  0.00  0.00    +0.000 A 
ATOM     28  C   UNL     1       1.280   4.827  20.651  0.00  0.00    +0.000 A 
ATOM     29  C   UNL     1       1.329   3.592  20.012  0.00  0.00    +0.000 A 
ATOM     30  C   UNL     1       2.012   3.435  18.794  0.00  0.00    +0.000 A 
ATOM     31  C   UNL     1       2.069   2.064  18.181  0.00  0.00    +0.000 C 
ENDBRANCH  22  24
ENDBRANCH  19  20
ENDBRANCH   1  19
TORSDOF 7
ENDMDL
MODEL 2
REMARK VINA RESULT:      -9.0      1.055      2.183
REMARK  Name = 
REMARK  11 active torsions:
REMARK  status: ('A' for Active; 'I' for Inactive)
REMARK    1  A    between atoms: C_1  and  O_2
REMARK    2  A    between atoms: O_2  and  C_3
REMARK    3  A    between atoms: C_7  and  C_8
REMARK    4  A    between atoms: C_10  and  C_11
REMARK    5  A    between atoms: C_11  and  S_12
REMARK    6  A    between atoms: S_12  and  C_15
REMARK    7  A    between atoms: C_15  and  C_16
REMARK    8  A    between atoms: N_18  and  C_19
REMARK    9  A    between atoms: C_20  and  C_21
REMARK   10  A    between atoms: C_25  and  C_26
REMARK   11  A    between atoms: C_27  and  C_28
REMARK                            x       y       z     vdW  Elec       q    Type
REMARK                         _______ _______ _______ _____ _____    ______ ____
ROOT
ATOM      1  S   UNL     1       6.856   5.213  15.751  0.00  0.00    +0.000 S 
ATOM      2  O   UNL     1       7.137   5.562  14.361  0.00  0.00    +0.000 OA
ATOM      3  O   UNL     1       7.924   4.618  16.538  0.00  0.00    +0.000 OA
ENDROOT
BRANCH   1   4
ATOM      4  C   UNL     1       6.253   6.690  16.586  0.00  0.00    +0.000 C 
BRANCH   4   7
ATOM      5  C   UNL     1       8.380   8.893  18.356  0.00  0.00    +0.000 A 
ATOM      6  N   UNL     1       7.506   8.643  17.403  0.00  0.00    +0.000 NA
ATOM      7  C   UNL     1       7.232   7.296  17.519  0.00  0.00    +0.000 A 
ATOM      8  C   UNL     1       7.932   6.791  18.601  0.00  0.00    +0.000 A 
ATOM      9  C   UNL     1       8.064   5.516  19.326  0.00  0.00    +0.000 C 
ATOM     10  O   UNL     1       8.687   7.806  19.119  0.00  0.00    +0.000 OA
BRANCH   5  15
ATOM     11  C   UNL     1       9.623  12.419  18.067  0.00  0.00    +0.000 A 
ATOM     12  C   UNL     1      10.293  12.572  19.281  0.00  0.00    +0.000 A 
ATOM     13  C   UNL     1      10.335  11.530  20.208  0.00  0.00    +0.000 A 
ATOM     14  C   UNL     1       9.708  10.319  19.917  0.00  0.00    +0.000 A 
ATOM     15  C   UNL     1       9.033  10.146  18.702  0.00  0.00    +0.000 A 
ATOM     16  C   UNL     1       8.991  11.209  17.785  0.00  0.00    +0.000 A 
BRANCH  11  18
ATOM     17  C   UNL     1       9.845  14.774  17.864  0.00  0.00    +0.000 C 
ATOM     18  O   UNL     1       9.665  13.508  17.239  0.00  0.00    +0.000 OA
ENDBRANCH  11  18
ENDBRANCH   5  15
ENDBRANCH   4   7
ENDBRANCH   1   4
BRANCH   1  19
ATOM     19  C   UNL     1       5.537   4.026  15.733  0.00  0.00    +0.000 C 
BRANCH  19  20
ATOM     20  C   UNL     1       4.869   4.017  17.070  0.00  0.00    +0.000 C 
ATOM     21  O   UNL     1       5.530   3.926  18.101  0.00  0.00    +0.000 OA
ATOM     22  N   UNL     1       3.483   4.062  17.050  0.00  0.00    +0.000 N 
ATOM     23  H   UNL     1       3.032   3.620  16.260  0.00  0.00    +0.000 HD
BRANCH  22  24
ATOM     24  C   UNL     1       2.770   4.060  18.278  0.00  0.00    +0.000 A 
ATOM     25  C   UNL     1       2.447   2.847  18.929  0.00  0.00    +0.000 A 
ATOM     26  C   UNL     1       2.998   1.501  18.531  0.00  0.00    +0.000 C 
ATOM     27  C   UNL     1       1.613   2.876  20.058  0.00  0.00    +0.000 A 
ATOM     28  C   UNL     1       1.163   4.085  20.576  0.00  0.00    +0.000 A 
ATOM     29  C   UNL     1       1.551   5.282  19.982  0.00  0.00    +0.000 A 
ATOM     30  C   UNL     1       2.352   5.290  18.827  0.00  0.00    +0.000 A 
ATOM     31  C   UNL     1       2.695   6.615  18.207  0.00  0.00    +0.000 C 
ENDBRANCH  22  24
ENDBRANCH  19  20
ENDBRANCH   1  19
TORSDOF 7
ENDMDL
MODEL 3
REMARK VINA RESULT:      -9.0      1.323      1.878
REMARK  Name = 
REMARK  11 active torsions:
REMARK  status: ('A' for Active; 'I' for Inactive)
REMARK    1  A    between atoms: C_1  and  O_2
REMARK    2  A    between atoms: O_2  and  C_3
REMARK    3  A    between atoms: C_7  and  C_8
REMARK    4  A    between atoms: C_10  and  C_11
REMARK    5  A    between atoms: C_11  and  S_12
REMARK    6  A    between atoms: S_12  and  C_15
REMARK    7  A    between atoms: C_15  and  C_16
REMARK    8  A    between atoms: N_18  and  C_19
REMARK    9  A    between atoms: C_20  and  C_21
REMARK   10  A    between atoms: C_25  and  C_26
REMARK   11  A    between atoms: C_27  and  C_28
REMARK                            x       y       z     vdW  Elec       q    Type
REMARK                         _______ _______ _______ _____ _____    ______ ____
ROOT
ATOM      1  S   UNL     1       6.331   5.577  15.597  0.00  0.00    +0.000 S 
ATOM      2  O   UNL     1       5.332   5.531  14.533  0.00  0.00    +0.000 OA
ATOM      3  O   UNL     1       7.730   5.695  15.219  0.00  0.00    +0.000 OA
ENDROOT
BRANCH   1   4
ATOM      4  C   UNL     1       5.899   6.926  16.710  0.00  0.00    +0.000 C 
BRANCH   4   7
ATOM      5  C   UNL     1       8.374   8.840  18.359  0.00  0.00    +0.000 A 
ATOM      6  N   UNL     1       7.377   8.724  17.507  0.00  0.00    +0.000 NA
ATOM      7  C   UNL     1       7.025   7.391  17.556  0.00  0.00    +0.000 A 
ATOM      8  C   UNL     1       7.811   6.756  18.501  0.00  0.00    +0.000 A 
ATOM      9  C   UNL     1       7.939   5.420  19.106  0.00  0.00    +0.000 C 
ATOM     10  O   UNL     1       8.693   7.677  18.995  0.00  0.00    +0.000 OA
BRANCH   5  15
ATOM     11  C   UNL     1      10.558  11.866  17.991  0.00  0.00    +0.000 A 
ATOM     12  C   UNL     1      10.688  12.273  19.320  0.00  0.00    +0.000 A 
ATOM     13  C   UNL     1      10.055  11.568  20.345  0.00  0.00    +0.000 A 
ATOM     14  C   UNL     1       9.290  10.443  20.041  0.00  0.00    +0.000 A 
ATOM     15  C   UNL     1       9.151  10.019  18.713  0.00  0.00    +0.000 A 
ATOM     16  C   UNL     1       9.785  10.745  17.693  0.00  0.00    +0.000 A 
BRANCH  11  18
ATOM     17  C   UNL     1      10.862  14.002  16.998  0.00  0.00    +0.000 C 
ATOM     18  O   UNL     1      11.237  12.631  17.081  0.00  0.00    +0.000 OA
ENDBRANCH  11  18
ENDBRANCH   5  15
ENDBRANCH   4   7
ENDBRANCH   1   4
BRANCH   1  19
ATOM     19  C   UNL     1       6.193   4.060  16.508  0.00  0.00    +0.000 C 
BRANCH  19  20
ATOM     20  C   UNL     1       4.818   3.958  17.083  0.00  0.00    +0.000 C 
ATOM     21  O   UNL     1       3.830   3.964  16.352  0.00  0.00    +0.000 OA
ATOM     22  N   UNL     1       4.746   3.915  18.467  0.00  0.00    +0.000 N 
ATOM     23  H   UNL     1       5.464   4.421  18.968  0.00  0.00    +0.000 HD
BRANCH  22  24
ATOM     24  C   UNL     1       3.476   3.816  19.094  0.00  0.00    +0.000 A 
ATOM     25  C   UNL     1       2.821   4.966  19.595  0.00  0.00    +0.000 A 
ATOM     26  C   UNL     1       3.268   6.379  19.324  0.00  0.00    +0.000 C 
ATOM     27  C   UNL     1       1.642   4.812  20.341  0.00  0.00    +0.000 A 
ATOM     28  C   UNL     1       1.082   3.554  20.531  0.00  0.00    +0.000 A 
ATOM     29  C   UNL     1       1.684   2.434  19.966  0.00  0.00    +0.000 A 
ATOM     30  C   UNL     1       2.887   2.545  19.247  0.00  0.00    +0.000 A 
ATOM     31  C   UNL     1       3.510   1.289  18.705  0.00  0.00    +0.000 C 
ENDBRANCH  22  24
ENDBRANCH  19  20
ENDBRANCH   1  19
TORSDOF 7
ENDMDL
MODEL 4
REMARK VINA RESULT:      -8.8      1.528      1.787
REMARK  Name = 
REMARK  11 active torsions:
REMARK  status: ('A' for Active; 'I' for Inactive)
REMARK    1  A    between atoms: C_1  and  O_2
REMARK    2  A    between atoms: O_2  and  C_3
REMARK    3  A    between atoms: C_7  and  C_8
REMARK    4  A    between atoms: C_10  and  C_11
REMARK    5  A    between atoms: C_11  and  S_12
REMARK    6  A    between atoms: S_12  and  C_15
REMARK    7  A    between atoms: C_15  and  C_16
REMARK    8  A    between atoms: N_18  and  C_19
REMARK    9  A    between atoms: C_20  and  C_21
REMARK   10  A    between atoms: C_25  and  C_26
REMARK   11  A    between atoms: C_27  and  C_28
REMARK                            x       y       z     vdW  Elec       q    Type
REMARK                         _______ _______ _______ _____ _____    ______ ____
ROOT
ATOM      1  S   UNL     1       6.265   5.396  15.522  0.00  0.00    +0.000 S 
ATOM      2  O   UNL     1       5.315   5.322  14.416  0.00  0.00    +0.000 OA
ATOM      3  O   UNL     1       7.676   5.551  15.204  0.00  0.00    +0.000 OA
ENDROOT
BRANCH   1   4
ATOM      4  C   UNL     1       5.750   6.735  16.611  0.00  0.00    +0.000 C 
BRANCH   4   7
ATOM      5  C   UNL     1       8.109   8.919  18.086  0.00  0.00    +0.000 A 
ATOM      6  N   UNL     1       7.101   8.682  17.273  0.00  0.00    +0.000 NA
ATOM      7  C   UNL     1       6.857   7.329  17.398  0.00  0.00    +0.000 A 
ATOM      8  C   UNL     1       7.718   6.808  18.348  0.00  0.00    +0.000 A 
ATOM      9  C   UNL     1       7.968   5.518  19.013  0.00  0.00    +0.000 C 
ATOM     10  O   UNL     1       8.536   7.819  18.768  0.00  0.00    +0.000 OA
BRANCH   5  15
ATOM     11  C   UNL     1       8.976  12.565  17.965  0.00  0.00    +0.000 A 
ATOM     12  C   UNL     1      10.091  12.608  18.804  0.00  0.00    +0.000 A 
ATOM     13  C   UNL     1      10.562  11.449  19.422  0.00  0.00    +0.000 A 
ATOM     14  C   UNL     1       9.917  10.234  19.198  0.00  0.00    +0.000 A 
ATOM     15  C   UNL     1       8.798  10.171  18.357  0.00  0.00    +0.000 A 
ATOM     16  C   UNL     1       8.331  11.348  17.751  0.00  0.00    +0.000 A 
BRANCH  11  18
ATOM     17  C   UNL     1       7.492  14.419  17.977  0.00  0.00    +0.000 C 
ATOM     18  O   UNL     1       8.621  13.764  17.409  0.00  0.00    +0.000 OA
ENDBRANCH  11  18
ENDBRANCH   5  15
ENDBRANCH   4   7
ENDBRANCH   1   4
BRANCH   1  19
ATOM     19  C   UNL     1       6.128   3.877  16.430  0.00  0.00    +0.000 C 
BRANCH  19  20
ATOM     20  C   UNL     1       4.784   3.817  17.080  0.00  0.00    +0.000 C 
ATOM     21  O   UNL     1       3.758   3.848  16.406  0.00  0.00    +0.000 OA
ATOM     22  N   UNL     1       4.788   3.780  18.466  0.00  0.00    +0.000 N 
ATOM     23  H   UNL     1       5.548   4.267  18.925  0.00  0.00    +0.000 HD
BRANCH  22  24
ATOM     24  C   UNL     1       3.553   3.719  19.164  0.00  0.00    +0.000 A 
ATOM     25  C   UNL     1       2.948   4.891  19.675  0.00  0.00    +0.000 A 
ATOM     26  C   UNL     1       3.406   6.290  19.348  0.00  0.00    +0.000 C 
ATOM     27  C   UNL     1       1.809   4.776  20.486  0.00  0.00    +0.000 A 
ATOM     28  C   UNL     1       1.237   3.534  20.734  0.00  0.00    +0.000 A 
ATOM     29  C   UNL     1       1.786   2.391  20.162  0.00  0.00    +0.000 A 
ATOM     30  C   UNL     1       2.949   2.463  19.376  0.00  0.00    +0.000 A 
ATOM     31  C   UNL     1       3.519   1.184  18.829  0.00  0.00    +0.000 C 
ENDBRANCH  22  24
ENDBRANCH  19  20
ENDBRANCH   1  19
TORSDOF 7
ENDMDL
MODEL 5
REMARK VINA RESULT:      -8.5      1.426      1.990
REMARK  Name = 
REMARK  11 active torsions:
REMARK  status: ('A' for Active; 'I' for Inactive)
REMARK    1  A    between atoms: C_1  and  O_2
REMARK    2  A    between atoms: O_2  and  C_3
REMARK    3  A    between atoms: C_7  and  C_8
REMARK    4  A    between atoms: C_10  and  C_11
REMARK    5  A    between atoms: C_11  and  S_12
REMARK    6  A    between atoms: S_12  and  C_15
REMARK    7  A    between atoms: C_15  and  C_16
REMARK    8  A    between atoms: N_18  and  C_19
REMARK    9  A    between atoms: C_20  and  C_21
REMARK   10  A    between atoms: C_25  and  C_26
REMARK   11  A    between atoms: C_27  and  C_28
REMARK                            x       y       z     vdW  Elec       q    Type
REMARK                         _______ _______ _______ _____ _____    ______ ____
ROOT
ATOM      1  S   UNL     1       5.385   6.449  16.105  0.00  0.00    +0.000 S 
ATOM      2  O   UNL     1       4.895   7.014  17.359  0.00  0.00    +0.000 OA
ATOM      3  O   UNL     1       4.961   7.071  14.861  0.00  0.00    +0.000 OA
ENDROOT
BRANCH   1   4
ATOM      4  C   UNL     1       7.184   6.418  16.172  0.00  0.00    +0.000 C 
BRANCH   4   7
ATOM      5  C   UNL     1       8.497   8.860  18.369  0.00  0.00    +0.000 A 
ATOM      6  N   UNL     1       8.023   8.491  17.197  0.00  0.00    +0.000 NA
ATOM      7  C   UNL     1       7.755   7.144  17.331  0.00  0.00    +0.000 A 
ATOM      8  C   UNL     1       8.036   6.762  18.631  0.00  0.00    +0.000 A 
ATOM      9  C   UNL     1       7.929   5.556  19.469  0.00  0.00    +0.000 C 
ATOM     10  O   UNL     1       8.535   7.853  19.287  0.00  0.00    +0.000 OA
BRANCH   5  15
ATOM     11  C   UNL     1       9.328  12.515  18.284  0.00  0.00    +0.000 A 
ATOM     12  C   UNL     1       9.853  12.705  19.563  0.00  0.00    +0.000 A 
ATOM     13  C   UNL     1       9.930  11.644  20.466  0.00  0.00    +0.000 A 
ATOM     14  C   UNL     1       9.484  10.379  20.087  0.00  0.00    +0.000 A 
ATOM     15  C   UNL     1       8.956  10.169  18.806  0.00  0.00    +0.000 A 
ATOM     16  C   UNL     1       8.877  11.249  17.913  0.00  0.00    +0.000 A 
BRANCH  11  18
ATOM     17  C   UNL     1      10.198  14.685  17.864  0.00  0.00    +0.000 C 
ATOM     18  O   UNL     1       9.319  13.629  17.489  0.00  0.00    +0.000 OA
ENDBRANCH  11  18
ENDBRANCH   5  15
ENDBRANCH   4   7
ENDBRANCH   1   4
BRANCH   1  19
ATOM     19  C   UNL     1       4.817   4.769  16.034  0.00  0.00    +0.000 C 
BRANCH  19  20
ATOM     20  C   UNL     1       4.328   4.361  17.385  0.00  0.00    +0.000 C 
ATOM     21  O   UNL     1       5.094   3.861  18.206  0.00  0.00    +0.000 OA
ATOM     22  N   UNL     1       2.972   4.534  17.612  0.00  0.00    +0.000 N 
ATOM     23  H   UNL     1       2.367   4.434  16.806  0.00  0.00    +0.000 HD
BRANCH  22  24
ATOM     24  C   UNL     1       2.425   4.173  18.872  0.00  0.00    +0.000 A 
ATOM     25  C   UNL     1       2.294   5.128  19.907  0.00  0.00    +0.000 A 
ATOM     26  C   UNL     1       2.493   6.610  19.721  0.00  0.00    +0.000 C 
ATOM     27  C   UNL     1       1.891   4.703  21.183  0.00  0.00    +0.000 A 
ATOM     28  C   UNL     1       1.559   3.374  21.416  0.00  0.00    +0.000 A 
ATOM     29  C   UNL     1       1.609   2.454  20.374  0.00  0.00    +0.000 A 
ATOM     30  C   UNL     1       2.045   2.834  19.093  0.00  0.00    +0.000 A 
ATOM     31  C   UNL     1       2.122   1.780  18.025  0.00  0.00    +0.000 C 
ENDBRANCH  22  24
ENDBRANCH  19  20
ENDBRANCH   1  19
TORSDOF 7
ENDMDL
MODEL 6
REMARK VINA RESULT:      -8.4      3.697      6.774
REMARK  Name = 
REMARK  11 active torsions:
REMARK  status: ('A' for Active; 'I' for Inactive)
REMARK    1  A    between atoms: C_1  and  O_2
REMARK    2  A    between atoms: O_2  and  C_3
REMARK    3  A    between atoms: C_7  and  C_8
REMARK    4  A    between atoms: C_10  and  C_11
REMARK    5  A    between atoms: C_11  and  S_12
REMARK    6  A    between atoms: S_12  and  C_15
REMARK    7  A    between atoms: C_15  and  C_16
REMARK    8  A    between atoms: N_18  and  C_19
REMARK    9  A    between atoms: C_20  and  C_21
REMARK   10  A    between atoms: C_25  and  C_26
REMARK   11  A    between atoms: C_27  and  C_28
REMARK                            x       y       z     vdW  Elec       q    Type
REMARK                         _______ _______ _______ _____ _____    ______ ____
ROOT
ATOM      1  S   UNL     1       3.896   3.142  18.805  0.00  0.00    +0.000 S 
ATOM      2  O   UNL     1       3.593   3.379  17.396  0.00  0.00    +0.000 OA
ATOM      3  O   UNL     1       4.142   1.774  19.232  0.00  0.00    +0.000 OA
ENDROOT
BRANCH   1   4
ATOM      4  C   UNL     1       5.308   4.167  19.252  0.00  0.00    +0.000 C 
BRANCH   4   7
ATOM      5  C   UNL     1       6.669   4.684  16.029  0.00  0.00    +0.000 A 
ATOM      6  N   UNL     1       5.781   4.147  16.837  0.00  0.00    +0.000 NA
ATOM      7  C   UNL     1       6.136   4.588  18.096  0.00  0.00    +0.000 A 
ATOM      8  C   UNL     1       7.220   5.439  17.980  0.00  0.00    +0.000 A 
ATOM      9  C   UNL     1       8.046   6.291  18.852  0.00  0.00    +0.000 C 
ATOM     10  O   UNL     1       7.578   5.479  16.661  0.00  0.00    +0.000 OA
BRANCH   5  15
ATOM     11  C   UNL     1       6.086   3.467  12.530  0.00  0.00    +0.000 A 
ATOM     12  C   UNL     1       7.008   4.235  11.817  0.00  0.00    +0.000 A 
ATOM     13  C   UNL     1       7.820   5.163  12.471  0.00  0.00    +0.000 A 
ATOM     14  C   UNL     1       7.715   5.322  13.852  0.00  0.00    +0.000 A 
ATOM     15  C   UNL     1       6.797   4.558  14.585  0.00  0.00    +0.000 A 
ATOM     16  C   UNL     1       5.980   3.637  13.910  0.00  0.00    +0.000 A 
BRANCH  11  18
ATOM     17  C   UNL     1       4.154   3.080  11.205  0.00  0.00    +0.000 C 
ATOM     18  O   UNL     1       5.360   2.585  11.777  0.00  0.00    +0.000 OA
ENDBRANCH  11  18
ENDBRANCH   5  15
ENDBRANCH   4   7
ENDBRANCH   1   4
BRANCH   1  19
ATOM     19  C   UNL     1       2.499   3.708  19.742  0.00  0.00    +0.000 C 
BRANCH  19  20
ATOM     20  C   UNL     1       2.061   5.034  19.212  0.00  0.00    +0.000 C 
ATOM     21  O   UNL     1       1.226   5.107  18.313  0.00  0.00    +0.000 OA
ATOM     22  N   UNL     1       2.692   6.140  19.760  0.00  0.00    +0.000 N 
ATOM     23  H   UNL     1       3.652   6.007  20.053  0.00  0.00    +0.000 HD
BRANCH  22  24
ATOM     24  C   UNL     1       2.333   7.439  19.314  0.00  0.00    +0.000 A 
ATOM     25  C   UNL     1       1.427   8.236  20.052  0.00  0.00    +0.000 A 
ATOM     26  C   UNL     1       0.948   7.905  21.442  0.00  0.00    +0.000 C 
ATOM     27  C   UNL     1       0.980   9.449  19.505  0.00  0.00    +0.000 A 
ATOM     28  C   UNL     1       1.469   9.900  18.285  0.00  0.00    +0.000 A 
ATOM     29  C   UNL     1       2.423   9.153  17.601  0.00  0.00    +0.000 A 
ATOM     30  C   UNL     1       2.865   7.915  18.098  0.00  0.00    +0.000 A 
ATOM     31  C   UNL     1       3.860   7.136  17.286  0.00  0.00    +0.000 C 
ENDBRANCH  22  24
ENDBRANCH  19  20
ENDBRANCH   1  19
TORSDOF 7
ENDMDL
MODEL 7
REMARK VINA RESULT:      -8.3      1.623      2.382
REMARK  Name = 
REMARK  11 active torsions:
REMARK  status: ('A' for Active; 'I' for Inactive)
REMARK    1  A    between atoms: C_1  and  O_2
REMARK    2  A    between atoms: O_2  and  C_3
REMARK    3  A    between atoms: C_7  and  C_8
REMARK    4  A    between atoms: C_10  and  C_11
REMARK    5  A    between atoms: C_11  and  S_12
REMARK    6  A    between atoms: S_12  and  C_15
REMARK    7  A    between atoms: C_15  and  C_16
REMARK    8  A    between atoms: N_18  and  C_19
REMARK    9  A    between atoms: C_20  and  C_21
REMARK   10  A    between atoms: C_25  and  C_26
REMARK   11  A    between atoms: C_27  and  C_28
REMARK                            x       y       z     vdW  Elec       q    Type
REMARK                         _______ _______ _______ _____ _____    ______ ____
ROOT
ATOM      1  S   UNL     1       5.342   6.094  16.119  0.00  0.00    +0.000 S 
ATOM      2  O   UNL     1       5.239   7.024  14.998  0.00  0.00    +0.000 OA
ATOM      3  O   UNL     1       4.699   4.797  15.994  0.00  0.00    +0.000 OA
ENDROOT
BRANCH   1   4
ATOM      4  C   UNL     1       7.089   5.859  16.490  0.00  0.00    +0.000 C 
BRANCH   4   7
ATOM      5  C   UNL     1       8.275   8.886  17.882  0.00  0.00    +0.000 A 
ATOM      6  N   UNL     1       7.755   8.193  16.891  0.00  0.00    +0.000 NA
ATOM      7  C   UNL     1       7.662   6.903  17.373  0.00  0.00    +0.000 A 
ATOM      8  C   UNL     1       8.092   6.886  18.688  0.00  0.00    +0.000 A 
ATOM      9  C   UNL     1       8.200   5.923  19.796  0.00  0.00    +0.000 C 
ATOM     10  O   UNL     1       8.509   8.149  19.005  0.00  0.00    +0.000 OA
BRANCH   5  15
ATOM     11  C   UNL     1      10.193  12.030  18.588  0.00  0.00    +0.000 A 
ATOM     12  C   UNL     1       9.306  13.001  18.121  0.00  0.00    +0.000 A 
ATOM     13  C   UNL     1       8.080  12.637  17.563  0.00  0.00    +0.000 A 
ATOM     14  C   UNL     1       7.732  11.289  17.475  0.00  0.00    +0.000 A 
ATOM     15  C   UNL     1       8.609  10.300  17.942  0.00  0.00    +0.000 A 
ATOM     16  C   UNL     1       9.843  10.684  18.490  0.00  0.00    +0.000 A 
BRANCH  11  18
ATOM     17  C   UNL     1      12.222  11.561  19.729  0.00  0.00    +0.000 C 
ATOM     18  O   UNL     1      11.355  12.515  19.124  0.00  0.00    +0.000 OA
ENDBRANCH  11  18
ENDBRANCH   5  15
ENDBRANCH   4   7
ENDBRANCH   1   4
BRANCH   1  19
ATOM     19  C   UNL     1       4.593   6.884  17.521  0.00  0.00    +0.000 C 
BRANCH  19  20
ATOM     20  C   UNL     1       4.128   5.837  18.480  0.00  0.00    +0.000 C 
ATOM     21  O   UNL     1       4.840   5.481  19.416  0.00  0.00    +0.000 OA
ATOM     22  N   UNL     1       2.890   5.276  18.205  0.00  0.00    +0.000 N 
ATOM     23  H   UNL     1       2.635   5.212  17.227  0.00  0.00    +0.000 HD
BRANCH  22  24
ATOM     24  C   UNL     1       2.372   4.275  19.068  0.00  0.00    +0.000 A 
ATOM     25  C   UNL     1       2.497   2.903  18.748  0.00  0.00    +0.000 A 
ATOM     26  C   UNL     1       3.355   2.371  17.629  0.00  0.00    +0.000 C 
ATOM     27  C   UNL     1       1.844   1.951  19.546  0.00  0.00    +0.000 A 
ATOM     28  C   UNL     1       1.136   2.340  20.678  0.00  0.00    +0.000 A 
ATOM     29  C   UNL     1       1.085   3.683  21.036  0.00  0.00    +0.000 A 
ATOM     30  C   UNL     1       1.694   4.668  20.240  0.00  0.00    +0.000 A 
ATOM     31  C   UNL     1       1.559   6.105  20.658  0.00  0.00    +0.000 C 
ENDBRANCH  22  24
ENDBRANCH  19  20
ENDBRANCH   1  19
TORSDOF 7
ENDMDL
MODEL 8
REMARK VINA RESULT:      -8.1      1.706      2.400
REMARK  Name = 
REMARK  11 active torsions:
REMARK  status: ('A' for Active; 'I' for Inactive)
REMARK    1  A    between atoms: C_1  and  O_2
REMARK    2  A    between atoms: O_2  and  C_3
REMARK    3  A    between atoms: C_7  and  C_8
REMARK    4  A    between atoms: C_10  and  C_11
REMARK    5  A    between atoms: C_11  and  S_12
REMARK    6  A    between atoms: S_12  and  C_15
REMARK    7  A    between atoms: C_15  and  C_16
REMARK    8  A    between atoms: N_18  and  C_19
REMARK    9  A    between atoms: C_20  and  C_21
REMARK   10  A    between atoms: C_25  and  C_26
REMARK   11  A    between atoms: C_27  and  C_28
REMARK                            x       y       z     vdW  Elec       q    Type
REMARK                         _______ _______ _______ _____ _____    ______ ____
ROOT
ATOM      1  S   UNL     1       7.047   4.833  16.012  0.00  0.00    +0.000 S 
ATOM      2  O   UNL     1       7.655   5.223  14.742  0.00  0.00    +0.000 OA
ATOM      3  O   UNL     1       7.888   4.181  17.003  0.00  0.00    +0.000 OA
ENDROOT
BRANCH   1   4
ATOM      4  C   UNL     1       6.293   6.296  16.742  0.00  0.00    +0.000 C 
BRANCH   4   7
ATOM      5  C   UNL     1       8.266   8.902  18.093  0.00  0.00    +0.000 A 
ATOM      6  N   UNL     1       7.414   8.437  17.203  0.00  0.00    +0.000 NA
ATOM      7  C   UNL     1       7.228   7.115  17.551  0.00  0.00    +0.000 A 
ATOM      8  C   UNL     1       7.954   6.849  18.698  0.00  0.00    +0.000 A 
ATOM      9  C   UNL     1       8.165   5.728  19.630  0.00  0.00    +0.000 C 
ATOM     10  O   UNL     1       8.639   7.984  19.029  0.00  0.00    +0.000 OA
BRANCH   5  15
ATOM     11  C   UNL     1       8.640  12.619  17.770  0.00  0.00    +0.000 A 
ATOM     12  C   UNL     1       9.880  12.822  18.379  0.00  0.00    +0.000 A 
ATOM     13  C   UNL     1      10.598  11.749  18.908  0.00  0.00    +0.000 A 
ATOM     14  C   UNL     1      10.077  10.459  18.824  0.00  0.00    +0.000 A 
ATOM     15  C   UNL     1       8.835  10.235  18.214  0.00  0.00    +0.000 A 
ATOM     16  C   UNL     1       8.121  11.328  17.696  0.00  0.00    +0.000 A 
BRANCH  11  18
ATOM     17  C   UNL     1       7.246  14.494  18.195  0.00  0.00    +0.000 C 
ATOM     18  O   UNL     1       8.042  13.748  17.280  0.00  0.00    +0.000 OA
ENDBRANCH  11  18
ENDBRANCH   5  15
ENDBRANCH   4   7
ENDBRANCH   1   4
BRANCH   1  19
ATOM     19  C   UNL     1       5.747   3.685  15.636  0.00  0.00    +0.000 C 
BRANCH  19  20
ATOM     20  C   UNL     1       4.689   3.783  16.687  0.00  0.00    +0.000 C 
ATOM     21  O   UNL     1       3.499   3.782  16.382  0.00  0.00    +0.000 OA
ATOM     22  N   UNL     1       5.146   3.928  17.988  0.00  0.00    +0.000 N 
ATOM     23  H   UNL     1       6.018   4.428  18.103  0.00  0.00    +0.000 HD
BRANCH  22  24
ATOM     24  C   UNL     1       4.207   4.026  19.048  0.00  0.00    +0.000 A 
ATOM     25  C   UNL     1       3.919   2.911  19.870  0.00  0.00    +0.000 A 
ATOM     26  C   UNL     1       4.709   1.627  19.860  0.00  0.00    +0.000 C 
ATOM     27  C   UNL     1       2.879   3.002  20.808  0.00  0.00    +0.000 A 
ATOM     28  C   UNL     1       2.180   4.192  20.979  0.00  0.00    +0.000 A 
ATOM     29  C   UNL     1       2.522   5.312  20.227  0.00  0.00    +0.000 A 
ATOM     30  C   UNL     1       3.531   5.247  19.251  0.00  0.00    +0.000 A 
ATOM     31  C   UNL     1       3.817   6.479  18.439  0.00  0.00    +0.000 C 
ENDBRANCH  22  24
ENDBRANCH  19  20
ENDBRANCH   1  19
TORSDOF 7
ENDMDL
MODEL 9
REMARK VINA RESULT:      -8.1      1.414      2.250
REMARK  Name = 
REMARK  11 active torsions:
REMARK  status: ('A' for Active; 'I' for Inactive)
REMARK    1  A    between atoms: C_1  and  O_2
REMARK    2  A    between atoms: O_2  and  C_3
REMARK    3  A    between atoms: C_7  and  C_8
REMARK    4  A    between atoms: C_10  and  C_11
REMARK    5  A    between atoms: C_11  and  S_12
REMARK    6  A    between atoms: S_12  and  C_15
REMARK    7  A    between atoms: C_15  and  C_16
REMARK    8  A    between atoms: N_18  and  C_19
REMARK    9  A    between atoms: C_20  and  C_21
REMARK   10  A    between atoms: C_25  and  C_26
REMARK   11  A    between atoms: C_27  and  C_28
REMARK                            x       y       z     vdW  Elec       q    Type
REMARK                         _______ _______ _______ _____ _____    ______ ____
ROOT
ATOM      1  S   UNL     1       6.831   4.950  16.126  0.00  0.00    +0.000 S 
ATOM      2  O   UNL     1       7.468   4.909  14.813  0.00  0.00    +0.000 OA
ATOM      3  O   UNL     1       7.534   4.352  17.249  0.00  0.00    +0.000 OA
ENDROOT
BRANCH   1   4
ATOM      4  C   UNL     1       6.451   6.668  16.508  0.00  0.00    +0.000 C 
BRANCH   4   7
ATOM      5  C   UNL     1       8.526   8.860  18.353  0.00  0.00    +0.000 A 
ATOM      6  N   UNL     1       7.742   8.596  17.329  0.00  0.00    +0.000 NA
ATOM      7  C   UNL     1       7.366   7.279  17.502  0.00  0.00    +0.000 A 
ATOM      8  C   UNL     1       7.912   6.812  18.685  0.00  0.00    +0.000 A 
ATOM      9  C   UNL     1       7.880   5.587  19.501  0.00  0.00    +0.000 C 
ATOM     10  O   UNL     1       8.676   7.815  19.215  0.00  0.00    +0.000 OA
BRANCH   5  15
ATOM     11  C   UNL     1      10.416  12.069  17.920  0.00  0.00    +0.000 A 
ATOM     12  C   UNL     1      10.600  12.459  19.248  0.00  0.00    +0.000 A 
ATOM     13  C   UNL     1      10.100  11.682  20.293  0.00  0.00    +0.000 A 
ATOM     14  C   UNL     1       9.414  10.501  20.012  0.00  0.00    +0.000 A 
ATOM     15  C   UNL     1       9.222  10.093  18.685  0.00  0.00    +0.000 A 
ATOM     16  C   UNL     1       9.722  10.892  17.645  0.00  0.00    +0.000 A 
BRANCH  11  18
ATOM     17  C   UNL     1      11.115  14.271  17.370  0.00  0.00    +0.000 C 
ATOM     18  O   UNL     1      10.964  12.908  16.988  0.00  0.00    +0.000 OA
ENDBRANCH  11  18
ENDBRANCH   5  15
ENDBRANCH   4   7
ENDBRANCH   1   4
BRANCH   1  19
ATOM     19  C   UNL     1       5.292   4.075  15.986  0.00  0.00    +0.000 C 
BRANCH  19  20
ATOM     20  C   UNL     1       4.516   4.246  17.251  0.00  0.00    +0.000 C 
ATOM     21  O   UNL     1       4.580   5.293  17.890  0.00  0.00    +0.000 OA
ATOM     22  N   UNL     1       3.785   3.142  17.662  0.00  0.00    +0.000 N 
ATOM     23  H   UNL     1       4.172   2.237  17.428  0.00  0.00    +0.000 HD
BRANCH  22  24
ATOM     24  C   UNL     1       3.017   3.221  18.854  0.00  0.00    +0.000 A 
ATOM     25  C   UNL     1       3.476   2.631  20.055  0.00  0.00    +0.000 A 
ATOM     26  C   UNL     1       4.867   2.083  20.251  0.00  0.00    +0.000 C 
ATOM     27  C   UNL     1       2.625   2.598  21.170  0.00  0.00    +0.000 A 
ATOM     28  C   UNL     1       1.371   3.196  21.124  0.00  0.00    +0.000 A 
ATOM     29  C   UNL     1       0.956   3.848  19.967  0.00  0.00    +0.000 A 
ATOM     30  C   UNL     1       1.765   3.867  18.818  0.00  0.00    +0.000 A 
ATOM     31  C   UNL     1       1.236   4.547  17.586  0.00  0.00    +0.000 C 
ENDBRANCH  22  24
ENDBRANCH  19  20
ENDBRANCH   1  19
TORSDOF 7
ENDMDL
