MODEL 1
REMARK VINA RESULT:      -8.1      0.000      0.000
REMARK  Name = 
REMARK  9 active torsions:
REMARK  status: ('A' for Active; 'I' for Inactive)
REMARK    1  A    between atoms: C_1  and  C_2
REMARK    2  A    between atoms: C_2  and  C_3
REMARK    3  A    between atoms: C_6  and  N_7
REMARK    4  A    between atoms: C_8  and  C_10
REMARK    5  A    between atoms: C_10  and  C_11
REMARK    6  A    between atoms: C_10  and  S_12
REMARK    7  A    between atoms: S_12  and  C_13
REMARK    8  A    between atoms: C_16  and  C_17
REMARK    9  A    between atoms: C_17  and  N_18
REMARK                            x       y       z     vdW  Elec       q    Type
REMARK                         _______ _______ _______ _____ _____    ______ ____
ROOT
ATOM      1  C   UNL     1       8.003   6.286  18.119  0.00  0.00    +0.000 C 
ATOM      2  C   UNL     1       7.465   7.656  17.691  0.00  0.00    +0.000 C 
ENDROOT
BRANCH   1   4
ATOM      3  N   UNL     1       7.076   5.800  15.898  0.00  0.00    +0.000 N 
ATOM      4  C   UNL     1       7.728   5.272  17.003  0.00  0.00    +0.000 C 
ATOM      5  O   UNL     1       8.098   4.101  17.123  0.00  0.00    +0.000 OA
ATOM      6  H   UNL     1       6.949   6.809  15.864  0.00  0.00    +0.000 HD
BRANCH   3  10
ATOM      7  C   UNL     1       5.735   3.555  12.567  0.00  0.00    +0.000 A 
ATOM      8  C   UNL     1       6.979   4.187  12.521  0.00  0.00    +0.000 A 
ATOM      9  C   UNL     1       7.431   4.941  13.604  0.00  0.00    +0.000 A 
ATOM     10  C   UNL     1       6.652   5.086  14.754  0.00  0.00    +0.000 A 
ATOM     11  C   UNL     1       5.390   4.483  14.787  0.00  0.00    +0.000 A 
ATOM     12  C   UNL     1       4.936   3.718  13.705  0.00  0.00    +0.000 A 
BRANCH   7  14
ATOM     13  C   UNL     1       3.917   2.988  10.966  0.00  0.00    +0.000 C 
ATOM     14  C   UNL     1       5.321   2.642  11.444  0.00  0.00    +0.000 C 
ENDBRANCH   7  14
ENDBRANCH   3  10
ENDBRANCH   1   4
BRANCH   1  15
ATOM     15  S   UNL     1       7.128   5.774  19.646  0.00  0.00    +0.000 S 
BRANCH  15  16
ATOM     16  C   UNL     1       5.676   5.102  18.978  0.00  0.00    +0.000 A 
ATOM     17  N   UNL     1       4.702   5.814  18.444  0.00  0.00    +0.000 NA
ATOM     18  N   UNL     1       3.672   4.935  18.178  0.00  0.00    +0.000 NA
ATOM     19  C   UNL     1       4.096   3.743  18.551  0.00  0.00    +0.000 A 
ATOM     20  O   UNL     1       5.382   3.767  19.024  0.00  0.00    +0.000 OA
BRANCH  19  21
ATOM     21  C   UNL     1       3.367   2.437  18.556  0.00  0.00    +0.000 C 
BRANCH  21  22
ATOM     22  N   UNL     1       2.466   2.140  19.688  0.00  0.00    +0.000 NA
ATOM     23  C   UNL     1       1.064   2.506  19.468  0.00  0.00    +0.000 C 
ATOM     24  C   UNL     1       0.903   3.890  20.069  0.00  0.00    +0.000 C 
ATOM     25  C   UNL     1       1.906   3.925  21.209  0.00  0.00    +0.000 C 
ATOM     26  C   UNL     1       2.860   2.761  20.957  0.00  0.00    +0.000 C 
ENDBRANCH  21  22
ENDBRANCH  19  21
ENDBRANCH  15  16
ENDBRANCH   1  15
TORSDOF 7
ENDMDL
MODEL 2
REMARK VINA RESULT:      -7.5      3.651      7.399
REMARK  Name = 
REMARK  9 active torsions:
REMARK  status: ('A' for Active; 'I' for Inactive)
REMARK    1  A    between atoms: C_1  and  C_2
REMARK    2  A    between atoms: C_2  and  C_3
REMARK    3  A    between atoms: C_6  and  N_7
REMARK    4  A    between atoms: C_8  and  C_10
REMARK    5  A    between atoms: C_10  and  C_11
REMARK    6  A    between atoms: C_10  and  S_12
REMARK    7  A    between atoms: S_12  and  C_13
REMARK    8  A    between atoms: C_16  and  C_17
REMARK    9  A    between atoms: C_17  and  N_18
REMARK                            x       y       z     vdW  Elec       q    Type
REMARK                         _______ _______ _______ _____ _____    ______ ____
ROOT
ATOM      1  C   UNL     1       2.570   3.415  21.180  0.00  0.00    +0.000 C 
ATOM      2  C   UNL     1       1.573   2.455  21.837  0.00  0.00    +0.000 C 
ENDROOT
BRANCH   1   4
ATOM      3  N   UNL     1       2.548   5.778  20.513  0.00  0.00    +0.000 N 
ATOM      4  C   UNL     1       1.804   4.610  20.603  0.00  0.00    +0.000 C 
ATOM      5  O   UNL     1       0.630   4.482  20.245  0.00  0.00    +0.000 OA
ATOM      6  H   UNL     1       3.544   5.718  20.712  0.00  0.00    +0.000 HD
BRANCH   3  10
ATOM      7  C   UNL     1       1.288   9.568  19.106  0.00  0.00    +0.000 A 
ATOM      8  C   UNL     1       0.996   9.183  20.415  0.00  0.00    +0.000 A 
ATOM      9  C   UNL     1       1.392   7.933  20.891  0.00  0.00    +0.000 A 
ATOM     10  C   UNL     1       2.083   7.038  20.072  0.00  0.00    +0.000 A 
ATOM     11  C   UNL     1       2.345   7.408  18.749  0.00  0.00    +0.000 A 
ATOM     12  C   UNL     1       1.956   8.666  18.269  0.00  0.00    +0.000 A 
BRANCH   7  14
ATOM     13  C   UNL     1       0.995  11.930  19.831  0.00  0.00    +0.000 C 
ATOM     14  C   UNL     1       0.967  10.967  18.651  0.00  0.00    +0.000 C 
ENDBRANCH   7  14
ENDBRANCH   3  10
ENDBRANCH   1   4
BRANCH   1  15
ATOM     15  S   UNL     1       3.426   2.522  19.828  0.00  0.00    +0.000 S 
BRANCH  15  16
ATOM     16  C   UNL     1       4.574   3.720  19.324  0.00  0.00    +0.000 A 
ATOM     17  N   UNL     1       5.617   4.100  20.037  0.00  0.00    +0.000 NA
ATOM     18  N   UNL     1       6.183   5.166  19.370  0.00  0.00    +0.000 NA
ATOM     19  C   UNL     1       5.457   5.353  18.284  0.00  0.00    +0.000 A 
ATOM     20  O   UNL     1       4.445   4.435  18.165  0.00  0.00    +0.000 OA
BRANCH  19  21
ATOM     21  C   UNL     1       5.573   6.413  17.237  0.00  0.00    +0.000 C 
BRANCH  21  22
ATOM     22  N   UNL     1       6.319   6.102  16.001  0.00  0.00    +0.000 NA
ATOM     23  C   UNL     1       5.484   5.909  14.812  0.00  0.00    +0.000 C 
ATOM     24  C   UNL     1       5.251   4.413  14.713  0.00  0.00    +0.000 C 
ATOM     25  C   UNL     1       6.501   3.797  15.320  0.00  0.00    +0.000 C 
ATOM     26  C   UNL     1       7.182   4.920  16.094  0.00  0.00    +0.000 C 
ENDBRANCH  21  22
ENDBRANCH  19  21
ENDBRANCH  15  16
ENDBRANCH   1  15
TORSDOF 7
ENDMDL
MODEL 3
REMARK VINA RESULT:      -7.0      3.557      7.316
REMARK  Name = 
REMARK  9 active torsions:
REMARK  status: ('A' for Active; 'I' for Inactive)
REMARK    1  A    between atoms: C_1  and  C_2
REMARK    2  A    between atoms: C_2  and  C_3
REMARK    3  A    between atoms: C_6  and  N_7
REMARK    4  A    between atoms: C_8  and  C_10
REMARK    5  A    between atoms: C_10  and  C_11
REMARK    6  A    between atoms: C_10  and  S_12
REMARK    7  A    between atoms: S_12  and  C_13
REMARK    8  A    between atoms: C_16  and  C_17
REMARK    9  A    between atoms: C_17  and  N_18
REMARK                            x       y       z     vdW  Elec       q    Type
REMARK                         _______ _______ _______ _____ _____    ______ ____
ROOT
ATOM      1  C   UNL     1       2.410   3.374  20.905  0.00  0.00    +0.000 C 
ATOM      2  C   UNL     1       1.541   2.155  20.579  0.00  0.00    +0.000 C 
ENDROOT
BRANCH   1   4
ATOM      3  N   UNL     1       2.383   5.805  20.564  0.00  0.00    +0.000 N 
ATOM      4  C   UNL     1       1.874   4.587  20.137  0.00  0.00    +0.000 C 
ATOM      5  O   UNL     1       1.074   4.432  19.211  0.00  0.00    +0.000 OA
ATOM      6  H   UNL     1       3.139   5.787  21.245  0.00  0.00    +0.000 HD
BRANCH   3  10
ATOM      7  C   UNL     1       1.170   9.616  19.174  0.00  0.00    +0.000 A 
ATOM      8  C   UNL     1       1.950   8.797  18.356  0.00  0.00    +0.000 A 
ATOM      9  C   UNL     1       2.369   7.544  18.803  0.00  0.00    +0.000 A 
ATOM     10  C   UNL     1       2.025   7.082  20.075  0.00  0.00    +0.000 A 
ATOM     11  C   UNL     1       1.274   7.917  20.908  0.00  0.00    +0.000 A 
ATOM     12  C   UNL     1       0.844   9.173  20.460  0.00  0.00    +0.000 A 
BRANCH   7  14
ATOM     13  C   UNL     1      -0.336  11.544  19.627  0.00  0.00    +0.000 C 
ATOM     14  C   UNL     1       0.620  10.907  18.627  0.00  0.00    +0.000 C 
ENDBRANCH   7  14
ENDBRANCH   3  10
ENDBRANCH   1   4
BRANCH   1  15
ATOM     15  S   UNL     1       4.127   3.018  20.374  0.00  0.00    +0.000 S 
BRANCH  15  16
ATOM     16  C   UNL     1       4.107   3.658  18.762  0.00  0.00    +0.000 A 
ATOM     17  N   UNL     1       3.765   2.969  17.690  0.00  0.00    +0.000 NA
ATOM     18  N   UNL     1       4.029   3.775  16.603  0.00  0.00    +0.000 NA
ATOM     19  C   UNL     1       4.498   4.910  17.087  0.00  0.00    +0.000 A 
ATOM     20  O   UNL     1       4.528   4.923  18.457  0.00  0.00    +0.000 OA
BRANCH  19  21
ATOM     21  C   UNL     1       5.011   6.110  16.358  0.00  0.00    +0.000 C 
BRANCH  21  22
ATOM     22  N   UNL     1       6.472   6.304  16.264  0.00  0.00    +0.000 NA
ATOM     23  C   UNL     1       7.254   5.064  16.220  0.00  0.00    +0.000 C 
ATOM     24  C   UNL     1       7.666   4.789  17.653  0.00  0.00    +0.000 C 
ATOM     25  C   UNL     1       7.781   6.167  18.283  0.00  0.00    +0.000 C 
ATOM     26  C   UNL     1       7.048   7.115  17.341  0.00  0.00    +0.000 C 
ENDBRANCH  21  22
ENDBRANCH  19  21
ENDBRANCH  15  16
ENDBRANCH   1  15
TORSDOF 7
ENDMDL
MODEL 4
REMARK VINA RESULT:      -7.0      1.712      1.992
REMARK  Name = 
REMARK  9 active torsions:
REMARK  status: ('A' for Active; 'I' for Inactive)
REMARK    1  A    between atoms: C_1  and  C_2
REMARK    2  A    between atoms: C_2  and  C_3
REMARK    3  A    between atoms: C_6  and  N_7
REMARK    4  A    between atoms: C_8  and  C_10
REMARK    5  A    between atoms: C_10  and  C_11
REMARK    6  A    between atoms: C_10  and  S_12
REMARK    7  A    between atoms: S_12  and  C_13
REMARK    8  A    between atoms: C_16  and  C_17
REMARK    9  A    between atoms: C_17  and  N_18
REMARK                            x       y       z     vdW  Elec       q    Type
REMARK                         _______ _______ _______ _____ _____    ______ ____
ROOT
ATOM      1  C   UNL     1       6.815   6.287  17.872  0.00  0.00    +0.000 C 
ATOM      2  C   UNL     1       8.106   6.900  18.424  0.00  0.00    +0.000 C 
ENDROOT
BRANCH   1   4
ATOM      3  N   UNL     1       6.559   5.628  15.520  0.00  0.00    +0.000 N 
ATOM      4  C   UNL     1       7.168   5.327  16.730  0.00  0.00    +0.000 C 
ATOM      5  O   UNL     1       7.951   4.394  16.923  0.00  0.00    +0.000 OA
ATOM      6  H   UNL     1       6.044   6.503  15.457  0.00  0.00    +0.000 HD
BRANCH   3  10
ATOM      7  C   UNL     1       6.832   3.270  12.013  0.00  0.00    +0.000 A 
ATOM      8  C   UNL     1       7.687   4.360  12.183  0.00  0.00    +0.000 A 
ATOM      9  C   UNL     1       7.602   5.154  13.327  0.00  0.00    +0.000 A 
ATOM     10  C   UNL     1       6.661   4.885  14.322  0.00  0.00    +0.000 A 
ATOM     11  C   UNL     1       5.780   3.815  14.135  0.00  0.00    +0.000 A 
ATOM     12  C   UNL     1       5.866   3.009  12.992  0.00  0.00    +0.000 A 
BRANCH   7  14
ATOM     13  C   UNL     1       6.323   1.019  11.084  0.00  0.00    +0.000 C 
ATOM     14  C   UNL     1       7.023   2.349  10.838  0.00  0.00    +0.000 C 
ENDBRANCH   7  14
ENDBRANCH   3  10
ENDBRANCH   1   4
BRANCH   1  15
ATOM     15  S   UNL     1       5.759   7.642  17.232  0.00  0.00    +0.000 S 
BRANCH  15  16
ATOM     16  C   UNL     1       4.180   6.998  17.545  0.00  0.00    +0.000 A 
ATOM     17  N   UNL     1       3.112   7.731  17.797  0.00  0.00    +0.000 NA
ATOM     18  N   UNL     1       2.105   6.854  18.142  0.00  0.00    +0.000 NA
ATOM     19  C   UNL     1       2.622   5.643  18.060  0.00  0.00    +0.000 A 
ATOM     20  O   UNL     1       3.926   5.657  17.636  0.00  0.00    +0.000 OA
BRANCH  19  21
ATOM     21  C   UNL     1       2.003   4.324  18.391  0.00  0.00    +0.000 C 
BRANCH  21  22
ATOM     22  N   UNL     1       1.126   4.237  19.576  0.00  0.00    +0.000 NA
ATOM     23  C   UNL     1       1.665   4.866  20.786  0.00  0.00    +0.000 C 
ATOM     24  C   UNL     1       2.347   3.752  21.557  0.00  0.00    +0.000 C 
ATOM     25  C   UNL     1       1.556   2.506  21.197  0.00  0.00    +0.000 C 
ATOM     26  C   UNL     1       0.751   2.871  19.955  0.00  0.00    +0.000 C 
ENDBRANCH  21  22
ENDBRANCH  19  21
ENDBRANCH  15  16
ENDBRANCH   1  15
TORSDOF 7
ENDMDL
MODEL 5
REMARK VINA RESULT:      -7.0      1.364      1.865
REMARK  Name = 
REMARK  9 active torsions:
REMARK  status: ('A' for Active; 'I' for Inactive)
REMARK    1  A    between atoms: C_1  and  C_2
REMARK    2  A    between atoms: C_2  and  C_3
REMARK    3  A    between atoms: C_6  and  N_7
REMARK    4  A    between atoms: C_8  and  C_10
REMARK    5  A    between atoms: C_10  and  C_11
REMARK    6  A    between atoms: C_10  and  S_12
REMARK    7  A    between atoms: S_12  and  C_13
REMARK    8  A    between atoms: C_16  and  C_17
REMARK    9  A    between atoms: C_17  and  N_18
REMARK                            x       y       z     vdW  Elec       q    Type
REMARK                         _______ _______ _______ _____ _____    ______ ____
ROOT
ATOM      1  C   UNL     1       7.779   7.058  17.453  0.00  0.00    +0.000 C 
ATOM      2  C   UNL     1       7.313   8.482  17.772  0.00  0.00    +0.000 C 
ENDROOT
BRANCH   1   4
ATOM      3  N   UNL     1       7.438   5.427  15.650  0.00  0.00    +0.000 N 
ATOM      4  C   UNL     1       6.869   6.467  16.371  0.00  0.00    +0.000 C 
ATOM      5  O   UNL     1       5.727   6.905  16.212  0.00  0.00    +0.000 OA
ATOM      6  H   UNL     1       8.335   5.069  15.968  0.00  0.00    +0.000 HD
BRANCH   3  10
ATOM      7  C   UNL     1       5.737   3.475  12.299  0.00  0.00    +0.000 A 
ATOM      8  C   UNL     1       5.051   3.489  13.514  0.00  0.00    +0.000 A 
ATOM      9  C   UNL     1       5.602   4.117  14.631  0.00  0.00    +0.000 A 
ATOM     10  C   UNL     1       6.850   4.738  14.564  0.00  0.00    +0.000 A 
ATOM     11  C   UNL     1       7.555   4.693  13.356  0.00  0.00    +0.000 A 
ATOM     12  C   UNL     1       7.001   4.071  12.230  0.00  0.00    +0.000 A 
BRANCH   7  14
ATOM     13  C   UNL     1       3.622   3.368  10.994  0.00  0.00    +0.000 C 
ATOM     14  C   UNL     1       5.071   2.907  11.074  0.00  0.00    +0.000 C 
ENDBRANCH   7  14
ENDBRANCH   3  10
ENDBRANCH   1   4
BRANCH   1  15
ATOM     15  S   UNL     1       7.654   6.053  18.980  0.00  0.00    +0.000 S 
BRANCH  15  16
ATOM     16  C   UNL     1       6.150   5.233  18.706  0.00  0.00    +0.000 A 
ATOM     17  N   UNL     1       6.043   4.031  18.175  0.00  0.00    +0.000 NA
ATOM     18  N   UNL     1       4.695   3.805  17.983  0.00  0.00    +0.000 NA
ATOM     19  C   UNL     1       4.071   4.878  18.428  0.00  0.00    +0.000 A 
ATOM     20  O   UNL     1       4.933   5.809  18.949  0.00  0.00    +0.000 OA
BRANCH  19  21
ATOM     21  C   UNL     1       2.613   5.206  18.402  0.00  0.00    +0.000 C 
BRANCH  21  22
ATOM     22  N   UNL     1       1.682   4.327  19.138  0.00  0.00    +0.000 NA
ATOM     23  C   UNL     1       1.323   4.800  20.479  0.00  0.00    +0.000 C 
ATOM     24  C   UNL     1       2.282   4.107  21.428  0.00  0.00    +0.000 C 
ATOM     25  C   UNL     1       2.593   2.783  20.750  0.00  0.00    +0.000 C 
ATOM     26  C   UNL     1       2.150   2.947  19.300  0.00  0.00    +0.000 C 
ENDBRANCH  21  22
ENDBRANCH  19  21
ENDBRANCH  15  16
ENDBRANCH   1  15
TORSDOF 7
ENDMDL
MODEL 6
REMARK VINA RESULT:      -7.0      1.609      2.143
REMARK  Name = 
REMARK  9 active torsions:
REMARK  status: ('A' for Active; 'I' for Inactive)
REMARK    1  A    between atoms: C_1  and  C_2
REMARK    2  A    between atoms: C_2  and  C_3
REMARK    3  A    between atoms: C_6  and  N_7
REMARK    4  A    between atoms: C_8  and  C_10
REMARK    5  A    between atoms: C_10  and  C_11
REMARK    6  A    between atoms: C_10  and  S_12
REMARK    7  A    between atoms: S_12  and  C_13
REMARK    8  A    between atoms: C_16  and  C_17
REMARK    9  A    between atoms: C_17  and  N_18
REMARK                            x       y       z     vdW  Elec       q    Type
REMARK                         _______ _______ _______ _____ _____    ______ ____
ROOT
ATOM      1  C   UNL     1       6.703   6.328  17.697  0.00  0.00    +0.000 C 
ATOM      2  C   UNL     1       7.912   7.207  18.034  0.00  0.00    +0.000 C 
ENDROOT
BRANCH   1   4
ATOM      3  N   UNL     1       6.426   5.602  15.368  0.00  0.00    +0.000 N 
ATOM      4  C   UNL     1       7.085   5.367  16.566  0.00  0.00    +0.000 C 
ATOM      5  O   UNL     1       7.931   4.490  16.755  0.00  0.00    +0.000 OA
ATOM      6  H   UNL     1       5.855   6.442  15.302  0.00  0.00    +0.000 HD
BRANCH   3  10
ATOM      7  C   UNL     1       6.725   3.196  11.897  0.00  0.00    +0.000 A 
ATOM      8  C   UNL     1       7.662   4.205  12.122  0.00  0.00    +0.000 A 
ATOM      9  C   UNL     1       7.571   5.016  13.254  0.00  0.00    +0.000 A 
ATOM     10  C   UNL     1       6.543   4.842  14.182  0.00  0.00    +0.000 A 
ATOM     11  C   UNL     1       5.583   3.854  13.939  0.00  0.00    +0.000 A 
ATOM     12  C   UNL     1       5.675   3.033  12.807  0.00  0.00    +0.000 A 
BRANCH   7  14
ATOM     13  C   UNL     1       6.355   0.874  11.083  0.00  0.00    +0.000 C 
ATOM     14  C   UNL     1       6.913   2.250  10.741  0.00  0.00    +0.000 C 
ENDBRANCH   7  14
ENDBRANCH   3  10
ENDBRANCH   1   4
BRANCH   1  15
ATOM     15  S   UNL     1       5.334   7.414  17.147  0.00  0.00    +0.000 S 
BRANCH  15  16
ATOM     16  C   UNL     1       4.018   6.777  18.080  0.00  0.00    +0.000 A 
ATOM     17  N   UNL     1       2.896   7.425  18.325  0.00  0.00    +0.000 NA
ATOM     18  N   UNL     1       2.183   6.654  19.220  0.00  0.00    +0.000 NA
ATOM     19  C   UNL     1       2.912   5.577  19.445  0.00  0.00    +0.000 A 
ATOM     20  O   UNL     1       4.071   5.566  18.714  0.00  0.00    +0.000 OA
BRANCH  19  21
ATOM     21  C   UNL     1       2.659   4.441  20.383  0.00  0.00    +0.000 C 
BRANCH  21  22
ATOM     22  N   UNL     1       2.083   3.195  19.838  0.00  0.00    +0.000 NA
ATOM     23  C   UNL     1       3.028   2.080  19.724  0.00  0.00    +0.000 C 
ATOM     24  C   UNL     1       3.549   2.130  18.300  0.00  0.00    +0.000 C 
ATOM     25  C   UNL     1       2.398   2.712  17.497  0.00  0.00    +0.000 C 
ATOM     26  C   UNL     1       1.457   3.342  18.519  0.00  0.00    +0.000 C 
ENDBRANCH  21  22
ENDBRANCH  19  21
ENDBRANCH  15  16
ENDBRANCH   1  15
TORSDOF 7
ENDMDL
MODEL 7
REMARK VINA RESULT:      -7.0      1.177      1.618
REMARK  Name = 
REMARK  9 active torsions:
REMARK  status: ('A' for Active; 'I' for Inactive)
REMARK    1  A    between atoms: C_1  and  C_2
REMARK    2  A    between atoms: C_2  and  C_3
REMARK    3  A    between atoms: C_6  and  N_7
REMARK    4  A    between atoms: C_8  and  C_10
REMARK    5  A    between atoms: C_10  and  C_11
REMARK    6  A    between atoms: C_10  and  S_12
REMARK    7  A    between atoms: S_12  and  C_13
REMARK    8  A    between atoms: C_16  and  C_17
REMARK    9  A    between atoms: C_17  and  N_18
REMARK                            x       y       z     vdW  Elec       q    Type
REMARK                         _______ _______ _______ _____ _____    ______ ____
ROOT
ATOM      1  C   UNL     1       7.264   6.587  17.868  0.00  0.00    +0.000 C 
ATOM      2  C   UNL     1       7.839   7.874  17.270  0.00  0.00    +0.000 C 
ENDROOT
BRANCH   1   4
ATOM      3  N   UNL     1       6.600   5.762  15.653  0.00  0.00    +0.000 N 
ATOM      4  C   UNL     1       7.313   5.480  16.809  0.00  0.00    +0.000 C 
ATOM      5  O   UNL     1       7.967   4.454  17.013  0.00  0.00    +0.000 OA
ATOM      6  H   UNL     1       6.218   6.700  15.552  0.00  0.00    +0.000 HD
BRANCH   3  10
ATOM      7  C   UNL     1       6.151   3.308  12.232  0.00  0.00    +0.000 A 
ATOM      8  C   UNL     1       5.186   3.273  13.240  0.00  0.00    +0.000 A 
ATOM      9  C   UNL     1       5.325   4.066  14.380  0.00  0.00    +0.000 A 
ATOM     10  C   UNL     1       6.429   4.905  14.542  0.00  0.00    +0.000 A 
ATOM     11  C   UNL     1       7.414   4.914  13.548  0.00  0.00    +0.000 A 
ATOM     12  C   UNL     1       7.274   4.126  12.398  0.00  0.00    +0.000 A 
BRANCH   7  14
ATOM     13  C   UNL     1       6.650   1.209  10.992  0.00  0.00    +0.000 C 
ATOM     14  C   UNL     1       5.920   2.545  10.954  0.00  0.00    +0.000 C 
ENDBRANCH   7  14
ENDBRANCH   3  10
ENDBRANCH   1   4
BRANCH   1  15
ATOM     15  S   UNL     1       5.525   6.900  18.351  0.00  0.00    +0.000 S 
BRANCH  15  16
ATOM     16  C   UNL     1       5.008   5.296  18.762  0.00  0.00    +0.000 A 
ATOM     17  N   UNL     1       5.573   4.544  19.686  0.00  0.00    +0.000 NA
ATOM     18  N   UNL     1       4.981   3.302  19.600  0.00  0.00    +0.000 NA
ATOM     19  C   UNL     1       4.080   3.385  18.640  0.00  0.00    +0.000 A 
ATOM     20  O   UNL     1       4.008   4.642  18.096  0.00  0.00    +0.000 OA
BRANCH  19  21
ATOM     21  C   UNL     1       3.197   2.321  18.074  0.00  0.00    +0.000 C 
BRANCH  21  22
ATOM     22  N   UNL     1       1.818   2.204  18.591  0.00  0.00    +0.000 NA
ATOM     23  C   UNL     1       1.019   3.429  18.491  0.00  0.00    +0.000 C 
ATOM     24  C   UNL     1       1.163   4.121  19.833  0.00  0.00    +0.000 C 
ATOM     25  C   UNL     1       1.358   2.986  20.824  0.00  0.00    +0.000 C 
ATOM     26  C   UNL     1       1.728   1.766  19.987  0.00  0.00    +0.000 C 
ENDBRANCH  21  22
ENDBRANCH  19  21
ENDBRANCH  15  16
ENDBRANCH   1  15
TORSDOF 7
ENDMDL
MODEL 8
REMARK VINA RESULT:      -6.9      3.569      7.353
REMARK  Name = 
REMARK  9 active torsions:
REMARK  status: ('A' for Active; 'I' for Inactive)
REMARK    1  A    between atoms: C_1  and  C_2
REMARK    2  A    between atoms: C_2  and  C_3
REMARK    3  A    between atoms: C_6  and  N_7
REMARK    4  A    between atoms: C_8  and  C_10
REMARK    5  A    between atoms: C_10  and  C_11
REMARK    6  A    between atoms: C_10  and  S_12
REMARK    7  A    between atoms: S_12  and  C_13
REMARK    8  A    between atoms: C_16  and  C_17
REMARK    9  A    between atoms: C_17  and  N_18
REMARK                            x       y       z     vdW  Elec       q    Type
REMARK                         _______ _______ _______ _____ _____    ______ ____
ROOT
ATOM      1  C   UNL     1       2.310   3.255  20.666  0.00  0.00    +0.000 C 
ATOM      2  C   UNL     1       1.430   2.073  20.245  0.00  0.00    +0.000 C 
ENDROOT
BRANCH   1   4
ATOM      3  N   UNL     1       2.298   5.703  20.487  0.00  0.00    +0.000 N 
ATOM      4  C   UNL     1       1.830   4.517  19.941  0.00  0.00    +0.000 C 
ATOM      5  O   UNL     1       1.106   4.424  18.947  0.00  0.00    +0.000 OA
ATOM      6  H   UNL     1       2.998   5.640  21.222  0.00  0.00    +0.000 HD
BRANCH   3  10
ATOM      7  C   UNL     1       1.465   9.625  19.123  0.00  0.00    +0.000 A 
ATOM      8  C   UNL     1       1.037   9.227  20.390  0.00  0.00    +0.000 A 
ATOM      9  C   UNL     1       1.291   7.935  20.850  0.00  0.00    +0.000 A 
ATOM     10  C   UNL     1       1.973   7.011  20.057  0.00  0.00    +0.000 A 
ATOM     11  C   UNL     1       2.371   7.397  18.773  0.00  0.00    +0.000 A 
ATOM     12  C   UNL     1       2.125   8.696  18.310  0.00  0.00    +0.000 A 
BRANCH   7  14
ATOM     13  C   UNL     1       1.027  11.946  19.904  0.00  0.00    +0.000 C 
ATOM     14  C   UNL     1       1.296  11.059  18.695  0.00  0.00    +0.000 C 
ENDBRANCH   7  14
ENDBRANCH   3  10
ENDBRANCH   1   4
BRANCH   1  15
ATOM     15  S   UNL     1       4.040   2.888  20.185  0.00  0.00    +0.000 S 
BRANCH  15  16
ATOM     16  C   UNL     1       4.107   3.635  18.621  0.00  0.00    +0.000 A 
ATOM     17  N   UNL     1       3.799   3.029  17.491  0.00  0.00    +0.000 NA
ATOM     18  N   UNL     1       4.129   3.900  16.474  0.00  0.00    +0.000 NA
ATOM     19  C   UNL     1       4.600   4.988  17.054  0.00  0.00    +0.000 A 
ATOM     20  O   UNL     1       4.569   4.908  18.423  0.00  0.00    +0.000 OA
BRANCH  19  21
ATOM     21  C   UNL     1       5.171   6.221  16.433  0.00  0.00    +0.000 C 
BRANCH  21  22
ATOM     22  N   UNL     1       6.640   6.373  16.393  0.00  0.00    +0.000 NA
ATOM     23  C   UNL     1       7.391   5.128  16.584  0.00  0.00    +0.000 C 
ATOM     24  C   UNL     1       7.719   5.070  18.064  0.00  0.00    +0.000 C 
ATOM     25  C   UNL     1       7.835   6.527  18.481  0.00  0.00    +0.000 C 
ATOM     26  C   UNL     1       7.178   7.331  17.364  0.00  0.00    +0.000 C 
ENDBRANCH  21  22
ENDBRANCH  19  21
ENDBRANCH  15  16
ENDBRANCH   1  15
TORSDOF 7
ENDMDL
MODEL 9
REMARK VINA RESULT:      -6.8      4.864      6.283
REMARK  Name = 
REMARK  9 active torsions:
REMARK  status: ('A' for Active; 'I' for Inactive)
REMARK    1  A    between atoms: C_1  and  C_2
REMARK    2  A    between atoms: C_2  and  C_3
REMARK    3  A    between atoms: C_6  and  N_7
REMARK    4  A    between atoms: C_8  and  C_10
REMARK    5  A    between atoms: C_10  and  C_11
REMARK    6  A    between atoms: C_10  and  S_12
REMARK    7  A    between atoms: S_12  and  C_13
REMARK    8  A    between atoms: C_16  and  C_17
REMARK    9  A    between atoms: C_17  and  N_18
REMARK                            x       y       z     vdW  Elec       q    Type
REMARK                         _______ _______ _______ _____ _____    ______ ____
ROOT
ATOM      1  C   UNL     1       1.228   4.798  19.661  0.00  0.00    +0.000 C 
ATOM      2  C   UNL     1       1.044   3.464  20.392  0.00  0.00    +0.000 C 
ENDROOT
BRANCH   1   4
ATOM      3  N   UNL     1       3.329   4.907  18.395  0.00  0.00    +0.000 N 
ATOM      4  C   UNL     1       1.989   4.550  18.354  0.00  0.00    +0.000 C 
ATOM      5  O   UNL     1       1.412   4.050  17.385  0.00  0.00    +0.000 OA
ATOM      6  H   UNL     1       3.717   5.179  19.295  0.00  0.00    +0.000 HD
BRANCH   3  10
ATOM      7  C   UNL     1       6.004   4.821  15.114  0.00  0.00    +0.000 A 
ATOM      8  C   UNL     1       5.650   3.631  15.750  0.00  0.00    +0.000 A 
ATOM      9  C   UNL     1       4.780   3.642  16.840  0.00  0.00    +0.000 A 
ATOM     10  C   UNL     1       4.249   4.839  17.323  0.00  0.00    +0.000 A 
ATOM     11  C   UNL     1       4.631   6.036  16.709  0.00  0.00    +0.000 A 
ATOM     12  C   UNL     1       5.498   6.029  15.608  0.00  0.00    +0.000 A 
BRANCH   7  14
ATOM     13  C   UNL     1       6.277   3.756  12.882  0.00  0.00    +0.000 C 
ATOM     14  C   UNL     1       6.840   4.778  13.861  0.00  0.00    +0.000 C 
ENDBRANCH   7  14
ENDBRANCH   3  10
ENDBRANCH   1   4
BRANCH   1  15
ATOM     15  S   UNL     1       2.203   5.916  20.738  0.00  0.00    +0.000 S 
BRANCH  15  16
ATOM     16  C   UNL     1       1.803   7.458  20.051  0.00  0.00    +0.000 A 
ATOM     17  N   UNL     1       2.219   7.880  18.873  0.00  0.00    +0.000 NA
ATOM     18  N   UNL     1       1.821   9.196  18.763  0.00  0.00    +0.000 NA
ATOM     19  C   UNL     1       1.172   9.482  19.876  0.00  0.00    +0.000 A 
ATOM     20  O   UNL     1       1.079   8.407  20.720  0.00  0.00    +0.000 OA
BRANCH  19  21
ATOM     21  C   UNL     1       0.586  10.783  20.323  0.00  0.00    +0.000 C 
BRANCH  21  22
ATOM     22  N   UNL     1      -0.752  10.773  20.948  0.00  0.00    +0.000 NA
ATOM     23  C   UNL     1      -1.626  11.879  20.546  0.00  0.00    +0.000 C 
ATOM     24  C   UNL     1      -1.448  12.947  21.608  0.00  0.00    +0.000 C 
ATOM     25  C   UNL     1      -1.131  12.171  22.875  0.00  0.00    +0.000 C 
ATOM     26  C   UNL     1      -0.738  10.771  22.414  0.00  0.00    +0.000 C 
ENDBRANCH  21  22
ENDBRANCH  19  21
ENDBRANCH  15  16
ENDBRANCH   1  15
TORSDOF 7
ENDMDL
