MODEL 1
REMARK VINA RESULT:      -9.1      0.000      0.000
REMARK  Name = 
REMARK  9 active torsions:
REMARK  status: ('A' for Active; 'I' for Inactive)
REMARK    1  A    between atoms: C_1  and  O_2
REMARK    2  A    between atoms: O_2  and  C_3
REMARK    3  A    between atoms: C_7  and  N_8
REMARK    4  A    between atoms: C_9  and  C_11
REMARK    5  A    between atoms: N_13  and  N_14
REMARK    6  A    between atoms: C_15  and  C_16
REMARK    7  A    between atoms: C_18  and  C_19
REMARK    8  A    between atoms: N_20  and  C_21
REMARK    9  A    between atoms: C_29  and  C_30
REMARK                            x       y       z     vdW  Elec       q    Type
REMARK                         _______ _______ _______ _____ _____    ______ ____
ROOT
ATOM      1  N   UNL     1       8.297   8.790  17.283  0.00  0.00    +0.000 NA
ATOM      2  C   UNL     1       8.191   9.535  18.338  0.00  0.00    +0.000 C 
ENDROOT
BRANCH   2   3
ATOM      3  C   UNL     1       9.091  10.666  18.487  0.00  0.00    +0.000 A 
ATOM      4  C   UNL     1      10.342  10.651  19.134  0.00  0.00    +0.000 A 
ATOM      5  C   UNL     1      10.896  11.910  19.063  0.00  0.00    +0.000 A 
ATOM      6  C   UNL     1      12.171  12.319  19.722  0.00  0.00    +0.000 C 
ATOM      7  N   UNL     1      10.011  12.745  18.373  0.00  0.00    +0.000 N 
ATOM      8  C   UNL     1       8.901  11.961  18.005  0.00  0.00    +0.000 A 
ATOM      9  C   UNL     1       7.754  12.422  17.158  0.00  0.00    +0.000 C 
BRANCH   7  10
ATOM     10  C   UNL     1      10.211  14.147  18.120  0.00  0.00    +0.000 A 
ATOM     11  C   UNL     1      11.086  14.573  17.110  0.00  0.00    +0.000 A 
ATOM     12  C   UNL     1      11.331  15.934  16.893  0.00  0.00    +0.000 A 
ATOM     13  C   UNL     1      10.666  16.895  17.650  0.00  0.00    +0.000 A 
ATOM     14 CL   UNL     1      11.000  18.556  17.316  0.00  0.00    +0.000 Cl
ATOM     15  C   UNL     1       9.764  16.488  18.638  0.00  0.00    +0.000 A 
ATOM     16 CL   UNL     1       8.867  17.621  19.588  0.00  0.00    +0.000 Cl
ATOM     17  C   UNL     1       9.557  15.121  18.886  0.00  0.00    +0.000 A 
ENDBRANCH   7  10
ENDBRANCH   2   3
BRANCH   1  20
ATOM     18  C   UNL     1       7.452   6.690  18.090  0.00  0.00    +0.000 C 
ATOM     19  O   UNL     1       8.203   6.493  19.034  0.00  0.00    +0.000 OA
ATOM     20  N   UNL     1       7.416   7.754  17.203  0.00  0.00    +0.000 N 
ATOM     21  H   UNL     1       6.705   7.724  16.472  0.00  0.00    +0.000 HD
BRANCH  18  23
ATOM     22  N   UNL     1       5.205   5.800  18.512  0.00  0.00    +0.000 N 
ATOM     23  C   UNL     1       6.357   5.665  17.756  0.00  0.00    +0.000 C 
ATOM     24  O   UNL     1       6.608   4.849  16.879  0.00  0.00    +0.000 OA
ATOM     25  H   UNL     1       5.224   6.555  19.192  0.00  0.00    +0.000 HD
BRANCH  22  30
ATOM     26  C   UNL     1       2.069   4.104  19.551  0.00  0.00    +0.000 A 
ATOM     27  C   UNL     1       1.745   3.391  18.394  0.00  0.00    +0.000 A 
ATOM     28  C   UNL     1       2.556   3.477  17.268  0.00  0.00    +0.000 A 
ATOM     29  C   UNL     1       3.700   4.273  17.291  0.00  0.00    +0.000 A 
ATOM     30  C   UNL     1       4.048   4.993  18.437  0.00  0.00    +0.000 A 
ATOM     31  C   UNL     1       3.219   4.908  19.569  0.00  0.00    +0.000 A 
BRANCH  26  33
ATOM     32  C   UNL     1       1.508   2.924  21.549  0.00  0.00    +0.000 C 
ATOM     33  O   UNL     1       1.194   3.921  20.587  0.00  0.00    +0.000 OA
ENDBRANCH  26  33
ENDBRANCH  22  30
ENDBRANCH  18  23
ENDBRANCH   1  20
TORSDOF 6
ENDMDL
MODEL 2
REMARK VINA RESULT:      -8.4      1.624      2.012
REMARK  Name = 
REMARK  9 active torsions:
REMARK  status: ('A' for Active; 'I' for Inactive)
REMARK    1  A    between atoms: C_1  and  O_2
REMARK    2  A    between atoms: O_2  and  C_3
REMARK    3  A    between atoms: C_7  and  N_8
REMARK    4  A    between atoms: C_9  and  C_11
REMARK    5  A    between atoms: N_13  and  N_14
REMARK    6  A    between atoms: C_15  and  C_16
REMARK    7  A    between atoms: C_18  and  C_19
REMARK    8  A    between atoms: N_20  and  C_21
REMARK    9  A    between atoms: C_29  and  C_30
REMARK                            x       y       z     vdW  Elec       q    Type
REMARK                         _______ _______ _______ _____ _____    ______ ____
ROOT
ATOM      1  N   UNL     1       8.453   8.911  17.998  0.00  0.00    +0.000 NA
ATOM      2  C   UNL     1       8.879   9.615  18.999  0.00  0.00    +0.000 C 
ENDROOT
BRANCH   2   3
ATOM      3  C   UNL     1       9.477  10.913  18.737  0.00  0.00    +0.000 A 
ATOM      4  C   UNL     1      10.213  11.271  17.591  0.00  0.00    +0.000 A 
ATOM      5  C   UNL     1      10.608  12.585  17.706  0.00  0.00    +0.000 A 
ATOM      6  C   UNL     1      11.493  13.297  16.739  0.00  0.00    +0.000 C 
ATOM      7  N   UNL     1      10.133  13.084  18.923  0.00  0.00    +0.000 N 
ATOM      8  C   UNL     1       9.417  12.045  19.549  0.00  0.00    +0.000 A 
ATOM      9  C   UNL     1       8.647  12.167  20.828  0.00  0.00    +0.000 C 
BRANCH   7  10
ATOM     10  C   UNL     1      10.364  14.411  19.429  0.00  0.00    +0.000 A 
ATOM     11  C   UNL     1      11.333  14.639  20.417  0.00  0.00    +0.000 A 
ATOM     12  C   UNL     1      11.528  15.917  20.956  0.00  0.00    +0.000 A 
ATOM     13  C   UNL     1      10.790  16.998  20.481  0.00  0.00    +0.000 A 
ATOM     14 CL   UNL     1      11.094  18.549  21.177  0.00  0.00    +0.000 Cl
ATOM     15  C   UNL     1       9.844  16.793  19.473  0.00  0.00    +0.000 A 
ATOM     16 CL   UNL     1       8.921  18.091  18.800  0.00  0.00    +0.000 Cl
ATOM     17  C   UNL     1       9.617  15.503  18.968  0.00  0.00    +0.000 A 
ENDBRANCH   7  10
ENDBRANCH   2   3
BRANCH   1  20
ATOM     18  C   UNL     1       6.911   7.128  17.537  0.00  0.00    +0.000 C 
ATOM     19  O   UNL     1       6.401   7.532  16.501  0.00  0.00    +0.000 OA
ATOM     20  N   UNL     1       7.896   7.710  18.317  0.00  0.00    +0.000 N 
ATOM     21  H   UNL     1       8.180   7.205  19.158  0.00  0.00    +0.000 HD
BRANCH  18  23
ATOM     22  N   UNL     1       5.150   5.446  17.841  0.00  0.00    +0.000 N 
ATOM     23  C   UNL     1       6.457   5.789  18.141  0.00  0.00    +0.000 C 
ATOM     24  O   UNL     1       7.277   5.177  18.814  0.00  0.00    +0.000 OA
ATOM     25  H   UNL     1       4.652   6.116  17.262  0.00  0.00    +0.000 HD
BRANCH  22  30
ATOM     26  C   UNL     1       3.364   3.088  20.086  0.00  0.00    +0.000 A 
ATOM     27  C   UNL     1       3.118   2.018  19.222  0.00  0.00    +0.000 A 
ATOM     28  C   UNL     1       3.532   2.078  17.896  0.00  0.00    +0.000 A 
ATOM     29  C   UNL     1       4.201   3.206  17.425  0.00  0.00    +0.000 A 
ATOM     30  C   UNL     1       4.463   4.289  18.270  0.00  0.00    +0.000 A 
ATOM     31  C   UNL     1       4.033   4.224  19.607  0.00  0.00    +0.000 A 
BRANCH  26  33
ATOM     32  C   UNL     1       1.520   2.688  21.548  0.00  0.00    +0.000 C 
ATOM     33  O   UNL     1       2.913   2.893  21.364  0.00  0.00    +0.000 OA
ENDBRANCH  26  33
ENDBRANCH  22  30
ENDBRANCH  18  23
ENDBRANCH   1  20
TORSDOF 6
ENDMDL
MODEL 3
REMARK VINA RESULT:      -8.0      7.757     10.887
REMARK  Name = 
REMARK  9 active torsions:
REMARK  status: ('A' for Active; 'I' for Inactive)
REMARK    1  A    between atoms: C_1  and  O_2
REMARK    2  A    between atoms: O_2  and  C_3
REMARK    3  A    between atoms: C_7  and  N_8
REMARK    4  A    between atoms: C_9  and  C_11
REMARK    5  A    between atoms: N_13  and  N_14
REMARK    6  A    between atoms: C_15  and  C_16
REMARK    7  A    between atoms: C_18  and  C_19
REMARK    8  A    between atoms: N_20  and  C_21
REMARK    9  A    between atoms: C_29  and  C_30
REMARK                            x       y       z     vdW  Elec       q    Type
REMARK                         _______ _______ _______ _____ _____    ______ ____
ROOT
ATOM      1  N   UNL     1       1.734   8.012  21.073  0.00  0.00    +0.000 NA
ATOM      2  C   UNL     1       1.400   6.823  20.681  0.00  0.00    +0.000 C 
ENDROOT
BRANCH   2   3
ATOM      3  C   UNL     1       2.383   6.018  19.974  0.00  0.00    +0.000 A 
ATOM      4  C   UNL     1       2.790   4.715  20.318  0.00  0.00    +0.000 A 
ATOM      5  C   UNL     1       3.731   4.287  19.408  0.00  0.00    +0.000 A 
ATOM      6  C   UNL     1       4.475   2.996  19.494  0.00  0.00    +0.000 C 
ATOM      7  N   UNL     1       3.939   5.306  18.474  0.00  0.00    +0.000 N 
ATOM      8  C   UNL     1       3.086   6.372  18.823  0.00  0.00    +0.000 A 
ATOM      9  C   UNL     1       2.902   7.632  18.035  0.00  0.00    +0.000 C 
BRANCH   7  10
ATOM     10  C   UNL     1       4.873   5.260  17.380  0.00  0.00    +0.000 A 
ATOM     11  C   UNL     1       6.147   5.834  17.505  0.00  0.00    +0.000 A 
ATOM     12  C   UNL     1       7.043   5.844  16.429  0.00  0.00    +0.000 A 
ATOM     13  C   UNL     1       6.699   5.235  15.225  0.00  0.00    +0.000 A 
ATOM     14 CL   UNL     1       7.858   5.268  13.946  0.00  0.00    +0.000 Cl
ATOM     15  C   UNL     1       5.446   4.629  15.096  0.00  0.00    +0.000 A 
ATOM     16 CL   UNL     1       4.963   3.815  13.649  0.00  0.00    +0.000 Cl
ATOM     17  C   UNL     1       4.531   4.663  16.160  0.00  0.00    +0.000 A 
ENDBRANCH   7  10
ENDBRANCH   2   3
BRANCH   1  20
ATOM     18  C   UNL     1       0.728  10.090  21.738  0.00  0.00    +0.000 C 
ATOM     19  O   UNL     1       1.474  10.888  21.188  0.00  0.00    +0.000 OA
ATOM     20  N   UNL     1       0.768   8.706  21.737  0.00  0.00    +0.000 N 
ATOM     21  H   UNL     1       0.046   8.221  22.271  0.00  0.00    +0.000 HD
BRANCH  18  23
ATOM     22  N   UNL     1      -0.686  11.960  22.459  0.00  0.00    +0.000 N 
ATOM     23  C   UNL     1      -0.454  10.601  22.576  0.00  0.00    +0.000 C 
ATOM     24  O   UNL     1      -1.056   9.775  23.250  0.00  0.00    +0.000 OA
ATOM     25  H   UNL     1      -0.050  12.453  21.838  0.00  0.00    +0.000 HD
BRANCH  22  30
ATOM     26  C   UNL     1      -3.987  12.827  23.922  0.00  0.00    +0.000 A 
ATOM     27  C   UNL     1      -3.748  14.120  24.395  0.00  0.00    +0.000 A 
ATOM     28  C   UNL     1      -2.496  14.703  24.239  0.00  0.00    +0.000 A 
ATOM     29  C   UNL     1      -1.473  13.999  23.606  0.00  0.00    +0.000 A 
ATOM     30  C   UNL     1      -1.687  12.705  23.121  0.00  0.00    +0.000 A 
ATOM     31  C   UNL     1      -2.954  12.120  23.289  0.00  0.00    +0.000 A 
BRANCH  26  33
ATOM     32  C   UNL     1      -6.298  12.937  23.331  0.00  0.00    +0.000 C 
ATOM     33  O   UNL     1      -5.264  12.380  24.131  0.00  0.00    +0.000 OA
ENDBRANCH  26  33
ENDBRANCH  22  30
ENDBRANCH  18  23
ENDBRANCH   1  20
TORSDOF 6
ENDMDL
MODEL 4
REMARK VINA RESULT:      -7.9      6.948      8.898
REMARK  Name = 
REMARK  9 active torsions:
REMARK  status: ('A' for Active; 'I' for Inactive)
REMARK    1  A    between atoms: C_1  and  O_2
REMARK    2  A    between atoms: O_2  and  C_3
REMARK    3  A    between atoms: C_7  and  N_8
REMARK    4  A    between atoms: C_9  and  C_11
REMARK    5  A    between atoms: N_13  and  N_14
REMARK    6  A    between atoms: C_15  and  C_16
REMARK    7  A    between atoms: C_18  and  C_19
REMARK    8  A    between atoms: N_20  and  C_21
REMARK    9  A    between atoms: C_29  and  C_30
REMARK                            x       y       z     vdW  Elec       q    Type
REMARK                         _______ _______ _______ _____ _____    ______ ____
ROOT
ATOM      1  N   UNL     1       3.362   6.683  18.624  0.00  0.00    +0.000 NA
ATOM      2  C   UNL     1       2.852   7.817  18.261  0.00  0.00    +0.000 C 
ENDROOT
BRANCH   2   3
ATOM      3  C   UNL     1       1.916   8.480  19.155  0.00  0.00    +0.000 A 
ATOM      4  C   UNL     1       1.401   7.953  20.354  0.00  0.00    +0.000 A 
ATOM      5  C   UNL     1       0.551   8.879  20.920  0.00  0.00    +0.000 A 
ATOM      6  C   UNL     1      -0.267   8.647  22.145  0.00  0.00    +0.000 C 
ATOM      7  N   UNL     1       0.512  10.005  20.093  0.00  0.00    +0.000 N 
ATOM      8  C   UNL     1       1.374   9.757  19.008  0.00  0.00    +0.000 A 
ATOM      9  C   UNL     1       1.720  10.737  17.929  0.00  0.00    +0.000 C 
BRANCH   7  10
ATOM     10  C   UNL     1      -0.288  11.180  20.319  0.00  0.00    +0.000 A 
ATOM     11  C   UNL     1      -1.519  11.342  19.666  0.00  0.00    +0.000 A 
ATOM     12  C   UNL     1      -2.279  12.505  19.836  0.00  0.00    +0.000 A 
ATOM     13  C   UNL     1      -1.843  13.507  20.701  0.00  0.00    +0.000 A 
ATOM     14 CL   UNL     1      -2.838  14.907  20.877  0.00  0.00    +0.000 Cl
ATOM     15  C   UNL     1      -0.635  13.346  21.384  0.00  0.00    +0.000 A 
ATOM     16 CL   UNL     1      -0.049  14.523  22.507  0.00  0.00    +0.000 Cl
ATOM     17  C   UNL     1       0.148  12.199  21.175  0.00  0.00    +0.000 A 
ENDBRANCH   7  10
ENDBRANCH   2   3
BRANCH   1  20
ATOM     18  C   UNL     1       5.285   5.319  18.162  0.00  0.00    +0.000 C 
ATOM     19  O   UNL     1       5.596   4.976  19.294  0.00  0.00    +0.000 OA
ATOM     20  N   UNL     1       4.238   6.123  17.743  0.00  0.00    +0.000 N 
ATOM     21  H   UNL     1       4.157   6.294  16.741  0.00  0.00    +0.000 HD
BRANCH  18  23
ATOM     22  N   UNL     1       5.507   5.032  15.735  0.00  0.00    +0.000 N 
ATOM     23  C   UNL     1       6.117   4.840  16.962  0.00  0.00    +0.000 C 
ATOM     24  O   UNL     1       7.210   4.343  17.206  0.00  0.00    +0.000 OA
ATOM     25  H   UNL     1       4.588   5.465  15.776  0.00  0.00    +0.000 HD
BRANCH  22  30
ATOM     26  C   UNL     1       5.750   3.414  12.402  0.00  0.00    +0.000 A 
ATOM     27  C   UNL     1       6.987   3.888  11.955  0.00  0.00    +0.000 A 
ATOM     28  C   UNL     1       7.736   4.749  12.749  0.00  0.00    +0.000 A 
ATOM     29  C   UNL     1       7.257   5.139  13.998  0.00  0.00    +0.000 A 
ATOM     30  C   UNL     1       6.025   4.676  14.470  0.00  0.00    +0.000 A 
ATOM     31  C   UNL     1       5.270   3.813  13.658  0.00  0.00    +0.000 A 
BRANCH  26  33
ATOM     32  C   UNL     1       3.902   3.000  10.948  0.00  0.00    +0.000 C 
ATOM     33  O   UNL     1       5.125   2.567  11.527  0.00  0.00    +0.000 OA
ENDBRANCH  26  33
ENDBRANCH  22  30
ENDBRANCH  18  23
ENDBRANCH   1  20
TORSDOF 6
ENDMDL
MODEL 5
REMARK VINA RESULT:      -7.9      8.605     11.685
REMARK  Name = 
REMARK  9 active torsions:
REMARK  status: ('A' for Active; 'I' for Inactive)
REMARK    1  A    between atoms: C_1  and  O_2
REMARK    2  A    between atoms: O_2  and  C_3
REMARK    3  A    between atoms: C_7  and  N_8
REMARK    4  A    between atoms: C_9  and  C_11
REMARK    5  A    between atoms: N_13  and  N_14
REMARK    6  A    between atoms: C_15  and  C_16
REMARK    7  A    between atoms: C_18  and  C_19
REMARK    8  A    between atoms: N_20  and  C_21
REMARK    9  A    between atoms: C_29  and  C_30
REMARK                            x       y       z     vdW  Elec       q    Type
REMARK                         _______ _______ _______ _____ _____    ______ ____
ROOT
ATOM      1  N   UNL     1      -0.362   9.112  20.974  0.00  0.00    +0.000 NA
ATOM      2  C   UNL     1       0.907   9.127  20.713  0.00  0.00    +0.000 C 
ENDROOT
BRANCH   2   3
ATOM      3  C   UNL     1       1.552   7.888  20.312  0.00  0.00    +0.000 A 
ATOM      4  C   UNL     1       1.515   6.668  21.015  0.00  0.00    +0.000 A 
ATOM      5  C   UNL     1       2.239   5.728  20.315  0.00  0.00    +0.000 A 
ATOM      6  C   UNL     1       2.518   4.341  20.790  0.00  0.00    +0.000 C 
ATOM      7  N   UNL     1       2.748   6.330  19.161  0.00  0.00    +0.000 N 
ATOM      8  C   UNL     1       2.303   7.667  19.158  0.00  0.00    +0.000 A 
ATOM      9  C   UNL     1       2.525   8.654  18.054  0.00  0.00    +0.000 C 
BRANCH   7  10
ATOM     10  C   UNL     1       3.587   5.688  18.184  0.00  0.00    +0.000 A 
ATOM     11  C   UNL     1       3.116   4.589  17.451  0.00  0.00    +0.000 A 
ATOM     12  C   UNL     1       3.943   3.923  16.538  0.00  0.00    +0.000 A 
ATOM     13  C   UNL     1       5.240   4.375  16.307  0.00  0.00    +0.000 A 
ATOM     14 CL   UNL     1       6.198   3.518  15.155  0.00  0.00    +0.000 Cl
ATOM     15  C   UNL     1       5.712   5.490  17.006  0.00  0.00    +0.000 A 
ATOM     16 CL   UNL     1       7.293   6.138  16.742  0.00  0.00    +0.000 Cl
ATOM     17  C   UNL     1       4.897   6.127  17.955  0.00  0.00    +0.000 A 
ENDBRANCH   7  10
ENDBRANCH   2   3
BRANCH   1  20
ATOM     18  C   UNL     1      -0.796  10.804  22.623  0.00  0.00    +0.000 C 
ATOM     19  O   UNL     1      -0.241  10.317  23.598  0.00  0.00    +0.000 OA
ATOM     20  N   UNL     1      -0.902  10.310  21.334  0.00  0.00    +0.000 N 
ATOM     21  H   UNL     1      -1.420  10.877  20.662  0.00  0.00    +0.000 HD
BRANCH  18  23
ATOM     22  N   UNL     1      -2.731  12.221  22.103  0.00  0.00    +0.000 N 
ATOM     23  C   UNL     1      -1.508  12.161  22.748  0.00  0.00    +0.000 C 
ATOM     24  O   UNL     1      -0.933  13.034  23.386  0.00  0.00    +0.000 OA
ATOM     25  H   UNL     1      -3.008  11.365  21.628  0.00  0.00    +0.000 HD
BRANCH  22  30
ATOM     26  C   UNL     1      -5.685  14.382  22.727  0.00  0.00    +0.000 A 
ATOM     27  C   UNL     1      -5.387  15.492  21.932  0.00  0.00    +0.000 A 
ATOM     28  C   UNL     1      -4.207  15.532  21.197  0.00  0.00    +0.000 A 
ATOM     29  C   UNL     1      -3.318  14.460  21.248  0.00  0.00    +0.000 A 
ATOM     30  C   UNL     1      -3.594  13.336  22.033  0.00  0.00    +0.000 A 
ATOM     31  C   UNL     1      -4.785  13.307  22.779  0.00  0.00    +0.000 A 
BRANCH  26  33
ATOM     32  C   UNL     1      -7.302  13.343  24.144  0.00  0.00    +0.000 C 
ATOM     33  O   UNL     1      -6.881  14.470  23.387  0.00  0.00    +0.000 OA
ENDBRANCH  26  33
ENDBRANCH  22  30
ENDBRANCH  18  23
ENDBRANCH   1  20
TORSDOF 6
ENDMDL
MODEL 6
REMARK VINA RESULT:      -7.7      8.039     11.224
REMARK  Name = 
REMARK  9 active torsions:
REMARK  status: ('A' for Active; 'I' for Inactive)
REMARK    1  A    between atoms: C_1  and  O_2
REMARK    2  A    between atoms: O_2  and  C_3
REMARK    3  A    between atoms: C_7  and  N_8
REMARK    4  A    between atoms: C_9  and  C_11
REMARK    5  A    between atoms: N_13  and  N_14
REMARK    6  A    between atoms: C_15  and  C_16
REMARK    7  A    between atoms: C_18  and  C_19
REMARK    8  A    between atoms: N_20  and  C_21
REMARK    9  A    between atoms: C_29  and  C_30
REMARK                            x       y       z     vdW  Elec       q    Type
REMARK                         _______ _______ _______ _____ _____    ______ ____
ROOT
ATOM      1  N   UNL     1       1.084   8.449  21.170  0.00  0.00    +0.000 NA
ATOM      2  C   UNL     1       0.805   7.188  21.058  0.00  0.00    +0.000 C 
ENDROOT
BRANCH   2   3
ATOM      3  C   UNL     1       1.765   6.316  20.403  0.00  0.00    +0.000 A 
ATOM      4  C   UNL     1       2.092   5.002  20.792  0.00  0.00    +0.000 A 
ATOM      5  C   UNL     1       3.037   4.502  19.923  0.00  0.00    +0.000 A 
ATOM      6  C   UNL     1       3.709   3.178  20.065  0.00  0.00    +0.000 C 
ATOM      7  N   UNL     1       3.327   5.485  18.971  0.00  0.00    +0.000 N 
ATOM      8  C   UNL     1       2.521   6.602  19.266  0.00  0.00    +0.000 A 
ATOM      9  C   UNL     1       2.427   7.849  18.442  0.00  0.00    +0.000 C 
BRANCH   7  10
ATOM     10  C   UNL     1       4.290   5.361  17.909  0.00  0.00    +0.000 A 
ATOM     11  C   UNL     1       4.098   4.434  16.875  0.00  0.00    +0.000 A 
ATOM     12  C   UNL     1       5.056   4.267  15.868  0.00  0.00    +0.000 A 
ATOM     13  C   UNL     1       6.202   5.059  15.851  0.00  0.00    +0.000 A 
ATOM     14 CL   UNL     1       7.333   4.813  14.570  0.00  0.00    +0.000 Cl
ATOM     15  C   UNL     1       6.392   6.012  16.857  0.00  0.00    +0.000 A 
ATOM     16 CL   UNL     1       7.764   7.062  16.880  0.00  0.00    +0.000 Cl
ATOM     17  C   UNL     1       5.452   6.144  17.892  0.00  0.00    +0.000 A 
ENDBRANCH   7  10
ENDBRANCH   2   3
BRANCH   1  20
ATOM     18  C   UNL     1       0.189  10.589  21.793  0.00  0.00    +0.000 C 
ATOM     19  O   UNL     1       0.997  11.336  21.258  0.00  0.00    +0.000 OA
ATOM     20  N   UNL     1       0.144   9.205  21.803  0.00  0.00    +0.000 N 
ATOM     21  H   UNL     1      -0.620   8.770  22.320  0.00  0.00    +0.000 HD
BRANCH  18  23
ATOM     22  N   UNL     1      -1.676  12.177  21.934  0.00  0.00    +0.000 N 
ATOM     23  C   UNL     1      -0.982  11.179  22.595  0.00  0.00    +0.000 C 
ATOM     24  O   UNL     1      -1.177  10.719  23.713  0.00  0.00    +0.000 OA
ATOM     25  H   UNL     1      -1.329  12.398  21.005  0.00  0.00    +0.000 HD
BRANCH  22  30
ATOM     26  C   UNL     1      -3.629  14.557  24.010  0.00  0.00    +0.000 A 
ATOM     27  C   UNL     1      -4.917  14.376  23.498  0.00  0.00    +0.000 A 
ATOM     28  C   UNL     1      -5.140  13.477  22.462  0.00  0.00    +0.000 A 
ATOM     29  C   UNL     1      -4.077  12.747  21.932  0.00  0.00    +0.000 A 
ATOM     30  C   UNL     1      -2.780  12.906  22.429  0.00  0.00    +0.000 A 
ATOM     31  C   UNL     1      -2.562  13.823  23.471  0.00  0.00    +0.000 A 
BRANCH  26  33
ATOM     32  C   UNL     1      -4.277  16.677  24.896  0.00  0.00    +0.000 C 
ATOM     33  O   UNL     1      -3.554  15.462  25.034  0.00  0.00    +0.000 OA
ENDBRANCH  26  33
ENDBRANCH  22  30
ENDBRANCH  18  23
ENDBRANCH   1  20
TORSDOF 6
ENDMDL
MODEL 7
REMARK VINA RESULT:      -7.6      7.500      9.954
REMARK  Name = 
REMARK  9 active torsions:
REMARK  status: ('A' for Active; 'I' for Inactive)
REMARK    1  A    between atoms: C_1  and  O_2
REMARK    2  A    between atoms: O_2  and  C_3
REMARK    3  A    between atoms: C_7  and  N_8
REMARK    4  A    between atoms: C_9  and  C_11
REMARK    5  A    between atoms: N_13  and  N_14
REMARK    6  A    between atoms: C_15  and  C_16
REMARK    7  A    between atoms: C_18  and  C_19
REMARK    8  A    between atoms: N_20  and  C_21
REMARK    9  A    between atoms: C_29  and  C_30
REMARK                            x       y       z     vdW  Elec       q    Type
REMARK                         _______ _______ _______ _____ _____    ______ ____
ROOT
ATOM      1  N   UNL     1       1.391   7.992  20.780  0.00  0.00    +0.000 NA
ATOM      2  C   UNL     1       1.043   9.046  20.111  0.00  0.00    +0.000 C 
ENDROOT
BRANCH   2   3
ATOM      3  C   UNL     1       0.145  10.004  20.734  0.00  0.00    +0.000 A 
ATOM      4  C   UNL     1      -0.210  10.043  22.096  0.00  0.00    +0.000 A 
ATOM      5  C   UNL     1      -1.075  11.095  22.302  0.00  0.00    +0.000 A 
ATOM      6  C   UNL     1      -1.753  11.401  23.595  0.00  0.00    +0.000 C 
ATOM      7  N   UNL     1      -1.285  11.741  21.079  0.00  0.00    +0.000 N 
ATOM      8  C   UNL     1      -0.511  11.067  20.114  0.00  0.00    +0.000 A 
ATOM      9  C   UNL     1      -0.350  11.483  18.684  0.00  0.00    +0.000 C 
BRANCH   7  10
ATOM     10  C   UNL     1      -2.153  12.869  20.868  0.00  0.00    +0.000 A 
ATOM     11  C   UNL     1      -1.668  14.178  21.004  0.00  0.00    +0.000 A 
ATOM     12  C   UNL     1      -2.517  15.281  20.855  0.00  0.00    +0.000 A 
ATOM     13  C   UNL     1      -3.856  15.095  20.520  0.00  0.00    +0.000 A 
ATOM     14 CL   UNL     1      -4.843  16.500  20.335  0.00  0.00    +0.000 Cl
ATOM     15  C   UNL     1      -4.347  13.797  20.348  0.00  0.00    +0.000 A 
ATOM     16 CL   UNL     1      -5.984  13.487  19.889  0.00  0.00    +0.000 Cl
ATOM     17  C   UNL     1      -3.504  12.691  20.545  0.00  0.00    +0.000 A 
ENDBRANCH   7  10
ENDBRANCH   2   3
BRANCH   1  20
ATOM     18  C   UNL     1       2.082   5.768  20.191  0.00  0.00    +0.000 C 
ATOM     19  O   UNL     1       1.223   5.107  20.759  0.00  0.00    +0.000 OA
ATOM     20  N   UNL     1       2.242   7.143  20.140  0.00  0.00    +0.000 N 
ATOM     21  H   UNL     1       3.038   7.497  19.609  0.00  0.00    +0.000 HD
BRANCH  18  23
ATOM     22  N   UNL     1       4.156   5.911  18.887  0.00  0.00    +0.000 N 
ATOM     23  C   UNL     1       3.189   5.060  19.394  0.00  0.00    +0.000 C 
ATOM     24  O   UNL     1       3.104   3.843  19.285  0.00  0.00    +0.000 OA
ATOM     25  H   UNL     1       4.017   6.894  19.103  0.00  0.00    +0.000 HD
BRANCH  22  30
ATOM     26  C   UNL     1       6.253   5.279  15.888  0.00  0.00    +0.000 A 
ATOM     27  C   UNL     1       7.434   4.814  16.472  0.00  0.00    +0.000 A 
ATOM     28  C   UNL     1       7.543   4.718  17.854  0.00  0.00    +0.000 A 
ATOM     29  C   UNL     1       6.469   5.082  18.666  0.00  0.00    +0.000 A 
ATOM     30  C   UNL     1       5.275   5.546  18.106  0.00  0.00    +0.000 A 
ATOM     31  C   UNL     1       5.176   5.648  16.708  0.00  0.00    +0.000 A 
BRANCH  26  33
ATOM     32  C   UNL     1       6.269   4.073  13.829  0.00  0.00    +0.000 C 
ATOM     33  O   UNL     1       6.277   5.313  14.520  0.00  0.00    +0.000 OA
ENDBRANCH  26  33
ENDBRANCH  22  30
ENDBRANCH  18  23
ENDBRANCH   1  20
TORSDOF 6
ENDMDL
MODEL 8
REMARK VINA RESULT:      -7.6      8.905     11.873
REMARK  Name = 
REMARK  9 active torsions:
REMARK  status: ('A' for Active; 'I' for Inactive)
REMARK    1  A    between atoms: C_1  and  O_2
REMARK    2  A    between atoms: O_2  and  C_3
REMARK    3  A    between atoms: C_7  and  N_8
REMARK    4  A    between atoms: C_9  and  C_11
REMARK    5  A    between atoms: N_13  and  N_14
REMARK    6  A    between atoms: C_15  and  C_16
REMARK    7  A    between atoms: C_18  and  C_19
REMARK    8  A    between atoms: N_20  and  C_21
REMARK    9  A    between atoms: C_29  and  C_30
REMARK                            x       y       z     vdW  Elec       q    Type
REMARK                         _______ _______ _______ _____ _____    ______ ____
ROOT
ATOM      1  N   UNL     1       0.891   9.994  21.436  0.00  0.00    +0.000 NA
ATOM      2  C   UNL     1       0.643   9.361  20.333  0.00  0.00    +0.000 C 
ENDROOT
BRANCH   2   3
ATOM      3  C   UNL     1       1.358   8.126  20.061  0.00  0.00    +0.000 A 
ATOM      4  C   UNL     1       1.370   6.977  20.876  0.00  0.00    +0.000 A 
ATOM      5  C   UNL     1       2.155   6.015  20.280  0.00  0.00    +0.000 A 
ATOM      6  C   UNL     1       2.496   4.696  20.888  0.00  0.00    +0.000 C 
ATOM      7  N   UNL     1       2.655   6.532  19.081  0.00  0.00    +0.000 N 
ATOM      8  C   UNL     1       2.142   7.837  18.944  0.00  0.00    +0.000 A 
ATOM      9  C   UNL     1       2.334   8.726  17.754  0.00  0.00    +0.000 C 
BRANCH   7  10
ATOM     10  C   UNL     1       3.544   5.846  18.181  0.00  0.00    +0.000 A 
ATOM     11  C   UNL     1       3.119   4.702  17.491  0.00  0.00    +0.000 A 
ATOM     12  C   UNL     1       3.994   3.995  16.657  0.00  0.00    +0.000 A 
ATOM     13  C   UNL     1       5.296   4.449  16.461  0.00  0.00    +0.000 A 
ATOM     14 CL   UNL     1       6.315   3.540  15.405  0.00  0.00    +0.000 Cl
ATOM     15  C   UNL     1       5.725   5.608  17.116  0.00  0.00    +0.000 A 
ATOM     16 CL   UNL     1       7.310   6.259  16.889  0.00  0.00    +0.000 Cl
ATOM     17  C   UNL     1       4.860   6.287  17.989  0.00  0.00    +0.000 A 
ENDBRANCH   7  10
ENDBRANCH   2   3
BRANCH   1  20
ATOM     18  C   UNL     1      -0.716  11.276  22.680  0.00  0.00    +0.000 C 
ATOM     19  O   UNL     1      -1.007  10.479  23.560  0.00  0.00    +0.000 OA
ATOM     20  N   UNL     1       0.178  11.138  21.631  0.00  0.00    +0.000 N 
ATOM     21  H   UNL     1       0.272  11.931  20.995  0.00  0.00    +0.000 HD
BRANCH  18  23
ATOM     22  N   UNL     1      -2.770  12.617  22.626  0.00  0.00    +0.000 N 
ATOM     23  C   UNL     1      -1.387  12.658  22.647  0.00  0.00    +0.000 C 
ATOM     24  O   UNL     1      -0.647  13.635  22.639  0.00  0.00    +0.000 OA
ATOM     25  H   UNL     1      -3.171  11.684  22.635  0.00  0.00    +0.000 HD
BRANCH  22  30
ATOM     26  C   UNL     1      -4.635  15.633  23.729  0.00  0.00    +0.000 A 
ATOM     27  C   UNL     1      -5.385  15.925  22.587  0.00  0.00    +0.000 A 
ATOM     28  C   UNL     1      -5.270  15.134  21.450  0.00  0.00    +0.000 A 
ATOM     29  C   UNL     1      -4.405  14.040  21.447  0.00  0.00    +0.000 A 
ATOM     30  C   UNL     1      -3.646  13.724  22.578  0.00  0.00    +0.000 A 
ATOM     31  C   UNL     1      -3.763  14.534  23.720  0.00  0.00    +0.000 A 
BRANCH  26  33
ATOM     32  C   UNL     1      -3.759  17.268  25.232  0.00  0.00    +0.000 C 
ATOM     33  O   UNL     1      -4.854  16.485  24.778  0.00  0.00    +0.000 OA
ENDBRANCH  26  33
ENDBRANCH  22  30
ENDBRANCH  18  23
ENDBRANCH   1  20
TORSDOF 6
ENDMDL
MODEL 9
REMARK VINA RESULT:      -7.6      7.943     10.975
REMARK  Name = 
REMARK  9 active torsions:
REMARK  status: ('A' for Active; 'I' for Inactive)
REMARK    1  A    between atoms: C_1  and  O_2
REMARK    2  A    between atoms: O_2  and  C_3
REMARK    3  A    between atoms: C_7  and  N_8
REMARK    4  A    between atoms: C_9  and  C_11
REMARK    5  A    between atoms: N_13  and  N_14
REMARK    6  A    between atoms: C_15  and  C_16
REMARK    7  A    between atoms: C_18  and  C_19
REMARK    8  A    between atoms: N_20  and  C_21
REMARK    9  A    between atoms: C_29  and  C_30
REMARK                            x       y       z     vdW  Elec       q    Type
REMARK                         _______ _______ _______ _____ _____    ______ ____
ROOT
ATOM      1  N   UNL     1       1.554   8.311  20.918  0.00  0.00    +0.000 NA
ATOM      2  C   UNL     1       1.277   7.061  20.717  0.00  0.00    +0.000 C 
ENDROOT
BRANCH   2   3
ATOM      3  C   UNL     1       2.264   6.225  20.052  0.00  0.00    +0.000 A 
ATOM      4  C   UNL     1       2.641   4.924  20.434  0.00  0.00    +0.000 A 
ATOM      5  C   UNL     1       3.596   4.460  19.557  0.00  0.00    +0.000 A 
ATOM      6  C   UNL     1       4.317   3.160  19.690  0.00  0.00    +0.000 C 
ATOM      7  N   UNL     1       3.843   5.455  18.606  0.00  0.00    +0.000 N 
ATOM      8  C   UNL     1       3.000   6.542  18.911  0.00  0.00    +0.000 A 
ATOM      9  C   UNL     1       2.856   7.787  18.091  0.00  0.00    +0.000 C 
BRANCH   7  10
ATOM     10  C   UNL     1       4.803   5.370  17.537  0.00  0.00    +0.000 A 
ATOM     11  C   UNL     1       6.084   5.921  17.682  0.00  0.00    +0.000 A 
ATOM     12  C   UNL     1       7.006   5.892  16.629  0.00  0.00    +0.000 A 
ATOM     13  C   UNL     1       6.679   5.268  15.428  0.00  0.00    +0.000 A 
ATOM     14 CL   UNL     1       7.870   5.253  14.177  0.00  0.00    +0.000 Cl
ATOM     15  C   UNL     1       5.418   4.684  15.279  0.00  0.00    +0.000 A 
ATOM     16 CL   UNL     1       4.954   3.853  13.836  0.00  0.00    +0.000 Cl
ATOM     17  C   UNL     1       4.478   4.756  16.320  0.00  0.00    +0.000 A 
ENDBRANCH   7  10
ENDBRANCH   2   3
BRANCH   1  20
ATOM     18  C   UNL     1       0.646  10.412  21.645  0.00  0.00    +0.000 C 
ATOM     19  O   UNL     1       1.486  11.185  21.206  0.00  0.00    +0.000 OA
ATOM     20  N   UNL     1       0.589   9.032  21.554  0.00  0.00    +0.000 N 
ATOM     21  H   UNL     1      -0.204   8.570  22.000  0.00  0.00    +0.000 HD
BRANCH  18  23
ATOM     22  N   UNL     1      -1.177  12.044  21.832  0.00  0.00    +0.000 N 
ATOM     23  C   UNL     1      -0.561  10.957  22.426  0.00  0.00    +0.000 C 
ATOM     24  O   UNL     1      -0.846  10.391  23.474  0.00  0.00    +0.000 OA
ATOM     25  H   UNL     1      -0.760  12.348  20.956  0.00  0.00    +0.000 HD
BRANCH  22  30
ATOM     26  C   UNL     1      -3.143  14.486  23.821  0.00  0.00    +0.000 A 
ATOM     27  C   UNL     1      -4.444  14.206  23.394  0.00  0.00    +0.000 A 
ATOM     28  C   UNL     1      -4.672  13.219  22.442  0.00  0.00    +0.000 A 
ATOM     29  C   UNL     1      -3.601  12.499  21.913  0.00  0.00    +0.000 A 
ATOM     30  C   UNL     1      -2.291  12.758  22.327  0.00  0.00    +0.000 A 
ATOM     31  C   UNL     1      -2.068  13.763  23.284  0.00  0.00    +0.000 A 
BRANCH  26  33
ATOM     32  C   UNL     1      -2.085  15.331  25.787  0.00  0.00    +0.000 C 
ATOM     33  O   UNL     1      -3.064  15.472  24.768  0.00  0.00    +0.000 OA
ENDBRANCH  26  33
ENDBRANCH  22  30
ENDBRANCH  18  23
ENDBRANCH   1  20
TORSDOF 6
ENDMDL
