MODEL 1
REMARK VINA RESULT:      -8.0      0.000      0.000
REMARK  Name = 
REMARK  6 active torsions:
REMARK  status: ('A' for Active; 'I' for Inactive)
REMARK    1  A    between atoms: O_1  and  C_2
REMARK    2  A    between atoms: C_2  and  C_3
REMARK    3  A    between atoms: C_6  and  C_7
REMARK    4  A    between atoms: C_7  and  N_8
REMARK    5  A    between atoms: C_17  and  C_18
REMARK    6  A    between atoms: C_18  and  O_19
REMARK                            x       y       z     vdW  Elec       q    Type
REMARK                         _______ _______ _______ _____ _____    ______ ____
ROOT
ATOM      1  N   UNL     1       3.100   5.675  18.573  0.00  0.00    +0.000 N 
ATOM      2  C   UNL     1       2.373   4.547  18.916  0.00  0.00    +0.000 A 
ATOM      3  C   UNL     1       1.502   4.319  19.993  0.00  0.00    +0.000 A 
ATOM      4  C   UNL     1       0.755   3.139  19.996  0.00  0.00    +0.000 A 
ATOM      5  C   UNL     1       0.894   2.199  18.978  0.00  0.00    +0.000 A 
ATOM      6  C   UNL     1       1.874   2.353  17.988  0.00  0.00    +0.000 A 
ATOM      7  C   UNL     1       2.642   3.533  17.970  0.00  0.00    +0.000 A 
ATOM      8  C   UNL     1       3.744   4.050  17.252  0.00  0.00    +0.000 A 
ATOM      9  O   UNL     1       4.776   3.642  16.448  0.00  0.00    +0.000 OA
ATOM     10  C   UNL     1       5.523   4.789  16.267  0.00  0.00    +0.000 A 
ATOM     11  C   UNL     1       4.824   5.916  16.625  0.00  0.00    +0.000 A 
ATOM     12  C   UNL     1       3.875   5.365  17.495  0.00  0.00    +0.000 A 
ENDROOT
BRANCH   1  13
ATOM     13  C   UNL     1       3.340   6.887  19.328  0.00  0.00    +0.000 C 
BRANCH  13  17
ATOM     14  C   UNL     1       0.336   9.962  18.966  0.00  0.00    +0.000 A 
ATOM     15  C   UNL     1       0.578   9.324  20.191  0.00  0.00    +0.000 A 
ATOM     16  C   UNL     1       1.515   8.303  20.286  0.00  0.00    +0.000 A 
ATOM     17  C   UNL     1       2.239   7.896  19.163  0.00  0.00    +0.000 A 
ATOM     18  C   UNL     1       1.951   8.478  17.918  0.00  0.00    +0.000 A 
ATOM     19  C   UNL     1       1.006   9.496  17.827  0.00  0.00    +0.000 A 
BRANCH  14  20
ATOM     20  C   UNL     1      -0.648  11.098  18.912  0.00  0.00    +0.000 C 
BRANCH  20  21
ATOM     21  O   UNL     1      -1.152  11.274  17.596  0.00  0.00    +0.000 OA
ATOM     22  H   UNL     1      -0.874  12.160  17.313  0.00  0.00    +0.000 HD
ENDBRANCH  20  21
ENDBRANCH  14  20
ENDBRANCH  13  17
ENDBRANCH   1  13
BRANCH  10  23
ATOM     23  C   UNL     1       6.969   4.685  15.948  0.00  0.00    +0.000 C 
BRANCH  23  24
ATOM     24  O   UNL     1       7.509   5.989  15.821  0.00  0.00    +0.000 OA
ATOM     25  H   UNL     1       7.420   6.224  14.883  0.00  0.00    +0.000 HD
ENDBRANCH  23  24
ENDBRANCH  10  23
TORSDOF 6
ENDMDL
MODEL 2
REMARK VINA RESULT:      -7.8      0.250      1.035
REMARK  Name = 
REMARK  6 active torsions:
REMARK  status: ('A' for Active; 'I' for Inactive)
REMARK    1  A    between atoms: O_1  and  C_2
REMARK    2  A    between atoms: C_2  and  C_3
REMARK    3  A    between atoms: C_6  and  C_7
REMARK    4  A    between atoms: C_7  and  N_8
REMARK    5  A    between atoms: C_17  and  C_18
REMARK    6  A    between atoms: C_18  and  O_19
REMARK                            x       y       z     vdW  Elec       q    Type
REMARK                         _______ _______ _______ _____ _____    ______ ____
ROOT
ATOM      1  N   UNL     1       3.075   5.706  18.642  0.00  0.00    +0.000 N 
ATOM      2  C   UNL     1       2.328   4.582  18.955  0.00  0.00    +0.000 A 
ATOM      3  C   UNL     1       1.457   4.338  20.028  0.00  0.00    +0.000 A 
ATOM      4  C   UNL     1       0.688   3.172  19.999  0.00  0.00    +0.000 A 
ATOM      5  C   UNL     1       0.808   2.259  18.954  0.00  0.00    +0.000 A 
ATOM      6  C   UNL     1       1.789   2.424  17.966  0.00  0.00    +0.000 A 
ATOM      7  C   UNL     1       2.578   3.590  17.979  0.00  0.00    +0.000 A 
ATOM      8  C   UNL     1       3.687   4.108  17.273  0.00  0.00    +0.000 A 
ATOM      9  O   UNL     1       4.709   3.705  16.455  0.00  0.00    +0.000 OA
ATOM     10  C   UNL     1       5.476   4.844  16.305  0.00  0.00    +0.000 A 
ATOM     11  C   UNL     1       4.798   5.972  16.697  0.00  0.00    +0.000 A 
ATOM     12  C   UNL     1       3.842   5.413  17.553  0.00  0.00    +0.000 A 
ENDROOT
BRANCH   1  13
ATOM     13  C   UNL     1       3.338   6.891  19.431  0.00  0.00    +0.000 C 
BRANCH  13  17
ATOM     14  C   UNL     1       0.168   9.748  18.800  0.00  0.00    +0.000 A 
ATOM     15  C   UNL     1       1.002   9.345  17.747  0.00  0.00    +0.000 A 
ATOM     16  C   UNL     1       2.049   8.459  17.971  0.00  0.00    +0.000 A 
ATOM     17  C   UNL     1       2.287   7.949  19.249  0.00  0.00    +0.000 A 
ATOM     18  C   UNL     1       1.504   8.404  20.322  0.00  0.00    +0.000 A 
ATOM     19  C   UNL     1       0.462   9.297  20.093  0.00  0.00    +0.000 A 
BRANCH  14  20
ATOM     20  C   UNL     1      -0.987  10.667  18.510  0.00  0.00    +0.000 C 
BRANCH  20  21
ATOM     21  O   UNL     1      -1.342  10.621  17.135  0.00  0.00    +0.000 OA
ATOM     22  H   UNL     1      -2.187  10.146  17.087  0.00  0.00    +0.000 HD
ENDBRANCH  20  21
ENDBRANCH  14  20
ENDBRANCH  13  17
ENDBRANCH   1  13
BRANCH  10  23
ATOM     23  C   UNL     1       6.920   4.723  15.979  0.00  0.00    +0.000 C 
BRANCH  23  24
ATOM     24  O   UNL     1       7.473   6.021  15.849  0.00  0.00    +0.000 OA
ATOM     25  H   UNL     1       7.188   6.347  14.980  0.00  0.00    +0.000 HD
ENDBRANCH  23  24
ENDBRANCH  10  23
TORSDOF 6
ENDMDL
MODEL 3
REMARK VINA RESULT:      -7.8      2.281      2.620
REMARK  Name = 
REMARK  6 active torsions:
REMARK  status: ('A' for Active; 'I' for Inactive)
REMARK    1  A    between atoms: O_1  and  C_2
REMARK    2  A    between atoms: C_2  and  C_3
REMARK    3  A    between atoms: C_6  and  C_7
REMARK    4  A    between atoms: C_7  and  N_8
REMARK    5  A    between atoms: C_17  and  C_18
REMARK    6  A    between atoms: C_18  and  O_19
REMARK                            x       y       z     vdW  Elec       q    Type
REMARK                         _______ _______ _______ _____ _____    ______ ____
ROOT
ATOM      1  N   UNL     1       3.559   5.600  17.646  0.00  0.00    +0.000 N 
ATOM      2  C   UNL     1       2.882   4.483  18.109  0.00  0.00    +0.000 A 
ATOM      3  C   UNL     1       1.504   4.234  18.215  0.00  0.00    +0.000 A 
ATOM      4  C   UNL     1       1.094   2.942  18.551  0.00  0.00    +0.000 A 
ATOM      5  C   UNL     1       2.024   1.937  18.807  0.00  0.00    +0.000 A 
ATOM      6  C   UNL     1       3.396   2.224  18.855  0.00  0.00    +0.000 A 
ATOM      7  C   UNL     1       3.830   3.522  18.526  0.00  0.00    +0.000 A 
ATOM      8  C   UNL     1       5.042   4.249  18.527  0.00  0.00    +0.000 A 
ATOM      9  O   UNL     1       6.303   4.213  19.062  0.00  0.00    +0.000 OA
ATOM     10  C   UNL     1       6.859   5.415  18.669  0.00  0.00    +0.000 A 
ATOM     11  C   UNL     1       6.139   6.005  17.659  0.00  0.00    +0.000 A 
ATOM     12  C   UNL     1       4.893   5.394  17.840  0.00  0.00    +0.000 A 
ENDROOT
BRANCH   1  13
ATOM     13  C   UNL     1       3.057   6.917  17.320  0.00  0.00    +0.000 C 
BRANCH  13  17
ATOM     14  C   UNL     1       1.035   8.832  20.615  0.00  0.00    +0.000 A 
ATOM     15  C   UNL     1       1.134   9.456  19.362  0.00  0.00    +0.000 A 
ATOM     16  C   UNL     1       1.826   8.850  18.321  0.00  0.00    +0.000 A 
ATOM     17  C   UNL     1       2.435   7.605  18.501  0.00  0.00    +0.000 A 
ATOM     18  C   UNL     1       2.404   7.010  19.772  0.00  0.00    +0.000 A 
ATOM     19  C   UNL     1       1.714   7.624  20.813  0.00  0.00    +0.000 A 
BRANCH  14  20
ATOM     20  C   UNL     1       0.233   9.494  21.702  0.00  0.00    +0.000 C 
BRANCH  20  21
ATOM     21  O   UNL     1       0.979   9.578  22.907  0.00  0.00    +0.000 OA
ATOM     22  H   UNL     1       1.508   8.765  22.958  0.00  0.00    +0.000 HD
ENDBRANCH  20  21
ENDBRANCH  14  20
ENDBRANCH  13  17
ENDBRANCH   1  13
BRANCH  10  23
ATOM     23  C   UNL     1       7.958   6.015  19.467  0.00  0.00    +0.000 C 
BRANCH  23  24
ATOM     24  O   UNL     1       8.083   5.305  20.687  0.00  0.00    +0.000 OA
ATOM     25  H   UNL     1       8.450   5.937  21.327  0.00  0.00    +0.000 HD
ENDBRANCH  23  24
ENDBRANCH  10  23
TORSDOF 6
ENDMDL
MODEL 4
REMARK VINA RESULT:      -7.7      2.290      2.549
REMARK  Name = 
REMARK  6 active torsions:
REMARK  status: ('A' for Active; 'I' for Inactive)
REMARK    1  A    between atoms: O_1  and  C_2
REMARK    2  A    between atoms: C_2  and  C_3
REMARK    3  A    between atoms: C_6  and  C_7
REMARK    4  A    between atoms: C_7  and  N_8
REMARK    5  A    between atoms: C_17  and  C_18
REMARK    6  A    between atoms: C_18  and  O_19
REMARK                            x       y       z     vdW  Elec       q    Type
REMARK                         _______ _______ _______ _____ _____    ______ ____
ROOT
ATOM      1  N   UNL     1       3.827   5.785  17.473  0.00  0.00    +0.000 N 
ATOM      2  C   UNL     1       3.087   4.684  17.870  0.00  0.00    +0.000 A 
ATOM      3  C   UNL     1       1.697   4.485  17.901  0.00  0.00    +0.000 A 
ATOM      4  C   UNL     1       1.223   3.201  18.179  0.00  0.00    +0.000 A 
ATOM      5  C   UNL     1       2.101   2.154  18.451  0.00  0.00    +0.000 A 
ATOM      6  C   UNL     1       3.478   2.387  18.575  0.00  0.00    +0.000 A 
ATOM      7  C   UNL     1       3.976   3.675  18.305  0.00  0.00    +0.000 A 
ATOM      8  C   UNL     1       5.213   4.355  18.387  0.00  0.00    +0.000 A 
ATOM      9  O   UNL     1       6.443   4.256  18.982  0.00  0.00    +0.000 OA
ATOM     10  C   UNL     1       7.063   5.445  18.652  0.00  0.00    +0.000 A 
ATOM     11  C   UNL     1       6.417   6.090  17.625  0.00  0.00    +0.000 A 
ATOM     12  C   UNL     1       5.141   5.523  17.727  0.00  0.00    +0.000 A 
ENDROOT
BRANCH   1  13
ATOM     13  C   UNL     1       3.392   7.129  17.161  0.00  0.00    +0.000 C 
BRANCH  13  17
ATOM     14  C   UNL     1       1.121   8.919  20.363  0.00  0.00    +0.000 A 
ATOM     15  C   UNL     1       1.835   7.728  20.557  0.00  0.00    +0.000 A 
ATOM     16  C   UNL     1       2.525   7.136  19.507  0.00  0.00    +0.000 A 
ATOM     17  C   UNL     1       2.526   7.719  18.238  0.00  0.00    +0.000 A 
ATOM     18  C   UNL     1       1.754   8.871  18.017  0.00  0.00    +0.000 A 
ATOM     19  C   UNL     1       1.058   9.456  19.071  0.00  0.00    +0.000 A 
BRANCH  14  20
ATOM     20  C   UNL     1       0.429   9.559  21.535  0.00  0.00    +0.000 C 
BRANCH  20  21
ATOM     21  O   UNL     1       1.233   9.486  22.704  0.00  0.00    +0.000 OA
ATOM     22  H   UNL     1       0.753   9.968  23.396  0.00  0.00    +0.000 HD
ENDBRANCH  20  21
ENDBRANCH  14  20
ENDBRANCH  13  17
ENDBRANCH   1  13
BRANCH  10  23
ATOM     23  C   UNL     1       8.141   5.981  19.520  0.00  0.00    +0.000 C 
BRANCH  23  24
ATOM     24  O   UNL     1       8.158   5.254  20.737  0.00  0.00    +0.000 OA
ATOM     25  H   UNL     1       9.012   5.455  21.155  0.00  0.00    +0.000 HD
ENDBRANCH  23  24
ENDBRANCH  10  23
TORSDOF 6
ENDMDL
MODEL 5
REMARK VINA RESULT:      -7.5      2.244      4.346
REMARK  Name = 
REMARK  6 active torsions:
REMARK  status: ('A' for Active; 'I' for Inactive)
REMARK    1  A    between atoms: O_1  and  C_2
REMARK    2  A    between atoms: C_2  and  C_3
REMARK    3  A    between atoms: C_6  and  C_7
REMARK    4  A    between atoms: C_7  and  N_8
REMARK    5  A    between atoms: C_17  and  C_18
REMARK    6  A    between atoms: C_18  and  O_19
REMARK                            x       y       z     vdW  Elec       q    Type
REMARK                         _______ _______ _______ _____ _____    ______ ____
ROOT
ATOM      1  N   UNL     1       4.091   6.004  18.313  0.00  0.00    +0.000 N 
ATOM      2  C   UNL     1       5.428   6.327  18.149  0.00  0.00    +0.000 A 
ATOM      3  C   UNL     1       6.027   7.392  17.457  0.00  0.00    +0.000 A 
ATOM      4  C   UNL     1       7.403   7.581  17.607  0.00  0.00    +0.000 A 
ATOM      5  C   UNL     1       8.165   6.719  18.393  0.00  0.00    +0.000 A 
ATOM      6  C   UNL     1       7.595   5.568  18.955  0.00  0.00    +0.000 A 
ATOM      7  C   UNL     1       6.211   5.355  18.811  0.00  0.00    +0.000 A 
ATOM      8  C   UNL     1       5.273   4.343  19.116  0.00  0.00    +0.000 A 
ATOM      9  O   UNL     1       5.211   3.010  19.427  0.00  0.00    +0.000 OA
ATOM     10  C   UNL     1       3.856   2.740  19.437  0.00  0.00    +0.000 A 
ATOM     11  C   UNL     1       3.106   3.889  19.489  0.00  0.00    +0.000 A 
ATOM     12  C   UNL     1       4.023   4.818  18.984  0.00  0.00    +0.000 A 
ENDROOT
BRANCH   1  13
ATOM     13  C   UNL     1       2.920   6.546  17.658  0.00  0.00    +0.000 C 
BRANCH  13  17
ATOM     14  C   UNL     1       0.974   9.813  19.695  0.00  0.00    +0.000 A 
ATOM     15  C   UNL     1       1.393   9.935  18.362  0.00  0.00    +0.000 A 
ATOM     16  C   UNL     1       2.059   8.893  17.730  0.00  0.00    +0.000 A 
ATOM     17  C   UNL     1       2.321   7.701  18.410  0.00  0.00    +0.000 A 
ATOM     18  C   UNL     1       1.972   7.598  19.765  0.00  0.00    +0.000 A 
ATOM     19  C   UNL     1       1.310   8.648  20.396  0.00  0.00    +0.000 A 
BRANCH  14  20
ATOM     20  C   UNL     1       0.209  10.942  20.330  0.00  0.00    +0.000 C 
BRANCH  20  21
ATOM     21  O   UNL     1       0.827  11.360  21.539  0.00  0.00    +0.000 OA
ATOM     22  H   UNL     1       1.049  12.298  21.422  0.00  0.00    +0.000 HD
ENDBRANCH  20  21
ENDBRANCH  14  20
ENDBRANCH  13  17
ENDBRANCH   1  13
BRANCH  10  23
ATOM     23  C   UNL     1       3.378   1.358  19.179  0.00  0.00    +0.000 C 
BRANCH  23  24
ATOM     24  O   UNL     1       4.368   0.657  18.447  0.00  0.00    +0.000 OA
ATOM     25  H   UNL     1       4.070  -0.267  18.413  0.00  0.00    +0.000 HD
ENDBRANCH  23  24
ENDBRANCH  10  23
TORSDOF 6
ENDMDL
MODEL 6
REMARK VINA RESULT:      -7.4      2.307      4.309
REMARK  Name = 
REMARK  6 active torsions:
REMARK  status: ('A' for Active; 'I' for Inactive)
REMARK    1  A    between atoms: O_1  and  C_2
REMARK    2  A    between atoms: C_2  and  C_3
REMARK    3  A    between atoms: C_6  and  C_7
REMARK    4  A    between atoms: C_7  and  N_8
REMARK    5  A    between atoms: C_17  and  C_18
REMARK    6  A    between atoms: C_18  and  O_19
REMARK                            x       y       z     vdW  Elec       q    Type
REMARK                         _______ _______ _______ _____ _____    ______ ____
ROOT
ATOM      1  N   UNL     1       4.144   6.095  18.226  0.00  0.00    +0.000 N 
ATOM      2  C   UNL     1       5.493   6.397  18.131  0.00  0.00    +0.000 A 
ATOM      3  C   UNL     1       6.146   7.450  17.471  0.00  0.00    +0.000 A 
ATOM      4  C   UNL     1       7.514   7.618  17.693  0.00  0.00    +0.000 A 
ATOM      5  C   UNL     1       8.220   6.746  18.519  0.00  0.00    +0.000 A 
ATOM      6  C   UNL     1       7.603   5.605  19.052  0.00  0.00    +0.000 A 
ATOM      7  C   UNL     1       6.225   5.414  18.835  0.00  0.00    +0.000 A 
ATOM      8  C   UNL     1       5.256   4.417  19.092  0.00  0.00    +0.000 A 
ATOM      9  O   UNL     1       5.156   3.086  19.401  0.00  0.00    +0.000 OA
ATOM     10  C   UNL     1       3.799   2.837  19.340  0.00  0.00    +0.000 A 
ATOM     11  C   UNL     1       3.066   3.999  19.351  0.00  0.00    +0.000 A 
ATOM     12  C   UNL     1       4.023   4.912  18.893  0.00  0.00    +0.000 A 
ENDROOT
BRANCH   1  13
ATOM     13  C   UNL     1       3.019   6.655  17.509  0.00  0.00    +0.000 C 
BRANCH  13  17
ATOM     14  C   UNL     1       1.095   9.657  19.938  0.00  0.00    +0.000 A 
ATOM     15  C   UNL     1       1.501   8.430  20.485  0.00  0.00    +0.000 A 
ATOM     16  C   UNL     1       2.078   7.453  19.684  0.00  0.00    +0.000 A 
ATOM     17  C   UNL     1       2.269   7.675  18.318  0.00  0.00    +0.000 A 
ATOM     18  C   UNL     1       1.799   8.869  17.750  0.00  0.00    +0.000 A 
ATOM     19  C   UNL     1       1.216   9.842  18.555  0.00  0.00    +0.000 A 
BRANCH  14  20
ATOM     20  C   UNL     1       0.523  10.710  20.846  0.00  0.00    +0.000 C 
BRANCH  20  21
ATOM     21  O   UNL     1       0.766  10.397  22.209  0.00  0.00    +0.000 OA
ATOM     22  H   UNL     1       1.581  10.864  22.456  0.00  0.00    +0.000 HD
ENDBRANCH  20  21
ENDBRANCH  14  20
ENDBRANCH  13  17
ENDBRANCH   1  13
BRANCH  10  23
ATOM     23  C   UNL     1       3.313   1.463  19.059  0.00  0.00    +0.000 C 
BRANCH  23  24
ATOM     24  O   UNL     1       4.373   0.703  18.505  0.00  0.00    +0.000 OA
ATOM     25  H   UNL     1       4.816   1.288  17.868  0.00  0.00    +0.000 HD
ENDBRANCH  23  24
ENDBRANCH  10  23
TORSDOF 6
ENDMDL
MODEL 7
REMARK VINA RESULT:      -7.2      2.125      2.437
REMARK  Name = 
REMARK  6 active torsions:
REMARK  status: ('A' for Active; 'I' for Inactive)
REMARK    1  A    between atoms: O_1  and  C_2
REMARK    2  A    between atoms: C_2  and  C_3
REMARK    3  A    between atoms: C_6  and  C_7
REMARK    4  A    between atoms: C_7  and  N_8
REMARK    5  A    between atoms: C_17  and  C_18
REMARK    6  A    between atoms: C_18  and  O_19
REMARK                            x       y       z     vdW  Elec       q    Type
REMARK                         _______ _______ _______ _____ _____    ______ ____
ROOT
ATOM      1  N   UNL     1       3.173   5.338  18.201  0.00  0.00    +0.000 N 
ATOM      2  C   UNL     1       2.543   4.488  19.096  0.00  0.00    +0.000 A 
ATOM      3  C   UNL     1       1.190   4.386  19.456  0.00  0.00    +0.000 A 
ATOM      4  C   UNL     1       0.802   3.309  20.256  0.00  0.00    +0.000 A 
ATOM      5  C   UNL     1       1.735   2.381  20.713  0.00  0.00    +0.000 A 
ATOM      6  C   UNL     1       3.106   2.570  20.485  0.00  0.00    +0.000 A 
ATOM      7  C   UNL     1       3.519   3.652  19.686  0.00  0.00    +0.000 A 
ATOM      8  C   UNL     1       4.735   4.250  19.286  0.00  0.00    +0.000 A 
ATOM      9  O   UNL     1       6.059   4.303  19.635  0.00  0.00    +0.000 OA
ATOM     10  C   UNL     1       6.581   5.265  18.793  0.00  0.00    +0.000 A 
ATOM     11  C   UNL     1       5.737   5.540  17.745  0.00  0.00    +0.000 A 
ATOM     12  C   UNL     1       4.516   5.113  18.280  0.00  0.00    +0.000 A 
ENDROOT
BRANCH   1  13
ATOM     13  C   UNL     1       2.661   6.507  17.519  0.00  0.00    +0.000 C 
BRANCH  13  17
ATOM     14  C   UNL     1       1.002   9.468  20.183  0.00  0.00    +0.000 A 
ATOM     15  C   UNL     1       1.082   9.698  18.801  0.00  0.00    +0.000 A 
ATOM     16  C   UNL     1       1.660   8.757  17.959  0.00  0.00    +0.000 A 
ATOM     17  C   UNL     1       2.168   7.560  18.471  0.00  0.00    +0.000 A 
ATOM     18  C   UNL     1       2.159   7.355  19.860  0.00  0.00    +0.000 A 
ATOM     19  C   UNL     1       1.585   8.304  20.700  0.00  0.00    +0.000 A 
BRANCH  14  20
ATOM     20  C   UNL     1       0.323  10.486  21.057  0.00  0.00    +0.000 C 
BRANCH  20  21
ATOM     21  O   UNL     1       1.247  11.463  21.515  0.00  0.00    +0.000 OA
ATOM     22  H   UNL     1       1.642  11.106  22.326  0.00  0.00    +0.000 HD
ENDBRANCH  20  21
ENDBRANCH  14  20
ENDBRANCH  13  17
ENDBRANCH   1  13
BRANCH  10  23
ATOM     23  C   UNL     1       7.798   6.015  19.194  0.00  0.00    +0.000 C 
BRANCH  23  24
ATOM     24  O   UNL     1       8.218   5.563  20.470  0.00  0.00    +0.000 OA
ATOM     25  H   UNL     1       8.847   6.229  20.795  0.00  0.00    +0.000 HD
ENDBRANCH  23  24
ENDBRANCH  10  23
TORSDOF 6
ENDMDL
MODEL 8
REMARK VINA RESULT:      -7.0      3.896      5.579
REMARK  Name = 
REMARK  6 active torsions:
REMARK  status: ('A' for Active; 'I' for Inactive)
REMARK    1  A    between atoms: O_1  and  C_2
REMARK    2  A    between atoms: C_2  and  C_3
REMARK    3  A    between atoms: C_6  and  C_7
REMARK    4  A    between atoms: C_7  and  N_8
REMARK    5  A    between atoms: C_17  and  C_18
REMARK    6  A    between atoms: C_18  and  O_19
REMARK                            x       y       z     vdW  Elec       q    Type
REMARK                         _______ _______ _______ _____ _____    ______ ____
ROOT
ATOM      1  N   UNL     1       5.156   4.099  16.327  0.00  0.00    +0.000 N 
ATOM      2  C   UNL     1       5.732   4.708  17.430  0.00  0.00    +0.000 A 
ATOM      3  C   UNL     1       5.181   5.034  18.680  0.00  0.00    +0.000 A 
ATOM      4  C   UNL     1       6.045   5.483  19.682  0.00  0.00    +0.000 A 
ATOM      5  C   UNL     1       7.408   5.636  19.439  0.00  0.00    +0.000 A 
ATOM      6  C   UNL     1       7.931   5.462  18.150  0.00  0.00    +0.000 A 
ATOM      7  C   UNL     1       7.077   5.015  17.124  0.00  0.00    +0.000 A 
ATOM      8  C   UNL     1       7.144   4.799  15.729  0.00  0.00    +0.000 A 
ATOM      9  O   UNL     1       7.899   5.137  14.636  0.00  0.00    +0.000 OA
ATOM     10  C   UNL     1       7.189   4.613  13.574  0.00  0.00    +0.000 A 
ATOM     11  C   UNL     1       6.249   3.701  13.988  0.00  0.00    +0.000 A 
ATOM     12  C   UNL     1       6.075   4.096  15.320  0.00  0.00    +0.000 A 
ENDROOT
BRANCH   1  13
ATOM     13  C   UNL     1       3.766   3.799  16.056  0.00  0.00    +0.000 C 
BRANCH  13  17
ATOM     14  C   UNL     1       1.742   3.005  19.782  0.00  0.00    +0.000 A 
ATOM     15  C   UNL     1       2.629   2.073  19.224  0.00  0.00    +0.000 A 
ATOM     16  C   UNL     1       3.240   2.319  18.002  0.00  0.00    +0.000 A 
ATOM     17  C   UNL     1       2.986   3.503  17.305  0.00  0.00    +0.000 A 
ATOM     18  C   UNL     1       2.044   4.407  17.820  0.00  0.00    +0.000 A 
ATOM     19  C   UNL     1       1.429   4.153  19.042  0.00  0.00    +0.000 A 
BRANCH  14  20
ATOM     20  C   UNL     1       1.139   2.728  21.132  0.00  0.00    +0.000 C 
BRANCH  20  21
ATOM     21  O   UNL     1       2.130   2.765  22.149  0.00  0.00    +0.000 OA
ATOM     22  H   UNL     1       2.515   3.655  22.124  0.00  0.00    +0.000 HD
ENDBRANCH  20  21
ENDBRANCH  14  20
ENDBRANCH  13  17
ENDBRANCH   1  13
BRANCH  10  23
ATOM     23  C   UNL     1       7.338   5.207  12.222  0.00  0.00    +0.000 C 
BRANCH  23  24
ATOM     24  O   UNL     1       8.321   6.226  12.272  0.00  0.00    +0.000 OA
ATOM     25  H   UNL     1       7.892   7.028  11.929  0.00  0.00    +0.000 HD
ENDBRANCH  23  24
ENDBRANCH  10  23
TORSDOF 6
ENDMDL
MODEL 9
REMARK VINA RESULT:      -6.9      2.286      4.451
REMARK  Name = 
REMARK  6 active torsions:
REMARK  status: ('A' for Active; 'I' for Inactive)
REMARK    1  A    between atoms: O_1  and  C_2
REMARK    2  A    between atoms: C_2  and  C_3
REMARK    3  A    between atoms: C_6  and  C_7
REMARK    4  A    between atoms: C_7  and  N_8
REMARK    5  A    between atoms: C_17  and  C_18
REMARK    6  A    between atoms: C_18  and  O_19
REMARK                            x       y       z     vdW  Elec       q    Type
REMARK                         _______ _______ _______ _____ _____    ______ ____
ROOT
ATOM      1  N   UNL     1       3.385   6.390  18.292  0.00  0.00    +0.000 N 
ATOM      2  C   UNL     1       4.741   6.273  18.028  0.00  0.00    +0.000 A 
ATOM      3  C   UNL     1       5.632   7.176  17.428  0.00  0.00    +0.000 A 
ATOM      4  C   UNL     1       6.995   6.869  17.451  0.00  0.00    +0.000 A 
ATOM      5  C   UNL     1       7.454   5.685  18.024  0.00  0.00    +0.000 A 
ATOM      6  C   UNL     1       6.553   4.712  18.481  0.00  0.00    +0.000 A 
ATOM      7  C   UNL     1       5.175   5.000  18.461  0.00  0.00    +0.000 A 
ATOM      8  C   UNL     1       3.963   4.322  18.725  0.00  0.00    +0.000 A 
ATOM      9  O   UNL     1       3.461   3.053  18.855  0.00  0.00    +0.000 OA
ATOM     10  C   UNL     1       2.099   3.252  18.976  0.00  0.00    +0.000 A 
ATOM     11  C   UNL     1       1.798   4.560  19.267  0.00  0.00    +0.000 A 
ATOM     12  C   UNL     1       2.950   5.201  18.797  0.00  0.00    +0.000 A 
ENDROOT
BRANCH   1  13
ATOM     13  C   UNL     1       2.440   7.393  17.850  0.00  0.00    +0.000 C 
BRANCH  13  17
ATOM     14  C   UNL     1       0.565   9.626  21.029  0.00  0.00    +0.000 A 
ATOM     15  C   UNL     1       0.667  10.154  19.733  0.00  0.00    +0.000 A 
ATOM     16  C   UNL     1       1.314   9.445  18.728  0.00  0.00    +0.000 A 
ATOM     17  C   UNL     1       1.870   8.191  18.988  0.00  0.00    +0.000 A 
ATOM     18  C   UNL     1       1.837   7.689  20.298  0.00  0.00    +0.000 A 
ATOM     19  C   UNL     1       1.194   8.405  21.303  0.00  0.00    +0.000 A 
BRANCH  14  20
ATOM     20  C   UNL     1      -0.188  10.398  22.078  0.00  0.00    +0.000 C 
BRANCH  20  21
ATOM     21  O   UNL     1       0.222  10.017  23.383  0.00  0.00    +0.000 OA
ATOM     22  H   UNL     1       0.906  10.652  23.651  0.00  0.00    +0.000 HD
ENDBRANCH  20  21
ENDBRANCH  14  20
ENDBRANCH  13  17
ENDBRANCH   1  13
BRANCH  10  23
ATOM     23  C   UNL     1       1.159   2.172  18.584  0.00  0.00    +0.000 C 
BRANCH  23  24
ATOM     24  O   UNL     1      -0.041   2.315  19.324  0.00  0.00    +0.000 OA
ATOM     25  H   UNL     1       0.175   2.894  20.073  0.00  0.00    +0.000 HD
ENDBRANCH  23  24
ENDBRANCH  10  23
TORSDOF 6
ENDMDL
