MODEL 1
REMARK VINA RESULT:      -8.9      0.000      0.000
REMARK  Name = 
REMARK  5 active torsions:
REMARK  status: ('A' for Active; 'I' for Inactive)
REMARK    1  A    between atoms: N_1  and  C_2
REMARK    2  A    between atoms: C_3  and  N_4
REMARK    3  A    between atoms: N_5  and  C_6
REMARK    4  A    between atoms: C_9  and  C_10
REMARK    5  A    between atoms: C_21  and  S_22
REMARK                            x       y       z     vdW  Elec       q    Type
REMARK                         _______ _______ _______ _____ _____    ______ ____
ROOT
ATOM      1  C   UNL     1       3.189   7.308  18.243  0.00  0.00    +0.000 A 
ATOM      2  C   UNL     1       2.325   7.177  19.369  0.00  0.00    +0.000 A 
ATOM      3  C   UNL     1       2.148   5.918  19.933  0.00  0.00    +0.000 A 
ATOM      4  C   UNL     1       2.783   4.797  19.383  0.00  0.00    +0.000 A 
ATOM      5  C   UNL     1       3.676   4.894  18.281  0.00  0.00    +0.000 A 
ATOM      6  C   UNL     1       4.351   3.786  17.702  0.00  0.00    +0.000 A 
ATOM      7  C   UNL     1       5.112   3.900  16.541  0.00  0.00    +0.000 A 
ATOM      8  C   UNL     1       5.251   5.135  15.941  0.00  0.00    +0.000 A 
ATOM      9  C   UNL     1       4.642   6.251  16.510  0.00  0.00    +0.000 A 
ATOM     10  C   UNL     1       3.847   6.171  17.686  0.00  0.00    +0.000 A 
ENDROOT
BRANCH   4  11
ATOM     11  S   UNL     1       2.086   3.159  19.819  0.00  0.00    +0.000 S 
ATOM     12  O   UNL     1       1.122   3.593  20.843  0.00  0.00    +0.000 OA
ATOM     13  O   UNL     1       1.520   2.706  18.560  0.00  0.00    +0.000 OA
ATOM     14  O   UNL     1       3.222   2.430  20.351  0.00  0.00    +0.000 OA
ENDBRANCH   4  11
BRANCH   1  15
ATOM     15  N   UNL     1       3.211   8.550  17.534  0.00  0.00    +0.000 N 
ATOM     16  H   UNL     1       2.698   8.445  16.656  0.00  0.00    +0.000 HD
ATOM     17  H   UNL     1       2.816   9.309  18.081  0.00  0.00    +0.000 HD
ENDBRANCH   1  15
BRANCH   2  18
ATOM     18  N   UNL     1       1.551   8.233  19.905  0.00  0.00    +0.000 NA
ATOM     19  N   UNL     1       1.373   8.130  21.138  0.00  0.00    +0.000 NA
BRANCH  19  20
ATOM     20  C   UNL     1       0.477   9.094  21.639  0.00  0.00    +0.000 A 
ATOM     21  C   UNL     1       0.090   9.171  22.975  0.00  0.00    +0.000 A 
ATOM     22  C   UNL     1      -0.709  10.231  23.414  0.00  0.00    +0.000 A 
ATOM     23  C   UNL     1      -1.101  11.228  22.518  0.00  0.00    +0.000 A 
ATOM     24  N   UNL     1      -0.731  11.167  21.218  0.00  0.00    +0.000 NA
ATOM     25  C   UNL     1       0.020  10.111  20.811  0.00  0.00    +0.000 A 
BRANCH  23  26
ATOM     26  C   UNL     1      -1.883  12.417  22.939  0.00  0.00    +0.000 A 
ATOM     27  C   UNL     1      -3.203  12.240  23.423  0.00  0.00    +0.000 A 
ATOM     28  C   UNL     1      -4.005  13.319  23.809  0.00  0.00    +0.000 A 
ATOM     29  C   UNL     1      -3.499  14.608  23.745  0.00  0.00    +0.000 A 
ATOM     30 CL   UNL     1      -4.483  15.940  24.208  0.00  0.00    +0.000 Cl
ATOM     31  C   UNL     1      -2.201  14.826  23.300  0.00  0.00    +0.000 A 
ATOM     32  C   UNL     1      -1.402  13.745  22.893  0.00  0.00    +0.000 A 
ATOM     33 CL   UNL     1       0.166  14.176  22.285  0.00  0.00    +0.000 Cl
ENDBRANCH  23  26
ENDBRANCH  19  20
ENDBRANCH   2  18
TORSDOF 5
ENDMDL
MODEL 2
REMARK VINA RESULT:      -8.8      0.835      1.191
REMARK  Name = 
REMARK  5 active torsions:
REMARK  status: ('A' for Active; 'I' for Inactive)
REMARK    1  A    between atoms: N_1  and  C_2
REMARK    2  A    between atoms: C_3  and  N_4
REMARK    3  A    between atoms: N_5  and  C_6
REMARK    4  A    between atoms: C_9  and  C_10
REMARK    5  A    between atoms: C_21  and  S_22
REMARK                            x       y       z     vdW  Elec       q    Type
REMARK                         _______ _______ _______ _____ _____    ______ ____
ROOT
ATOM      1  C   UNL     1       3.257   6.914  18.409  0.00  0.00    +0.000 A 
ATOM      2  C   UNL     1       2.623   6.532  19.627  0.00  0.00    +0.000 A 
ATOM      3  C   UNL     1       2.869   5.262  20.139  0.00  0.00    +0.000 A 
ATOM      4  C   UNL     1       3.698   4.367  19.451  0.00  0.00    +0.000 A 
ATOM      5  C   UNL     1       4.373   4.724  18.251  0.00  0.00    +0.000 A 
ATOM      6  C   UNL     1       5.232   3.852  17.531  0.00  0.00    +0.000 A 
ATOM      7  C   UNL     1       5.769   4.190  16.291  0.00  0.00    +0.000 A 
ATOM      8  C   UNL     1       5.489   5.428  15.747  0.00  0.00    +0.000 A 
ATOM      9  C   UNL     1       4.688   6.324  16.449  0.00  0.00    +0.000 A 
ATOM     10  C   UNL     1       4.112   6.009  17.711  0.00  0.00    +0.000 A 
ENDROOT
BRANCH   4  11
ATOM     11  S   UNL     1       3.531   2.593  19.882  0.00  0.00    +0.000 S 
ATOM     12  O   UNL     1       2.978   2.106  18.608  0.00  0.00    +0.000 OA
ATOM     13  O   UNL     1       4.900   2.203  20.173  0.00  0.00    +0.000 OA
ATOM     14  O   UNL     1       2.580   2.591  20.977  0.00  0.00    +0.000 OA
ENDBRANCH   4  11
BRANCH   1  15
ATOM     15  N   UNL     1       2.849   8.128  17.772  0.00  0.00    +0.000 N 
ATOM     16  H   UNL     1       2.299   7.903  16.940  0.00  0.00    +0.000 HD
ATOM     17  H   UNL     1       2.314   8.725  18.395  0.00  0.00    +0.000 HD
ENDBRANCH   1  15
BRANCH   2  18
ATOM     18  N   UNL     1       1.677   7.328  20.314  0.00  0.00    +0.000 NA
ATOM     19  N   UNL     1       1.562   8.475  19.830  0.00  0.00    +0.000 NA
BRANCH  19  20
ATOM     20  C   UNL     1       0.738   9.311  20.608  0.00  0.00    +0.000 A 
ATOM     21  C   UNL     1       0.621   9.211  21.993  0.00  0.00    +0.000 A 
ATOM     22  C   UNL     1      -0.125  10.156  22.704  0.00  0.00    +0.000 A 
ATOM     23  C   UNL     1      -0.737  11.215  22.029  0.00  0.00    +0.000 A 
ATOM     24  N   UNL     1      -0.631  11.325  20.684  0.00  0.00    +0.000 NA
ATOM     25  C   UNL     1       0.075  10.377  20.015  0.00  0.00    +0.000 A 
BRANCH  23  26
ATOM     26  C   UNL     1      -1.477  12.290  22.735  0.00  0.00    +0.000 A 
ATOM     27  C   UNL     1      -2.726  11.992  23.332  0.00  0.00    +0.000 A 
ATOM     28  C   UNL     1      -3.490  12.964  23.987  0.00  0.00    +0.000 A 
ATOM     29  C   UNL     1      -3.010  14.261  24.086  0.00  0.00    +0.000 A 
ATOM     30 CL   UNL     1      -3.948  15.464  24.881  0.00  0.00    +0.000 Cl
ATOM     31  C   UNL     1      -1.778  14.592  23.537  0.00  0.00    +0.000 A 
ATOM     32  C   UNL     1      -1.020  13.622  22.861  0.00  0.00    +0.000 A 
ATOM     33 CL   UNL     1       0.457  14.199  22.157  0.00  0.00    +0.000 Cl
ENDBRANCH  23  26
ENDBRANCH  19  20
ENDBRANCH   2  18
TORSDOF 5
ENDMDL
MODEL 3
REMARK VINA RESULT:      -8.7      0.741      1.026
REMARK  Name = 
REMARK  5 active torsions:
REMARK  status: ('A' for Active; 'I' for Inactive)
REMARK    1  A    between atoms: N_1  and  C_2
REMARK    2  A    between atoms: C_3  and  N_4
REMARK    3  A    between atoms: N_5  and  C_6
REMARK    4  A    between atoms: C_9  and  C_10
REMARK    5  A    between atoms: C_21  and  S_22
REMARK                            x       y       z     vdW  Elec       q    Type
REMARK                         _______ _______ _______ _____ _____    ______ ____
ROOT
ATOM      1  C   UNL     1       3.510   6.890  18.060  0.00  0.00    +0.000 A 
ATOM      2  C   UNL     1       2.590   6.944  19.146  0.00  0.00    +0.000 A 
ATOM      3  C   UNL     1       2.125   5.750  19.688  0.00  0.00    +0.000 A 
ATOM      4  C   UNL     1       2.531   4.521  19.153  0.00  0.00    +0.000 A 
ATOM      5  C   UNL     1       3.471   4.428  18.091  0.00  0.00    +0.000 A 
ATOM      6  C   UNL     1       3.919   3.203  17.529  0.00  0.00    +0.000 A 
ATOM      7  C   UNL     1       4.738   3.154  16.403  0.00  0.00    +0.000 A 
ATOM      8  C   UNL     1       5.163   4.333  15.823  0.00  0.00    +0.000 A 
ATOM      9  C   UNL     1       4.780   5.551  16.378  0.00  0.00    +0.000 A 
ATOM     10  C   UNL     1       3.935   5.640  17.518  0.00  0.00    +0.000 A 
ENDROOT
BRANCH   4  11
ATOM     11  S   UNL     1       1.482   3.069  19.540  0.00  0.00    +0.000 S 
ATOM     12  O   UNL     1       0.634   3.677  20.578  0.00  0.00    +0.000 OA
ATOM     13  O   UNL     1       0.835   2.791  18.269  0.00  0.00    +0.000 OA
ATOM     14  O   UNL     1       2.423   2.089  20.048  0.00  0.00    +0.000 OA
ENDBRANCH   4  11
BRANCH   1  15
ATOM     15  N   UNL     1       3.827   8.100  17.366  0.00  0.00    +0.000 N 
ATOM     16  H   UNL     1       4.826   8.112  17.149  0.00  0.00    +0.000 HD
ATOM     17  H   UNL     1       3.283   8.208  16.516  0.00  0.00    +0.000 HD
ENDBRANCH   1  15
BRANCH   2  18
ATOM     18  N   UNL     1       2.036   8.140  19.661  0.00  0.00    +0.000 NA
ATOM     19  N   UNL     1       1.467   7.979  20.762  0.00  0.00    +0.000 NA
BRANCH  19  20
ATOM     20  C   UNL     1       0.786   9.133  21.194  0.00  0.00    +0.000 A 
ATOM     21  C   UNL     1       0.089   9.986  20.340  0.00  0.00    +0.000 A 
ATOM     22  C   UNL     1      -0.661  11.044  20.863  0.00  0.00    +0.000 A 
ATOM     23  C   UNL     1      -0.731  11.234  22.245  0.00  0.00    +0.000 A 
ATOM     24  N   UNL     1      -0.060  10.413  23.086  0.00  0.00    +0.000 NA
ATOM     25  C   UNL     1       0.685   9.412  22.550  0.00  0.00    +0.000 A 
BRANCH  23  26
ATOM     26  C   UNL     1      -1.570  12.290  22.863  0.00  0.00    +0.000 A 
ATOM     27  C   UNL     1      -2.821  11.937  23.426  0.00  0.00    +0.000 A 
ATOM     28  C   UNL     1      -3.676  12.885  23.998  0.00  0.00    +0.000 A 
ATOM     29  C   UNL     1      -3.289  14.216  24.045  0.00  0.00    +0.000 A 
ATOM     30 CL   UNL     1      -4.339  15.390  24.737  0.00  0.00    +0.000 Cl
ATOM     31  C   UNL     1      -2.060  14.604  23.527  0.00  0.00    +0.000 A 
ATOM     32  C   UNL     1      -1.211  13.656  22.934  0.00  0.00    +0.000 A 
ATOM     33 CL   UNL     1       0.253  14.297  22.258  0.00  0.00    +0.000 Cl
ENDBRANCH  23  26
ENDBRANCH  19  20
ENDBRANCH   2  18
TORSDOF 5
ENDMDL
MODEL 4
REMARK VINA RESULT:      -8.6      2.364      3.086
REMARK  Name = 
REMARK  5 active torsions:
REMARK  status: ('A' for Active; 'I' for Inactive)
REMARK    1  A    between atoms: N_1  and  C_2
REMARK    2  A    between atoms: C_3  and  N_4
REMARK    3  A    between atoms: N_5  and  C_6
REMARK    4  A    between atoms: C_9  and  C_10
REMARK    5  A    between atoms: C_21  and  S_22
REMARK                            x       y       z     vdW  Elec       q    Type
REMARK                         _______ _______ _______ _____ _____    ______ ____
ROOT
ATOM      1  C   UNL     1       1.996   5.325  19.284  0.00  0.00    +0.000 A 
ATOM      2  C   UNL     1       2.423   6.601  18.816  0.00  0.00    +0.000 A 
ATOM      3  C   UNL     1       3.458   6.661  17.888  0.00  0.00    +0.000 A 
ATOM      4  C   UNL     1       4.086   5.488  17.449  0.00  0.00    +0.000 A 
ATOM      5  C   UNL     1       3.666   4.197  17.869  0.00  0.00    +0.000 A 
ATOM      6  C   UNL     1       4.266   2.984  17.438  0.00  0.00    +0.000 A 
ATOM      7  C   UNL     1       3.916   1.747  17.973  0.00  0.00    +0.000 A 
ATOM      8  C   UNL     1       2.928   1.680  18.934  0.00  0.00    +0.000 A 
ATOM      9  C   UNL     1       2.286   2.846  19.345  0.00  0.00    +0.000 A 
ATOM     10  C   UNL     1       2.626   4.127  18.832  0.00  0.00    +0.000 A 
ENDROOT
BRANCH   4  11
ATOM     11  S   UNL     1       5.742   5.679  16.686  0.00  0.00    +0.000 S 
ATOM     12  O   UNL     1       5.808   7.149  16.662  0.00  0.00    +0.000 OA
ATOM     13  O   UNL     1       6.614   5.017  17.642  0.00  0.00    +0.000 OA
ATOM     14  O   UNL     1       5.592   5.074  15.376  0.00  0.00    +0.000 OA
ENDBRANCH   4  11
BRANCH   1  15
ATOM     15  N   UNL     1       1.085   5.266  20.386  0.00  0.00    +0.000 N 
ATOM     16  H   UNL     1       1.613   5.287  21.261  0.00  0.00    +0.000 HD
ATOM     17  H   UNL     1       0.411   6.026  20.366  0.00  0.00    +0.000 HD
ENDBRANCH   1  15
BRANCH   2  18
ATOM     18  N   UNL     1       1.927   7.834  19.303  0.00  0.00    +0.000 NA
ATOM     19  N   UNL     1       1.714   7.820  20.535  0.00  0.00    +0.000 NA
BRANCH  19  20
ATOM     20  C   UNL     1       1.077   8.992  20.986  0.00  0.00    +0.000 A 
ATOM     21  C   UNL     1       0.458   9.912  20.142  0.00  0.00    +0.000 A 
ATOM     22  C   UNL     1      -0.256  10.988  20.678  0.00  0.00    +0.000 A 
ATOM     23  C   UNL     1      -0.368  11.130  22.063  0.00  0.00    +0.000 A 
ATOM     24  N   UNL     1       0.226  10.244  22.896  0.00  0.00    +0.000 NA
ATOM     25  C   UNL     1       0.939   9.226  22.348  0.00  0.00    +0.000 A 
BRANCH  23  26
ATOM     26  C   UNL     1      -1.175  12.206  22.692  0.00  0.00    +0.000 A 
ATOM     27  C   UNL     1      -2.416  11.877  23.291  0.00  0.00    +0.000 A 
ATOM     28  C   UNL     1      -3.241  12.845  23.875  0.00  0.00    +0.000 A 
ATOM     29  C   UNL     1      -2.833  14.170  23.897  0.00  0.00    +0.000 A 
ATOM     30 CL   UNL     1      -3.847  15.367  24.603  0.00  0.00    +0.000 Cl
ATOM     31  C   UNL     1      -1.613  14.533  23.343  0.00  0.00    +0.000 A 
ATOM     32  C   UNL     1      -0.794  13.566  22.738  0.00  0.00    +0.000 A 
ATOM     33 CL   UNL     1       0.661  14.178  22.017  0.00  0.00    +0.000 Cl
ENDBRANCH  23  26
ENDBRANCH  19  20
ENDBRANCH   2  18
TORSDOF 5
ENDMDL
MODEL 5
REMARK VINA RESULT:      -8.6      0.973      1.479
REMARK  Name = 
REMARK  5 active torsions:
REMARK  status: ('A' for Active; 'I' for Inactive)
REMARK    1  A    between atoms: N_1  and  C_2
REMARK    2  A    between atoms: C_3  and  N_4
REMARK    3  A    between atoms: N_5  and  C_6
REMARK    4  A    between atoms: C_9  and  C_10
REMARK    5  A    between atoms: C_21  and  S_22
REMARK                            x       y       z     vdW  Elec       q    Type
REMARK                         _______ _______ _______ _____ _____    ______ ____
ROOT
ATOM      1  C   UNL     1       3.489   7.119  18.180  0.00  0.00    +0.000 A 
ATOM      2  C   UNL     1       2.626   6.853  19.282  0.00  0.00    +0.000 A 
ATOM      3  C   UNL     1       2.383   5.530  19.637  0.00  0.00    +0.000 A 
ATOM      4  C   UNL     1       2.951   4.482  18.902  0.00  0.00    +0.000 A 
ATOM      5  C   UNL     1       3.841   4.709  17.817  0.00  0.00    +0.000 A 
ATOM      6  C   UNL     1       4.450   3.675  17.056  0.00  0.00    +0.000 A 
ATOM      7  C   UNL     1       5.209   3.935  15.918  0.00  0.00    +0.000 A 
ATOM      8  C   UNL     1       5.413   5.243  15.525  0.00  0.00    +0.000 A 
ATOM      9  C   UNL     1       4.871   6.282  16.276  0.00  0.00    +0.000 A 
ATOM     10  C   UNL     1       4.079   6.054  17.435  0.00  0.00    +0.000 A 
ENDROOT
BRANCH   4  11
ATOM     11  S   UNL     1       2.166   2.834  19.077  0.00  0.00    +0.000 S 
ATOM     12  O   UNL     1       3.319   2.094  19.614  0.00  0.00    +0.000 OA
ATOM     13  O   UNL     1       1.083   3.093  20.010  0.00  0.00    +0.000 OA
ATOM     14  O   UNL     1       1.816   2.472  17.717  0.00  0.00    +0.000 OA
ENDBRANCH   4  11
BRANCH   1  15
ATOM     15  N   UNL     1       3.576   8.457  17.682  0.00  0.00    +0.000 N 
ATOM     16  H   UNL     1       3.367   8.458  16.681  0.00  0.00    +0.000 HD
ATOM     17  H   UNL     1       2.948   9.089  18.171  0.00  0.00    +0.000 HD
ENDBRANCH   1  15
BRANCH   2  18
ATOM     18  N   UNL     1       1.915   7.848  19.994  0.00  0.00    +0.000 NA
ATOM     19  N   UNL     1       1.181   8.543  19.258  0.00  0.00    +0.000 NA
BRANCH  19  20
ATOM     20  C   UNL     1       0.598   9.626  19.943  0.00  0.00    +0.000 A 
ATOM     21  C   UNL     1      -0.426  10.413  19.419  0.00  0.00    +0.000 A 
ATOM     22  C   UNL     1      -1.033  11.393  20.209  0.00  0.00    +0.000 A 
ATOM     23  C   UNL     1      -0.629  11.570  21.535  0.00  0.00    +0.000 A 
ATOM     24  N   UNL     1       0.362  10.812  22.058  0.00  0.00    +0.000 NA
ATOM     25  C   UNL     1       0.955   9.888  21.259  0.00  0.00    +0.000 A 
BRANCH  23  26
ATOM     26  C   UNL     1      -1.287  12.540  22.446  0.00  0.00    +0.000 A 
ATOM     27  C   UNL     1      -2.511  12.185  23.064  0.00  0.00    +0.000 A 
ATOM     28  C   UNL     1      -3.199  13.061  23.911  0.00  0.00    +0.000 A 
ATOM     29  C   UNL     1      -2.666  14.312  24.183  0.00  0.00    +0.000 A 
ATOM     30 CL   UNL     1      -3.511  15.399  25.214  0.00  0.00    +0.000 Cl
ATOM     31  C   UNL     1      -1.455  14.692  23.618  0.00  0.00    +0.000 A 
ATOM     32  C   UNL     1      -0.774  13.821  22.752  0.00  0.00    +0.000 A 
ATOM     33 CL   UNL     1       0.682  14.461  22.058  0.00  0.00    +0.000 Cl
ENDBRANCH  23  26
ENDBRANCH  19  20
ENDBRANCH   2  18
TORSDOF 5
ENDMDL
MODEL 6
REMARK VINA RESULT:      -8.2      1.201      1.586
REMARK  Name = 
REMARK  5 active torsions:
REMARK  status: ('A' for Active; 'I' for Inactive)
REMARK    1  A    between atoms: N_1  and  C_2
REMARK    2  A    between atoms: C_3  and  N_4
REMARK    3  A    between atoms: N_5  and  C_6
REMARK    4  A    between atoms: C_9  and  C_10
REMARK    5  A    between atoms: C_21  and  S_22
REMARK                            x       y       z     vdW  Elec       q    Type
REMARK                         _______ _______ _______ _____ _____    ______ ____
ROOT
ATOM      1  C   UNL     1       2.699   7.374  18.701  0.00  0.00    +0.000 A 
ATOM      2  C   UNL     1       1.878   7.149  19.843  0.00  0.00    +0.000 A 
ATOM      3  C   UNL     1       1.950   5.917  20.486  0.00  0.00    +0.000 A 
ATOM      4  C   UNL     1       2.790   4.909  19.997  0.00  0.00    +0.000 A 
ATOM      5  C   UNL     1       3.647   5.109  18.880  0.00  0.00    +0.000 A 
ATOM      6  C   UNL     1       4.524   4.118  18.362  0.00  0.00    +0.000 A 
ATOM      7  C   UNL     1       5.249   4.305  17.187  0.00  0.00    +0.000 A 
ATOM      8  C   UNL     1       5.145   5.504  16.511  0.00  0.00    +0.000 A 
ATOM      9  C   UNL     1       4.330   6.514  17.018  0.00  0.00    +0.000 A 
ATOM     10  C   UNL     1       3.566   6.354  18.206  0.00  0.00    +0.000 A 
ENDROOT
BRANCH   4  11
ATOM     11  S   UNL     1       2.425   3.197  20.541  0.00  0.00    +0.000 S 
ATOM     12  O   UNL     1       1.656   2.750  19.368  0.00  0.00    +0.000 OA
ATOM     13  O   UNL     1       3.750   2.619  20.694  0.00  0.00    +0.000 OA
ATOM     14  O   UNL     1       1.624   3.378  21.737  0.00  0.00    +0.000 OA
ENDBRANCH   4  11
BRANCH   1  15
ATOM     15  N   UNL     1       2.479   8.550  17.917  0.00  0.00    +0.000 N 
ATOM     16  H   UNL     1       3.239   9.214  18.085  0.00  0.00    +0.000 HD
ATOM     17  H   UNL     1       2.409   8.341  16.926  0.00  0.00    +0.000 HD
ENDBRANCH   1  15
BRANCH   2  18
ATOM     18  N   UNL     1       0.913   8.066  20.323  0.00  0.00    +0.000 NA
ATOM     19  N   UNL     1       1.381   9.211  20.509  0.00  0.00    +0.000 NA
BRANCH  19  20
ATOM     20  C   UNL     1       0.461  10.077  21.131  0.00  0.00    +0.000 A 
ATOM     21  C   UNL     1      -0.081   9.853  22.395  0.00  0.00    +0.000 A 
ATOM     22  C   UNL     1      -0.895  10.821  22.991  0.00  0.00    +0.000 A 
ATOM     23  C   UNL     1      -1.148  12.025  22.330  0.00  0.00    +0.000 A 
ATOM     24  N   UNL     1      -0.627  12.257  21.103  0.00  0.00    +0.000 NA
ATOM     25  C   UNL     1       0.135  11.287  20.533  0.00  0.00    +0.000 A 
BRANCH  23  26
ATOM     26  C   UNL     1      -1.939  13.121  22.943  0.00  0.00    +0.000 A 
ATOM     27  C   UNL     1      -1.329  13.955  23.912  0.00  0.00    +0.000 A 
ATOM     28  C   UNL     1      -2.024  14.987  24.550  0.00  0.00    +0.000 A 
ATOM     29  C   UNL     1      -3.348  15.231  24.217  0.00  0.00    +0.000 A 
ATOM     30 CL   UNL     1      -4.213  16.491  25.006  0.00  0.00    +0.000 Cl
ATOM     31  C   UNL     1      -3.979  14.453  23.254  0.00  0.00    +0.000 A 
ATOM     32  C   UNL     1      -3.288  13.403  22.628  0.00  0.00    +0.000 A 
ATOM     33 CL   UNL     1      -4.227  12.467  21.508  0.00  0.00    +0.000 Cl
ENDBRANCH  23  26
ENDBRANCH  19  20
ENDBRANCH   2  18
TORSDOF 5
ENDMDL
MODEL 7
REMARK VINA RESULT:      -8.1      1.312      1.719
REMARK  Name = 
REMARK  5 active torsions:
REMARK  status: ('A' for Active; 'I' for Inactive)
REMARK    1  A    between atoms: N_1  and  C_2
REMARK    2  A    between atoms: C_3  and  N_4
REMARK    3  A    between atoms: N_5  and  C_6
REMARK    4  A    between atoms: C_9  and  C_10
REMARK    5  A    between atoms: C_21  and  S_22
REMARK                            x       y       z     vdW  Elec       q    Type
REMARK                         _______ _______ _______ _____ _____    ______ ____
ROOT
ATOM      1  C   UNL     1       3.446   7.176  18.149  0.00  0.00    +0.000 A 
ATOM      2  C   UNL     1       2.574   6.919  19.246  0.00  0.00    +0.000 A 
ATOM      3  C   UNL     1       2.344   5.600  19.623  0.00  0.00    +0.000 A 
ATOM      4  C   UNL     1       2.934   4.546  18.914  0.00  0.00    +0.000 A 
ATOM      5  C   UNL     1       3.834   4.765  17.835  0.00  0.00    +0.000 A 
ATOM      6  C   UNL     1       4.464   3.725  17.100  0.00  0.00    +0.000 A 
ATOM      7  C   UNL     1       5.234   3.974  15.966  0.00  0.00    +0.000 A 
ATOM      8  C   UNL     1       5.426   5.277  15.551  0.00  0.00    +0.000 A 
ATOM      9  C   UNL     1       4.861   6.322  16.277  0.00  0.00    +0.000 A 
ATOM     10  C   UNL     1       4.059   6.106  17.431  0.00  0.00    +0.000 A 
ENDROOT
BRANCH   4  11
ATOM     11  S   UNL     1       2.169   2.892  19.110  0.00  0.00    +0.000 S 
ATOM     12  O   UNL     1       1.282   3.190  20.247  0.00  0.00    +0.000 OA
ATOM     13  O   UNL     1       1.515   2.687  17.828  0.00  0.00    +0.000 OA
ATOM     14  O   UNL     1       3.287   2.030  19.445  0.00  0.00    +0.000 OA
ENDBRANCH   4  11
BRANCH   1  15
ATOM     15  N   UNL     1       3.522   8.506  17.627  0.00  0.00    +0.000 N 
ATOM     16  H   UNL     1       4.504   8.768  17.516  0.00  0.00    +0.000 HD
ATOM     17  H   UNL     1       3.032   8.598  16.743  0.00  0.00    +0.000 HD
ENDBRANCH   1  15
BRANCH   2  18
ATOM     18  N   UNL     1       1.843   7.918  19.932  0.00  0.00    +0.000 NA
ATOM     19  N   UNL     1       1.218   8.678  19.161  0.00  0.00    +0.000 NA
BRANCH  19  20
ATOM     20  C   UNL     1       0.620   9.760  19.836  0.00  0.00    +0.000 A 
ATOM     21  C   UNL     1       0.485  11.035  19.289  0.00  0.00    +0.000 A 
ATOM     22  C   UNL     1      -0.228  12.022  19.977  0.00  0.00    +0.000 A 
ATOM     23  C   UNL     1      -0.827  11.724  21.203  0.00  0.00    +0.000 A 
ATOM     24  N   UNL     1      -0.707  10.490  21.745  0.00  0.00    +0.000 NA
ATOM     25  C   UNL     1       0.017   9.559  21.071  0.00  0.00    +0.000 A 
BRANCH  23  26
ATOM     26  C   UNL     1      -1.661  12.704  21.942  0.00  0.00    +0.000 A 
ATOM     27  C   UNL     1      -1.171  13.254  23.152  0.00  0.00    +0.000 A 
ATOM     28  C   UNL     1      -1.916  14.160  23.914  0.00  0.00    +0.000 A 
ATOM     29  C   UNL     1      -3.167  14.562  23.472  0.00  0.00    +0.000 A 
ATOM     30 CL   UNL     1      -4.094  15.667  24.409  0.00  0.00    +0.000 Cl
ATOM     31  C   UNL     1      -3.677  14.066  22.278  0.00  0.00    +0.000 A 
ATOM     32  C   UNL     1      -2.938  13.141  21.523  0.00  0.00    +0.000 A 
ATOM     33 CL   UNL     1      -3.735  12.549  20.100  0.00  0.00    +0.000 Cl
ENDBRANCH  23  26
ENDBRANCH  19  20
ENDBRANCH   2  18
TORSDOF 5
ENDMDL
MODEL 8
REMARK VINA RESULT:      -8.0      1.433      1.888
REMARK  Name = 
REMARK  5 active torsions:
REMARK  status: ('A' for Active; 'I' for Inactive)
REMARK    1  A    between atoms: N_1  and  C_2
REMARK    2  A    between atoms: C_3  and  N_4
REMARK    3  A    between atoms: N_5  and  C_6
REMARK    4  A    between atoms: C_9  and  C_10
REMARK    5  A    between atoms: C_21  and  S_22
REMARK                            x       y       z     vdW  Elec       q    Type
REMARK                         _______ _______ _______ _____ _____    ______ ____
ROOT
ATOM      1  C   UNL     1       3.687   6.983  18.002  0.00  0.00    +0.000 A 
ATOM      2  C   UNL     1       2.883   6.644  19.128  0.00  0.00    +0.000 A 
ATOM      3  C   UNL     1       2.711   5.300  19.446  0.00  0.00    +0.000 A 
ATOM      4  C   UNL     1       3.292   4.303  18.653  0.00  0.00    +0.000 A 
ATOM      5  C   UNL     1       4.126   4.604  17.542  0.00  0.00    +0.000 A 
ATOM      6  C   UNL     1       4.746   3.624  16.721  0.00  0.00    +0.000 A 
ATOM      7  C   UNL     1       5.446   3.954  15.563  0.00  0.00    +0.000 A 
ATOM      8  C   UNL     1       5.578   5.282  15.208  0.00  0.00    +0.000 A 
ATOM      9  C   UNL     1       5.023   6.271  16.017  0.00  0.00    +0.000 A 
ATOM     10  C   UNL     1       4.291   5.971  17.197  0.00  0.00    +0.000 A 
ENDROOT
BRANCH   4  11
ATOM     11  S   UNL     1       2.586   2.618  18.801  0.00  0.00    +0.000 S 
ATOM     12  O   UNL     1       1.746   2.832  19.991  0.00  0.00    +0.000 OA
ATOM     13  O   UNL     1       1.879   2.454  17.542  0.00  0.00    +0.000 OA
ATOM     14  O   UNL     1       3.743   1.777  19.041  0.00  0.00    +0.000 OA
ENDBRANCH   4  11
BRANCH   1  15
ATOM     15  N   UNL     1       3.697   8.339  17.548  0.00  0.00    +0.000 N 
ATOM     16  H   UNL     1       4.283   8.411  16.713  0.00  0.00    +0.000 HD
ATOM     17  H   UNL     1       2.762   8.683  17.349  0.00  0.00    +0.000 HD
ENDBRANCH   1  15
BRANCH   2  18
ATOM     18  N   UNL     1       2.161   7.583  19.902  0.00  0.00    +0.000 NA
ATOM     19  N   UNL     1       1.515   8.394  19.204  0.00  0.00    +0.000 NA
BRANCH  19  20
ATOM     20  C   UNL     1       0.926   9.418  19.971  0.00  0.00    +0.000 A 
ATOM     21  C   UNL     1       0.640   9.300  21.330  0.00  0.00    +0.000 A 
ATOM     22  C   UNL     1       0.166  10.404  22.046  0.00  0.00    +0.000 A 
ATOM     23  C   UNL     1      -0.000  11.633  21.404  0.00  0.00    +0.000 A 
ATOM     24  N   UNL     1       0.275  11.763  20.085  0.00  0.00    +0.000 NA
ATOM     25  C   UNL     1       0.705  10.667  19.407  0.00  0.00    +0.000 A 
BRANCH  23  26
ATOM     26  C   UNL     1      -0.426  12.859  22.125  0.00  0.00    +0.000 A 
ATOM     27  C   UNL     1       0.309  14.056  21.945  0.00  0.00    +0.000 A 
ATOM     28  C   UNL     1      -0.018  15.239  22.616  0.00  0.00    +0.000 A 
ATOM     29  C   UNL     1      -1.110  15.263  23.471  0.00  0.00    +0.000 A 
ATOM     30 CL   UNL     1      -1.512  16.711  24.308  0.00  0.00    +0.000 Cl
ATOM     31  C   UNL     1      -1.874  14.118  23.659  0.00  0.00    +0.000 A 
ATOM     32  C   UNL     1      -1.533  12.925  23.001  0.00  0.00    +0.000 A 
ATOM     33 CL   UNL     1      -2.527  11.557  23.395  0.00  0.00    +0.000 Cl
ENDBRANCH  23  26
ENDBRANCH  19  20
ENDBRANCH   2  18
TORSDOF 5
ENDMDL
MODEL 9
REMARK VINA RESULT:      -8.0      5.457     10.661
REMARK  Name = 
REMARK  5 active torsions:
REMARK  status: ('A' for Active; 'I' for Inactive)
REMARK    1  A    between atoms: N_1  and  C_2
REMARK    2  A    between atoms: C_3  and  N_4
REMARK    3  A    between atoms: N_5  and  C_6
REMARK    4  A    between atoms: C_9  and  C_10
REMARK    5  A    between atoms: C_21  and  S_22
REMARK                            x       y       z     vdW  Elec       q    Type
REMARK                         _______ _______ _______ _____ _____    ______ ____
ROOT
ATOM      1  C   UNL     1      -0.986  12.915  20.864  0.00  0.00    +0.000 A 
ATOM      2  C   UNL     1      -1.392  11.959  19.888  0.00  0.00    +0.000 A 
ATOM      3  C   UNL     1      -2.721  11.946  19.477  0.00  0.00    +0.000 A 
ATOM      4  C   UNL     1      -3.646  12.837  20.036  0.00  0.00    +0.000 A 
ATOM      5  C   UNL     1      -3.271  13.824  20.987  0.00  0.00    +0.000 A 
ATOM      6  C   UNL     1      -4.174  14.754  21.568  0.00  0.00    +0.000 A 
ATOM      7  C   UNL     1      -3.799  15.618  22.594  0.00  0.00    +0.000 A 
ATOM      8  C   UNL     1      -2.495  15.603  23.048  0.00  0.00    +0.000 A 
ATOM      9  C   UNL     1      -1.573  14.736  22.468  0.00  0.00    +0.000 A 
ATOM     10  C   UNL     1      -1.923  13.831  21.429  0.00  0.00    +0.000 A 
ENDROOT
BRANCH   4  11
ATOM     11  S   UNL     1      -5.418  12.401  19.859  0.00  0.00    +0.000 S 
ATOM     12  O   UNL     1      -5.285  11.332  18.856  0.00  0.00    +0.000 OA
ATOM     13  O   UNL     1      -5.778  11.975  21.201  0.00  0.00    +0.000 OA
ATOM     14  O   UNL     1      -6.024  13.616  19.349  0.00  0.00    +0.000 OA
ENDBRANCH   4  11
BRANCH   1  15
ATOM     15  N   UNL     1       0.317  12.797  21.442  0.00  0.00    +0.000 N 
ATOM     16  H   UNL     1       0.972  12.465  20.730  0.00  0.00    +0.000 HD
ATOM     17  H   UNL     1       0.642  13.675  21.835  0.00  0.00    +0.000 HD
ENDBRANCH   1  15
BRANCH   2  18
ATOM     18  N   UNL     1      -0.550  10.946  19.369  0.00  0.00    +0.000 NA
ATOM     19  N   UNL     1      -0.080  10.202  20.257  0.00  0.00    +0.000 NA
BRANCH  19  20
ATOM     20  C   UNL     1       0.874   9.297  19.753  0.00  0.00    +0.000 A 
ATOM     21  C   UNL     1       1.368   8.211  20.474  0.00  0.00    +0.000 A 
ATOM     22  C   UNL     1       2.223   7.291  19.860  0.00  0.00    +0.000 A 
ATOM     23  C   UNL     1       2.566   7.446  18.516  0.00  0.00    +0.000 A 
ATOM     24  N   UNL     1       2.094   8.495  17.802  0.00  0.00    +0.000 NA
ATOM     25  C   UNL     1       1.289   9.390  18.432  0.00  0.00    +0.000 A 
BRANCH  23  26
ATOM     26  C   UNL     1       3.406   6.462  17.788  0.00  0.00    +0.000 A 
ATOM     27  C   UNL     1       4.539   6.919  17.069  0.00  0.00    +0.000 A 
ATOM     28  C   UNL     1       5.356   6.050  16.338  0.00  0.00    +0.000 A 
ATOM     29  C   UNL     1       5.077   4.692  16.326  0.00  0.00    +0.000 A 
ATOM     30 CL   UNL     1       6.071   3.620  15.420  0.00  0.00    +0.000 Cl
ATOM     31  C   UNL     1       3.990   4.198  17.037  0.00  0.00    +0.000 A 
ATOM     32  C   UNL     1       3.157   5.071  17.754  0.00  0.00    +0.000 A 
ATOM     33 CL   UNL     1       1.794   4.323  18.525  0.00  0.00    +0.000 Cl
ENDBRANCH  23  26
ENDBRANCH  19  20
ENDBRANCH   2  18
TORSDOF 5
ENDMDL
