MODEL 1
REMARK VINA RESULT:      -8.1      0.000      0.000
REMARK  Name = 
REMARK  5 active torsions:
REMARK  status: ('A' for Active; 'I' for Inactive)
REMARK    1  A    between atoms: C_1  and  C_2
REMARK    2  A    between atoms: C_5  and  C_6
REMARK    3  A    between atoms: N_8  and  S_9
REMARK    4  A    between atoms: S_9  and  C_12
REMARK    5  A    between atoms: C_15  and  C_16
REMARK                            x       y       z     vdW  Elec       q    Type
REMARK                         _______ _______ _______ _____ _____    ______ ____
ROOT
ATOM      1  C   UNL     1       3.769   6.576  18.442  0.00  0.00    +0.000 A 
ATOM      2  C   UNL     1       4.837   6.780  17.589  0.00  0.00    +0.000 A 
ATOM      3  N   UNL     1       5.593   5.632  17.627  0.00  0.00    +0.000 N 
ATOM      4  N   UNL     1       5.126   4.726  18.524  0.00  0.00    +0.000 NA
ATOM      5  C   UNL     1       4.003   5.276  18.972  0.00  0.00    +0.000 A 
ATOM      6  N   UNL     1       3.192   4.627  19.825  0.00  0.00    +0.000 N 
ATOM      7  H   UNL     1       3.370   3.635  19.934  0.00  0.00    +0.000 HD
ATOM      8  H   UNL     1       2.203   4.850  19.832  0.00  0.00    +0.000 HD
ENDROOT
BRANCH   1  13
ATOM      9  C   UNL     1      -0.373  10.484  19.494  0.00  0.00    +0.000 C 
ATOM     10  C   UNL     1       0.692   9.468  19.200  0.00  0.00    +0.000 A 
ATOM     11  C   UNL     1       1.278   9.375  17.934  0.00  0.00    +0.000 A 
ATOM     12  C   UNL     1       2.278   8.428  17.680  0.00  0.00    +0.000 A 
ATOM     13  C   UNL     1       2.717   7.558  18.689  0.00  0.00    +0.000 A 
ATOM     14  C   UNL     1       2.126   7.661  19.955  0.00  0.00    +0.000 A 
ATOM     15  C   UNL     1       1.118   8.597  20.207  0.00  0.00    +0.000 A 
ENDBRANCH   1  13
BRANCH   3  16
ATOM     16  S   UNL     1       7.070   5.473  16.729  0.00  0.00    +0.000 S 
ATOM     17  O   UNL     1       7.544   6.819  16.474  0.00  0.00    +0.000 OA
ATOM     18  O   UNL     1       7.867   4.508  17.468  0.00  0.00    +0.000 OA
BRANCH  16  19
ATOM     19  C   UNL     1       6.584   4.751  15.187  0.00  0.00    +0.000 A 
ATOM     20  C   UNL     1       5.344   4.118  15.073  0.00  0.00    +0.000 A 
ATOM     21  C   UNL     1       4.968   3.555  13.851  0.00  0.00    +0.000 A 
ATOM     22  C   UNL     1       5.821   3.627  12.741  0.00  0.00    +0.000 A 
ATOM     23  C   UNL     1       5.439   3.001  11.431  0.00  0.00    +0.000 C 
ATOM     24  C   UNL     1       7.048   4.292  12.863  0.00  0.00    +0.000 A 
ATOM     25  C   UNL     1       7.431   4.856  14.081  0.00  0.00    +0.000 A 
ENDBRANCH  16  19
ENDBRANCH   3  16
TORSDOF 3
ENDMDL
MODEL 2
REMARK VINA RESULT:      -8.1      0.070      1.425
REMARK  Name = 
REMARK  5 active torsions:
REMARK  status: ('A' for Active; 'I' for Inactive)
REMARK    1  A    between atoms: C_1  and  C_2
REMARK    2  A    between atoms: C_5  and  C_6
REMARK    3  A    between atoms: N_8  and  S_9
REMARK    4  A    between atoms: S_9  and  C_12
REMARK    5  A    between atoms: C_15  and  C_16
REMARK                            x       y       z     vdW  Elec       q    Type
REMARK                         _______ _______ _______ _____ _____    ______ ____
ROOT
ATOM      1  C   UNL     1       3.748   6.592  18.404  0.00  0.00    +0.000 A 
ATOM      2  C   UNL     1       4.831   6.814  17.575  0.00  0.00    +0.000 A 
ATOM      3  N   UNL     1       5.567   5.653  17.574  0.00  0.00    +0.000 N 
ATOM      4  N   UNL     1       5.072   4.718  18.425  0.00  0.00    +0.000 NA
ATOM      5  C   UNL     1       3.952   5.266  18.881  0.00  0.00    +0.000 A 
ATOM      6  N   UNL     1       3.119   4.595  19.694  0.00  0.00    +0.000 N 
ATOM      7  H   UNL     1       3.279   3.597  19.763  0.00  0.00    +0.000 HD
ATOM      8  H   UNL     1       2.134   4.835  19.697  0.00  0.00    +0.000 HD
ENDROOT
BRANCH   1  13
ATOM      9  C   UNL     1      -0.405  10.498  19.423  0.00  0.00    +0.000 C 
ATOM     10  C   UNL     1       0.680   9.489  19.180  0.00  0.00    +0.000 A 
ATOM     11  C   UNL     1       1.110   8.626  20.193  0.00  0.00    +0.000 A 
ATOM     12  C   UNL     1       2.116   7.684  19.946  0.00  0.00    +0.000 A 
ATOM     13  C   UNL     1       2.709   7.580  18.679  0.00  0.00    +0.000 A 
ATOM     14  C   UNL     1       2.269   8.447  17.669  0.00  0.00    +0.000 A 
ATOM     15  C   UNL     1       1.274   9.398  17.918  0.00  0.00    +0.000 A 
ENDBRANCH   1  13
BRANCH   3  16
ATOM     16  S   UNL     1       7.054   5.508  16.691  0.00  0.00    +0.000 S 
ATOM     17  O   UNL     1       7.520   6.857  16.443  0.00  0.00    +0.000 OA
ATOM     18  O   UNL     1       7.851   4.547  17.435  0.00  0.00    +0.000 OA
BRANCH  16  19
ATOM     19  C   UNL     1       6.589   4.785  15.142  0.00  0.00    +0.000 A 
ATOM     20  C   UNL     1       7.424   4.919  14.031  0.00  0.00    +0.000 A 
ATOM     21  C   UNL     1       7.051   4.341  12.815  0.00  0.00    +0.000 A 
ATOM     22  C   UNL     1       5.850   3.626  12.705  0.00  0.00    +0.000 A 
ATOM     23  C   UNL     1       5.425   3.025  11.396  0.00  0.00    +0.000 C 
ATOM     24  C   UNL     1       5.038   3.474  13.837  0.00  0.00    +0.000 A 
ATOM     25  C   UNL     1       5.404   4.049  15.054  0.00  0.00    +0.000 A 
ENDBRANCH  16  19
ENDBRANCH   3  16
TORSDOF 3
ENDMDL
MODEL 3
REMARK VINA RESULT:      -8.0      0.170      1.024
REMARK  Name = 
REMARK  5 active torsions:
REMARK  status: ('A' for Active; 'I' for Inactive)
REMARK    1  A    between atoms: C_1  and  C_2
REMARK    2  A    between atoms: C_5  and  C_6
REMARK    3  A    between atoms: N_8  and  S_9
REMARK    4  A    between atoms: S_9  and  C_12
REMARK    5  A    between atoms: C_15  and  C_16
REMARK                            x       y       z     vdW  Elec       q    Type
REMARK                         _______ _______ _______ _____ _____    ______ ____
ROOT
ATOM      1  C   UNL     1       3.627   6.648  18.391  0.00  0.00    +0.000 A 
ATOM      2  C   UNL     1       4.744   6.862  17.606  0.00  0.00    +0.000 A 
ATOM      3  N   UNL     1       5.436   5.675  17.578  0.00  0.00    +0.000 N 
ATOM      4  N   UNL     1       4.881   4.725  18.374  0.00  0.00    +0.000 NA
ATOM      5  C   UNL     1       3.768   5.297  18.818  0.00  0.00    +0.000 A 
ATOM      6  N   UNL     1       2.885   4.625  19.577  0.00  0.00    +0.000 N 
ATOM      7  H   UNL     1       3.006   3.619  19.608  0.00  0.00    +0.000 HD
ATOM      8  H   UNL     1       1.909   4.902  19.560  0.00  0.00    +0.000 HD
ENDROOT
BRANCH   1  13
ATOM      9  C   UNL     1      -0.351  10.682  19.589  0.00  0.00    +0.000 C 
ATOM     10  C   UNL     1       0.671   9.634  19.258  0.00  0.00    +0.000 A 
ATOM     11  C   UNL     1       1.242   9.553  17.984  0.00  0.00    +0.000 A 
ATOM     12  C   UNL     1       2.202   8.575  17.694  0.00  0.00    +0.000 A 
ATOM     13  C   UNL     1       2.616   7.662  18.675  0.00  0.00    +0.000 A 
ATOM     14  C   UNL     1       2.041   7.753  19.950  0.00  0.00    +0.000 A 
ATOM     15  C   UNL     1       1.073   8.720  20.236  0.00  0.00    +0.000 A 
ENDBRANCH   1  13
BRANCH   3  16
ATOM     16  S   UNL     1       6.945   5.510  16.736  0.00  0.00    +0.000 S 
ATOM     17  O   UNL     1       7.429   6.854  16.489  0.00  0.00    +0.000 OA
ATOM     18  O   UNL     1       7.714   4.549  17.509  0.00  0.00    +0.000 OA
BRANCH  16  19
ATOM     19  C   UNL     1       6.514   4.777  15.182  0.00  0.00    +0.000 A 
ATOM     20  C   UNL     1       7.391   4.873  14.099  0.00  0.00    +0.000 A 
ATOM     21  C   UNL     1       7.045   4.287  12.879  0.00  0.00    +0.000 A 
ATOM     22  C   UNL     1       5.830   3.602  12.736  0.00  0.00    +0.000 A 
ATOM     23  C   UNL     1       5.435   2.993  11.422  0.00  0.00    +0.000 C 
ATOM     24  C   UNL     1       4.975   3.488  13.841  0.00  0.00    +0.000 A 
ATOM     25  C   UNL     1       5.314   4.071  15.063  0.00  0.00    +0.000 A 
ENDBRANCH  16  19
ENDBRANCH   3  16
TORSDOF 3
ENDMDL
MODEL 4
REMARK VINA RESULT:      -8.0      0.496      1.118
REMARK  Name = 
REMARK  5 active torsions:
REMARK  status: ('A' for Active; 'I' for Inactive)
REMARK    1  A    between atoms: C_1  and  C_2
REMARK    2  A    between atoms: C_5  and  C_6
REMARK    3  A    between atoms: N_8  and  S_9
REMARK    4  A    between atoms: S_9  and  C_12
REMARK    5  A    between atoms: C_15  and  C_16
REMARK                            x       y       z     vdW  Elec       q    Type
REMARK                         _______ _______ _______ _____ _____    ______ ____
ROOT
ATOM      1  C   UNL     1       3.478   6.712  18.707  0.00  0.00    +0.000 A 
ATOM      2  C   UNL     1       4.640   6.919  17.988  0.00  0.00    +0.000 A 
ATOM      3  N   UNL     1       5.348   5.742  18.041  0.00  0.00    +0.000 N 
ATOM      4  N   UNL     1       4.756   4.809  18.829  0.00  0.00    +0.000 NA
ATOM      5  C   UNL     1       3.609   5.377  19.185  0.00  0.00    +0.000 A 
ATOM      6  N   UNL     1       2.689   4.716  19.906  0.00  0.00    +0.000 N 
ATOM      7  H   UNL     1       2.821   3.713  19.977  0.00  0.00    +0.000 HD
ATOM      8  H   UNL     1       1.713   4.977  19.819  0.00  0.00    +0.000 HD
ENDROOT
BRANCH   1  13
ATOM      9  C   UNL     1      -0.677  10.689  19.381  0.00  0.00    +0.000 C 
ATOM     10  C   UNL     1       0.408   9.663  19.227  0.00  0.00    +0.000 A 
ATOM     11  C   UNL     1       0.826   8.881  20.307  0.00  0.00    +0.000 A 
ATOM     12  C   UNL     1       1.833   7.921  20.144  0.00  0.00    +0.000 A 
ATOM     13  C   UNL     1       2.438   7.720  18.895  0.00  0.00    +0.000 A 
ATOM     14  C   UNL     1       2.011   8.507  17.817  0.00  0.00    +0.000 A 
ATOM     15  C   UNL     1       1.015   9.475  17.982  0.00  0.00    +0.000 A 
ENDBRANCH   1  13
BRANCH   3  16
ATOM     16  S   UNL     1       6.909   5.575  17.301  0.00  0.00    +0.000 S 
ATOM     17  O   UNL     1       7.425   6.917  17.116  0.00  0.00    +0.000 OA
ATOM     18  O   UNL     1       7.612   4.589  18.106  0.00  0.00    +0.000 OA
BRANCH  16  19
ATOM     19  C   UNL     1       6.579   4.879  15.707  0.00  0.00    +0.000 A 
ATOM     20  C   UNL     1       5.425   4.119  15.503  0.00  0.00    +0.000 A 
ATOM     21  C   UNL     1       5.170   3.578  14.240  0.00  0.00    +0.000 A 
ATOM     22  C   UNL     1       6.059   3.798  13.179  0.00  0.00    +0.000 A 
ATOM     23  C   UNL     1       5.811   3.199  11.825  0.00  0.00    +0.000 C 
ATOM     24  C   UNL     1       7.197   4.589  13.391  0.00  0.00    +0.000 A 
ATOM     25  C   UNL     1       7.458   5.131  14.650  0.00  0.00    +0.000 A 
ENDBRANCH  16  19
ENDBRANCH   3  16
TORSDOF 3
ENDMDL
MODEL 5
REMARK VINA RESULT:      -7.9      1.680      2.435
REMARK  Name = 
REMARK  5 active torsions:
REMARK  status: ('A' for Active; 'I' for Inactive)
REMARK    1  A    between atoms: C_1  and  C_2
REMARK    2  A    between atoms: C_5  and  C_6
REMARK    3  A    between atoms: N_8  and  S_9
REMARK    4  A    between atoms: S_9  and  C_12
REMARK    5  A    between atoms: C_15  and  C_16
REMARK                            x       y       z     vdW  Elec       q    Type
REMARK                         _______ _______ _______ _____ _____    ______ ____
ROOT
ATOM      1  C   UNL     1       2.521   6.624  19.518  0.00  0.00    +0.000 A 
ATOM      2  C   UNL     1       3.833   6.356  19.177  0.00  0.00    +0.000 A 
ATOM      3  N   UNL     1       4.046   5.026  19.455  0.00  0.00    +0.000 N 
ATOM      4  N   UNL     1       2.974   4.435  20.041  0.00  0.00    +0.000 NA
ATOM      5  C   UNL     1       2.044   5.383  20.029  0.00  0.00    +0.000 A 
ATOM      6  N   UNL     1       0.791   5.146  20.450  0.00  0.00    +0.000 N 
ATOM      7  H   UNL     1       0.542   4.170  20.570  0.00  0.00    +0.000 HD
ATOM      8  H   UNL     1       0.030   5.700  20.071  0.00  0.00    +0.000 HD
ENDROOT
BRANCH   1  13
ATOM      9  C   UNL     1      -0.030  11.782  18.871  0.00  0.00    +0.000 C 
ATOM     10  C   UNL     1       0.639  10.451  19.059  0.00  0.00    +0.000 A 
ATOM     11  C   UNL     1       0.672   9.825  20.309  0.00  0.00    +0.000 A 
ATOM     12  C   UNL     1       1.292   8.579  20.465  0.00  0.00    +0.000 A 
ATOM     13  C   UNL     1       1.885   7.930  19.373  0.00  0.00    +0.000 A 
ATOM     14  C   UNL     1       1.844   8.563  18.123  0.00  0.00    +0.000 A 
ATOM     15  C   UNL     1       1.238   9.814  17.969  0.00  0.00    +0.000 A 
ENDBRANCH   1  13
BRANCH   3  16
ATOM     16  S   UNL     1       5.593   4.275  19.219  0.00  0.00    +0.000 S 
ATOM     17  O   UNL     1       6.575   5.151  19.826  0.00  0.00    +0.000 OA
ATOM     18  O   UNL     1       5.422   2.898  19.655  0.00  0.00    +0.000 OA
BRANCH  16  19
ATOM     19  C   UNL     1       5.838   4.291  17.466  0.00  0.00    +0.000 A 
ATOM     20  C   UNL     1       4.777   3.985  16.610  0.00  0.00    +0.000 A 
ATOM     21  C   UNL     1       4.979   4.006  15.228  0.00  0.00    +0.000 A 
ATOM     22  C   UNL     1       6.234   4.335  14.696  0.00  0.00    +0.000 A 
ATOM     23  C   UNL     1       6.470   4.333  13.213  0.00  0.00    +0.000 C 
ATOM     24  C   UNL     1       7.280   4.669  15.567  0.00  0.00    +0.000 A 
ATOM     25  C   UNL     1       7.085   4.650  16.949  0.00  0.00    +0.000 A 
ENDBRANCH  16  19
ENDBRANCH   3  16
TORSDOF 3
ENDMDL
MODEL 6
REMARK VINA RESULT:      -7.9      1.680      2.232
REMARK  Name = 
REMARK  5 active torsions:
REMARK  status: ('A' for Active; 'I' for Inactive)
REMARK    1  A    between atoms: C_1  and  C_2
REMARK    2  A    between atoms: C_5  and  C_6
REMARK    3  A    between atoms: N_8  and  S_9
REMARK    4  A    between atoms: S_9  and  C_12
REMARK    5  A    between atoms: C_15  and  C_16
REMARK                            x       y       z     vdW  Elec       q    Type
REMARK                         _______ _______ _______ _____ _____    ______ ____
ROOT
ATOM      1  C   UNL     1       2.527   6.626  19.510  0.00  0.00    +0.000 A 
ATOM      2  C   UNL     1       3.839   6.358  19.168  0.00  0.00    +0.000 A 
ATOM      3  N   UNL     1       4.055   5.031  19.457  0.00  0.00    +0.000 N 
ATOM      4  N   UNL     1       2.986   4.442  20.050  0.00  0.00    +0.000 NA
ATOM      5  C   UNL     1       2.054   5.389  20.033  0.00  0.00    +0.000 A 
ATOM      6  N   UNL     1       0.802   5.152  20.459  0.00  0.00    +0.000 N 
ATOM      7  H   UNL     1       0.556   4.177  20.587  0.00  0.00    +0.000 HD
ATOM      8  H   UNL     1       0.039   5.701  20.077  0.00  0.00    +0.000 HD
ENDROOT
BRANCH   1  13
ATOM      9  C   UNL     1       0.022  11.818  18.967  0.00  0.00    +0.000 C 
ATOM     10  C   UNL     1       0.663  10.467  19.087  0.00  0.00    +0.000 A 
ATOM     11  C   UNL     1       1.233   9.832  17.980  0.00  0.00    +0.000 A 
ATOM     12  C   UNL     1       1.837   8.575  18.112  0.00  0.00    +0.000 A 
ATOM     13  C   UNL     1       1.888   7.929  19.356  0.00  0.00    +0.000 A 
ATOM     14  C   UNL     1       1.316   8.574  20.461  0.00  0.00    +0.000 A 
ATOM     15  C   UNL     1       0.702   9.823  20.328  0.00  0.00    +0.000 A 
ENDBRANCH   1  13
BRANCH   3  16
ATOM     16  S   UNL     1       5.603   4.281  19.223  0.00  0.00    +0.000 S 
ATOM     17  O   UNL     1       6.584   5.160  19.828  0.00  0.00    +0.000 OA
ATOM     18  O   UNL     1       5.433   2.905  19.662  0.00  0.00    +0.000 OA
BRANCH  16  19
ATOM     19  C   UNL     1       5.848   4.293  17.469  0.00  0.00    +0.000 A 
ATOM     20  C   UNL     1       4.788   3.984  16.614  0.00  0.00    +0.000 A 
ATOM     21  C   UNL     1       4.990   4.001  15.232  0.00  0.00    +0.000 A 
ATOM     22  C   UNL     1       6.245   4.332  14.699  0.00  0.00    +0.000 A 
ATOM     23  C   UNL     1       6.481   4.326  13.217  0.00  0.00    +0.000 C 
ATOM     24  C   UNL     1       7.290   4.670  15.570  0.00  0.00    +0.000 A 
ATOM     25  C   UNL     1       7.095   4.654  16.951  0.00  0.00    +0.000 A 
ENDBRANCH  16  19
ENDBRANCH   3  16
TORSDOF 3
ENDMDL
MODEL 7
REMARK VINA RESULT:      -7.9      1.667      2.588
REMARK  Name = 
REMARK  5 active torsions:
REMARK  status: ('A' for Active; 'I' for Inactive)
REMARK    1  A    between atoms: C_1  and  C_2
REMARK    2  A    between atoms: C_5  and  C_6
REMARK    3  A    between atoms: N_8  and  S_9
REMARK    4  A    between atoms: S_9  and  C_12
REMARK    5  A    between atoms: C_15  and  C_16
REMARK                            x       y       z     vdW  Elec       q    Type
REMARK                         _______ _______ _______ _____ _____    ______ ____
ROOT
ATOM      1  C   UNL     1       2.531   6.618  19.509  0.00  0.00    +0.000 A 
ATOM      2  C   UNL     1       3.847   6.365  19.172  0.00  0.00    +0.000 A 
ATOM      3  N   UNL     1       4.073   5.036  19.447  0.00  0.00    +0.000 N 
ATOM      4  N   UNL     1       3.005   4.432  20.027  0.00  0.00    +0.000 NA
ATOM      5  C   UNL     1       2.065   5.371  20.014  0.00  0.00    +0.000 A 
ATOM      6  N   UNL     1       0.812   5.120  20.430  0.00  0.00    +0.000 N 
ATOM      7  H   UNL     1       0.574   4.141  20.545  0.00  0.00    +0.000 HD
ATOM      8  H   UNL     1       0.048   5.667  20.049  0.00  0.00    +0.000 HD
ENDROOT
BRANCH   1  13
ATOM      9  C   UNL     1      -0.070  11.751  18.867  0.00  0.00    +0.000 C 
ATOM     10  C   UNL     1       0.611  10.427  19.054  0.00  0.00    +0.000 A 
ATOM     11  C   UNL     1       0.647   9.798  20.302  0.00  0.00    +0.000 A 
ATOM     12  C   UNL     1       1.279   8.558  20.457  0.00  0.00    +0.000 A 
ATOM     13  C   UNL     1       1.883   7.918  19.365  0.00  0.00    +0.000 A 
ATOM     14  C   UNL     1       1.839   8.554  18.117  0.00  0.00    +0.000 A 
ATOM     15  C   UNL     1       1.221   9.799  17.964  0.00  0.00    +0.000 A 
ENDBRANCH   1  13
BRANCH   3  16
ATOM     16  S   UNL     1       5.628   4.301  19.215  0.00  0.00    +0.000 S 
ATOM     17  O   UNL     1       6.601   5.195  19.812  0.00  0.00    +0.000 OA
ATOM     18  O   UNL     1       5.474   2.927  19.664  0.00  0.00    +0.000 OA
BRANCH  16  19
ATOM     19  C   UNL     1       5.870   4.305  17.461  0.00  0.00    +0.000 A 
ATOM     20  C   UNL     1       7.114   4.649  16.929  0.00  0.00    +0.000 A 
ATOM     21  C   UNL     1       7.297   4.644  15.544  0.00  0.00    +0.000 A 
ATOM     22  C   UNL     1       6.244   4.291  14.688  0.00  0.00    +0.000 A 
ATOM     23  C   UNL     1       6.420   4.310  13.197  0.00  0.00    +0.000 C 
ATOM     24  C   UNL     1       5.010   3.919  15.238  0.00  0.00    +0.000 A 
ATOM     25  C   UNL     1       4.820   3.922  16.621  0.00  0.00    +0.000 A 
ENDBRANCH  16  19
ENDBRANCH   3  16
TORSDOF 3
ENDMDL
MODEL 8
REMARK VINA RESULT:      -7.9      1.680      2.413
REMARK  Name = 
REMARK  5 active torsions:
REMARK  status: ('A' for Active; 'I' for Inactive)
REMARK    1  A    between atoms: C_1  and  C_2
REMARK    2  A    between atoms: C_5  and  C_6
REMARK    3  A    between atoms: N_8  and  S_9
REMARK    4  A    between atoms: S_9  and  C_12
REMARK    5  A    between atoms: C_15  and  C_16
REMARK                            x       y       z     vdW  Elec       q    Type
REMARK                         _______ _______ _______ _____ _____    ______ ____
ROOT
ATOM      1  C   UNL     1       2.533   6.639  19.502  0.00  0.00    +0.000 A 
ATOM      2  C   UNL     1       3.845   6.371  19.161  0.00  0.00    +0.000 A 
ATOM      3  N   UNL     1       4.065   5.047  19.459  0.00  0.00    +0.000 N 
ATOM      4  N   UNL     1       2.997   4.460  20.058  0.00  0.00    +0.000 NA
ATOM      5  C   UNL     1       2.063   5.405  20.034  0.00  0.00    +0.000 A 
ATOM      6  N   UNL     1       0.812   5.169  20.463  0.00  0.00    +0.000 N 
ATOM      7  H   UNL     1       0.568   4.194  20.598  0.00  0.00    +0.000 HD
ATOM      8  H   UNL     1       0.048   5.714  20.078  0.00  0.00    +0.000 HD
ENDROOT
BRANCH   1  13
ATOM      9  C   UNL     1       0.017  11.822  18.924  0.00  0.00    +0.000 C 
ATOM     10  C   UNL     1       0.661  10.473  19.053  0.00  0.00    +0.000 A 
ATOM     11  C   UNL     1       1.251   9.841  17.954  0.00  0.00    +0.000 A 
ATOM     12  C   UNL     1       1.857   8.586  18.095  0.00  0.00    +0.000 A 
ATOM     13  C   UNL     1       1.892   7.940  19.339  0.00  0.00    +0.000 A 
ATOM     14  C   UNL     1       1.301   8.582  20.435  0.00  0.00    +0.000 A 
ATOM     15  C   UNL     1       0.684   9.829  20.294  0.00  0.00    +0.000 A 
ENDBRANCH   1  13
BRANCH   3  16
ATOM     16  S   UNL     1       5.613   4.298  19.229  0.00  0.00    +0.000 S 
ATOM     17  O   UNL     1       6.593   5.182  19.830  0.00  0.00    +0.000 OA
ATOM     18  O   UNL     1       5.446   2.925  19.676  0.00  0.00    +0.000 OA
BRANCH  16  19
ATOM     19  C   UNL     1       5.859   4.301  17.476  0.00  0.00    +0.000 A 
ATOM     20  C   UNL     1       7.102   4.656  16.946  0.00  0.00    +0.000 A 
ATOM     21  C   UNL     1       7.288   4.651  15.562  0.00  0.00    +0.000 A 
ATOM     22  C   UNL     1       6.240   4.288  14.704  0.00  0.00    +0.000 A 
ATOM     23  C   UNL     1       6.420   4.306  13.213  0.00  0.00    +0.000 C 
ATOM     24  C   UNL     1       5.008   3.906  15.251  0.00  0.00    +0.000 A 
ATOM     25  C   UNL     1       4.815   3.909  16.634  0.00  0.00    +0.000 A 
ENDBRANCH  16  19
ENDBRANCH   3  16
TORSDOF 3
ENDMDL
MODEL 9
REMARK VINA RESULT:      -7.8      3.828      8.253
REMARK  Name = 
REMARK  5 active torsions:
REMARK  status: ('A' for Active; 'I' for Inactive)
REMARK    1  A    between atoms: C_1  and  C_2
REMARK    2  A    between atoms: C_5  and  C_6
REMARK    3  A    between atoms: N_8  and  S_9
REMARK    4  A    between atoms: S_9  and  C_12
REMARK    5  A    between atoms: C_15  and  C_16
REMARK                            x       y       z     vdW  Elec       q    Type
REMARK                         _______ _______ _______ _____ _____    ______ ____
ROOT
ATOM      1  C   UNL     1       2.584   7.542  18.706  0.00  0.00    +0.000 A 
ATOM      2  C   UNL     1       2.366   8.852  18.321  0.00  0.00    +0.000 A 
ATOM      3  N   UNL     1       1.625   9.435  19.322  0.00  0.00    +0.000 N 
ATOM      4  N   UNL     1       1.273   8.556  20.295  0.00  0.00    +0.000 NA
ATOM      5  C   UNL     1       1.894   7.434  19.947  0.00  0.00    +0.000 A 
ATOM      6  N   UNL     1       1.862   6.340  20.726  0.00  0.00    +0.000 N 
ATOM      7  H   UNL     1       1.528   6.483  21.672  0.00  0.00    +0.000 HD
ATOM      8  H   UNL     1       2.627   5.677  20.676  0.00  0.00    +0.000 HD
ENDROOT
BRANCH   1  13
ATOM      9  C   UNL     1       5.648   3.726  15.610  0.00  0.00    +0.000 C 
ATOM     10  C   UNL     1       4.835   4.704  16.407  0.00  0.00    +0.000 A 
ATOM     11  C   UNL     1       3.722   4.291  17.147  0.00  0.00    +0.000 A 
ATOM     12  C   UNL     1       2.981   5.216  17.894  0.00  0.00    +0.000 A 
ATOM     13  C   UNL     1       3.339   6.571  17.920  0.00  0.00    +0.000 A 
ATOM     14  C   UNL     1       4.457   6.975  17.178  0.00  0.00    +0.000 A 
ATOM     15  C   UNL     1       5.191   6.056  16.421  0.00  0.00    +0.000 A 
ENDBRANCH   1  13
BRANCH   3  16
ATOM     16  S   UNL     1       1.082  11.081  19.223  0.00  0.00    +0.000 S 
ATOM     17  O   UNL     1       1.077  11.596  20.578  0.00  0.00    +0.000 OA
ATOM     18  O   UNL     1       1.886  11.689  18.176  0.00  0.00    +0.000 OA
BRANCH  16  19
ATOM     19  C   UNL     1      -0.594  10.968  18.663  0.00  0.00    +0.000 A 
ATOM     20  C   UNL     1      -0.952   9.997  17.725  0.00  0.00    +0.000 A 
ATOM     21  C   UNL     1      -2.278   9.912  17.293  0.00  0.00    +0.000 A 
ATOM     22  C   UNL     1      -3.249  10.789  17.797  0.00  0.00    +0.000 A 
ATOM     23  C   UNL     1      -4.671  10.726  17.319  0.00  0.00    +0.000 C 
ATOM     24  C   UNL     1      -2.880  11.738  18.760  0.00  0.00    +0.000 A 
ATOM     25  C   UNL     1      -1.557  11.828  19.196  0.00  0.00    +0.000 A 
ENDBRANCH  16  19
ENDBRANCH   3  16
TORSDOF 3
ENDMDL
