MODEL 1
REMARK VINA RESULT:      -8.0      0.000      0.000
REMARK  Name = 
REMARK  7 active torsions:
REMARK  status: ('A' for Active; 'I' for Inactive)
REMARK    1  A    between atoms: N_1  and  S_2
REMARK    2  A    between atoms: S_2  and  N_5
REMARK    3  A    between atoms: C_11  and  C_12
REMARK    4  A    between atoms: C_12  and  O_13
REMARK    5  A    between atoms: O_13  and  C_14
REMARK    6  A    between atoms: C_18  and  O_19
REMARK    7  A    between atoms: O_19  and  C_20
REMARK                            x       y       z     vdW  Elec       q    Type
REMARK                         _______ _______ _______ _____ _____    ______ ____
ROOT
ATOM      1  N   UNL     1       6.412   6.072  16.903  0.00  0.00    +0.000 NA
ATOM      2  C   UNL     1       5.034   6.563  16.640  0.00  0.00    +0.000 C 
ATOM      3  C   UNL     1       3.984   5.638  17.243  0.00  0.00    +0.000 C 
ATOM      4  C   UNL     1       4.245   5.377  18.716  0.00  0.00    +0.000 C 
ATOM      5  C   UNL     1       5.693   5.078  19.073  0.00  0.00    +0.000 C 
ATOM      6  C   UNL     1       6.666   6.030  18.374  0.00  0.00    +0.000 C 
ATOM      7  C   UNL     1       3.369   5.992  19.811  0.00  0.00    +0.000 C 
ATOM      8  C   UNL     1       3.198   4.574  19.417  0.00  0.00    +0.000 C 
ATOM      9  F   UNL     1       2.070   4.162  18.741  0.00  0.00    +0.000 F 
ATOM     10  F   UNL     1       3.547   3.564  20.281  0.00  0.00    +0.000 F 
ENDROOT
BRANCH   1  11
ATOM     11  S   UNL     1       6.950   4.715  16.067  0.00  0.00    +0.000 S 
ATOM     12  O   UNL     1       5.848   3.896  15.646  0.00  0.00    +0.000 OA
ATOM     13  O   UNL     1       8.088   4.173  16.771  0.00  0.00    +0.000 OA
BRANCH  11  14
ATOM     14  N   UNL     1       7.557   5.434  14.696  0.00  0.00    +0.000 NA
ATOM     15  H   UNL     1       8.543   5.643  14.856  0.00  0.00    +0.000 HD
ATOM     16  H   UNL     1       7.028   6.286  14.515  0.00  0.00    +0.000 HD
ENDBRANCH  11  14
ENDBRANCH   1  11
BRANCH   7  17
ATOM     17  C   UNL     1       2.275   6.965  19.531  0.00  0.00    +0.000 C 
BRANCH  17  18
ATOM     18  O   UNL     1       1.815   7.475  20.783  0.00  0.00    +0.000 OA
BRANCH  18  19
ATOM     19  C   UNL     1       1.156   8.672  20.739  0.00  0.00    +0.000 A 
ATOM     20  C   UNL     1       0.874   9.386  19.582  0.00  0.00    +0.000 A 
ATOM     21  C   UNL     1       0.172  10.567  19.711  0.00  0.00    +0.000 A 
ATOM     22  N   UNL     1      -0.254  11.060  20.891  0.00  0.00    +0.000 NA
ATOM     23  C   UNL     1       0.009  10.350  22.004  0.00  0.00    +0.000 A 
ATOM     24  C   UNL     1       0.713   9.154  21.973  0.00  0.00    +0.000 A 
BRANCH  23  25
ATOM     25  O   UNL     1      -0.444  10.960  23.132  0.00  0.00    +0.000 OA
BRANCH  25  26
ATOM     26  C   UNL     1      -1.481  11.889  22.923  0.00  0.00    +0.000 C 
ATOM     27  F   UNL     1      -2.598  11.435  23.546  0.00  0.00    +0.000 F 
ATOM     28  F   UNL     1      -1.131  13.041  23.550  0.00  0.00    +0.000 F 
ENDBRANCH  25  26
ENDBRANCH  23  25
ENDBRANCH  18  19
ENDBRANCH  17  18
ENDBRANCH   7  17
TORSDOF 7
ENDMDL
MODEL 2
REMARK VINA RESULT:      -7.9      2.392      2.858
REMARK  Name = 
REMARK  7 active torsions:
REMARK  status: ('A' for Active; 'I' for Inactive)
REMARK    1  A    between atoms: N_1  and  S_2
REMARK    2  A    between atoms: S_2  and  N_5
REMARK    3  A    between atoms: C_11  and  C_12
REMARK    4  A    between atoms: C_12  and  O_13
REMARK    5  A    between atoms: O_13  and  C_14
REMARK    6  A    between atoms: C_18  and  O_19
REMARK    7  A    between atoms: O_19  and  C_20
REMARK                            x       y       z     vdW  Elec       q    Type
REMARK                         _______ _______ _______ _____ _____    ______ ____
ROOT
ATOM      1  N   UNL     1       6.548   6.129  17.478  0.00  0.00    +0.000 NA
ATOM      2  C   UNL     1       5.465   7.071  17.093  0.00  0.00    +0.000 C 
ATOM      3  C   UNL     1       4.096   6.405  17.148  0.00  0.00    +0.000 C 
ATOM      4  C   UNL     1       3.849   5.741  18.491  0.00  0.00    +0.000 C 
ATOM      5  C   UNL     1       5.015   4.933  19.038  0.00  0.00    +0.000 C 
ATOM      6  C   UNL     1       6.348   5.670  18.884  0.00  0.00    +0.000 C 
ATOM      7  C   UNL     1       2.867   6.326  19.511  0.00  0.00    +0.000 C 
ATOM      8  C   UNL     1       2.483   5.164  18.676  0.00  0.00    +0.000 C 
ATOM      9  F   UNL     1       1.535   5.292  17.685  0.00  0.00    +0.000 F 
ATOM     10  F   UNL     1       2.314   3.924  19.244  0.00  0.00    +0.000 F 
ENDROOT
BRANCH   1  11
ATOM     11  S   UNL     1       6.964   4.905  16.401  0.00  0.00    +0.000 S 
ATOM     12  O   UNL     1       7.632   5.437  15.246  0.00  0.00    +0.000 OA
ATOM     13  O   UNL     1       5.845   3.999  16.294  0.00  0.00    +0.000 OA
BRANCH  11  14
ATOM     14  N   UNL     1       8.119   4.107  17.292  0.00  0.00    +0.000 NA
ATOM     15  H   UNL     1       8.174   3.146  16.953  0.00  0.00    +0.000 HD
ATOM     16  H   UNL     1       7.848   4.134  18.273  0.00  0.00    +0.000 HD
ENDBRANCH  11  14
ENDBRANCH   1  11
BRANCH   7  17
ATOM     17  C   UNL     1       2.168   7.628  19.316  0.00  0.00    +0.000 C 
BRANCH  17  18
ATOM     18  O   UNL     1       1.755   8.096  20.601  0.00  0.00    +0.000 OA
BRANCH  18  19
ATOM     19  C   UNL     1       0.862   9.131  20.605  0.00  0.00    +0.000 A 
ATOM     20  C   UNL     1       0.476   9.847  21.731  0.00  0.00    +0.000 A 
ATOM     21  C   UNL     1      -0.416  10.885  21.557  0.00  0.00    +0.000 A 
ATOM     22  N   UNL     1      -0.928  11.241  20.362  0.00  0.00    +0.000 NA
ATOM     23  C   UNL     1      -0.532  10.551  19.275  0.00  0.00    +0.000 A 
ATOM     24  C   UNL     1       0.357   9.489  19.353  0.00  0.00    +0.000 A 
BRANCH  23  25
ATOM     25  O   UNL     1      -1.136  10.982  18.134  0.00  0.00    +0.000 OA
BRANCH  25  26
ATOM     26  C   UNL     1      -1.745   9.968  17.371  0.00  0.00    +0.000 C 
ATOM     27  F   UNL     1      -2.917   9.629  17.965  0.00  0.00    +0.000 F 
ATOM     28  F   UNL     1      -2.065  10.502  16.165  0.00  0.00    +0.000 F 
ENDBRANCH  25  26
ENDBRANCH  23  25
ENDBRANCH  18  19
ENDBRANCH  17  18
ENDBRANCH   7  17
TORSDOF 7
ENDMDL
MODEL 3
REMARK VINA RESULT:      -7.9      0.966      1.118
REMARK  Name = 
REMARK  7 active torsions:
REMARK  status: ('A' for Active; 'I' for Inactive)
REMARK    1  A    between atoms: N_1  and  S_2
REMARK    2  A    between atoms: S_2  and  N_5
REMARK    3  A    between atoms: C_11  and  C_12
REMARK    4  A    between atoms: C_12  and  O_13
REMARK    5  A    between atoms: O_13  and  C_14
REMARK    6  A    between atoms: C_18  and  O_19
REMARK    7  A    between atoms: O_19  and  C_20
REMARK                            x       y       z     vdW  Elec       q    Type
REMARK                         _______ _______ _______ _____ _____    ______ ____
ROOT
ATOM      1  N   UNL     1       6.575   6.092  17.484  0.00  0.00    +0.000 NA
ATOM      2  C   UNL     1       5.465   7.006  17.109  0.00  0.00    +0.000 C 
ATOM      3  C   UNL     1       4.116   6.299  17.159  0.00  0.00    +0.000 C 
ATOM      4  C   UNL     1       3.890   5.615  18.495  0.00  0.00    +0.000 C 
ATOM      5  C   UNL     1       5.080   4.836  19.033  0.00  0.00    +0.000 C 
ATOM      6  C   UNL     1       6.390   5.613  18.886  0.00  0.00    +0.000 C 
ATOM      7  C   UNL     1       2.893   6.160  19.522  0.00  0.00    +0.000 C 
ATOM      8  C   UNL     1       2.542   4.996  18.676  0.00  0.00    +0.000 C 
ATOM      9  F   UNL     1       1.590   5.106  17.687  0.00  0.00    +0.000 F 
ATOM     10  F   UNL     1       2.410   3.746  19.232  0.00  0.00    +0.000 F 
ENDROOT
BRANCH   1  11
ATOM     11  S   UNL     1       7.026   4.892  16.395  0.00  0.00    +0.000 S 
ATOM     12  O   UNL     1       7.697   5.453  15.255  0.00  0.00    +0.000 OA
ATOM     13  O   UNL     1       5.925   3.967  16.261  0.00  0.00    +0.000 OA
BRANCH  11  14
ATOM     14  N   UNL     1       8.186   4.103  17.287  0.00  0.00    +0.000 NA
ATOM     15  H   UNL     1       8.974   4.738  17.417  0.00  0.00    +0.000 HD
ATOM     16  H   UNL     1       8.471   3.266  16.781  0.00  0.00    +0.000 HD
ENDBRANCH  11  14
ENDBRANCH   1  11
BRANCH   7  17
ATOM     17  C   UNL     1       2.155   7.443  19.342  0.00  0.00    +0.000 C 
BRANCH  17  18
ATOM     18  O   UNL     1       1.818   7.937  20.638  0.00  0.00    +0.000 OA
BRANCH  18  19
ATOM     19  C   UNL     1       0.953   8.996  20.672  0.00  0.00    +0.000 A 
ATOM     20  C   UNL     1       0.659   9.821  19.595  0.00  0.00    +0.000 A 
ATOM     21  C   UNL     1      -0.261  10.830  19.791  0.00  0.00    +0.000 A 
ATOM     22  N   UNL     1      -0.887  11.055  20.964  0.00  0.00    +0.000 NA
ATOM     23  C   UNL     1      -0.608  10.237  21.996  0.00  0.00    +0.000 A 
ATOM     24  C   UNL     1       0.307   9.199  21.894  0.00  0.00    +0.000 A 
BRANCH  23  25
ATOM     25  O   UNL     1      -1.278  10.579  23.130  0.00  0.00    +0.000 OA
BRANCH  25  26
ATOM     26  C   UNL     1      -1.915  11.834  23.081  0.00  0.00    +0.000 C 
ATOM     27  F   UNL     1      -2.970  11.813  23.934  0.00  0.00    +0.000 F 
ATOM     28  F   UNL     1      -1.044  12.754  23.567  0.00  0.00    +0.000 F 
ENDBRANCH  25  26
ENDBRANCH  23  25
ENDBRANCH  18  19
ENDBRANCH  17  18
ENDBRANCH   7  17
TORSDOF 7
ENDMDL
MODEL 4
REMARK VINA RESULT:      -7.9      1.995      2.407
REMARK  Name = 
REMARK  7 active torsions:
REMARK  status: ('A' for Active; 'I' for Inactive)
REMARK    1  A    between atoms: N_1  and  S_2
REMARK    2  A    between atoms: S_2  and  N_5
REMARK    3  A    between atoms: C_11  and  C_12
REMARK    4  A    between atoms: C_12  and  O_13
REMARK    5  A    between atoms: O_13  and  C_14
REMARK    6  A    between atoms: C_18  and  O_19
REMARK    7  A    between atoms: O_19  and  C_20
REMARK                            x       y       z     vdW  Elec       q    Type
REMARK                         _______ _______ _______ _____ _____    ______ ____
ROOT
ATOM      1  N   UNL     1       6.525   5.878  17.842  0.00  0.00    +0.000 NA
ATOM      2  C   UNL     1       5.456   6.858  17.518  0.00  0.00    +0.000 C 
ATOM      3  C   UNL     1       4.084   6.197  17.469  0.00  0.00    +0.000 C 
ATOM      4  C   UNL     1       3.797   5.408  18.734  0.00  0.00    +0.000 C 
ATOM      5  C   UNL     1       4.945   4.544  19.234  0.00  0.00    +0.000 C 
ATOM      6  C   UNL     1       6.283   5.286  19.191  0.00  0.00    +0.000 C 
ATOM      7  C   UNL     1       2.787   5.896  19.777  0.00  0.00    +0.000 C 
ATOM      8  C   UNL     1       2.425   4.822  18.823  0.00  0.00    +0.000 C 
ATOM      9  F   UNL     1       1.506   5.050  17.822  0.00  0.00    +0.000 F 
ATOM     10  F   UNL     1       2.237   3.534  19.264  0.00  0.00    +0.000 F 
ENDROOT
BRANCH   1  11
ATOM     11  S   UNL     1       6.969   4.762  16.664  0.00  0.00    +0.000 S 
ATOM     12  O   UNL     1       5.835   4.006  16.214  0.00  0.00    +0.000 OA
ATOM     13  O   UNL     1       8.199   4.130  17.082  0.00  0.00    +0.000 OA
BRANCH  11  14
ATOM     14  N   UNL     1       7.378   5.789  15.422  0.00  0.00    +0.000 NA
ATOM     15  H   UNL     1       8.390   5.921  15.438  0.00  0.00    +0.000 HD
ATOM     16  H   UNL     1       6.892   6.674  15.559  0.00  0.00    +0.000 HD
ENDBRANCH  11  14
ENDBRANCH   1  11
BRANCH   7  17
ATOM     17  C   UNL     1       2.096   7.214  19.690  0.00  0.00    +0.000 C 
BRANCH  17  18
ATOM     18  O   UNL     1       1.546   7.503  20.975  0.00  0.00    +0.000 OA
BRANCH  18  19
ATOM     19  C   UNL     1       0.864   8.683  21.086  0.00  0.00    +0.000 A 
ATOM     20  C   UNL     1       0.273   9.156  22.250  0.00  0.00    +0.000 A 
ATOM     21  C   UNL     1      -0.355  10.384  22.198  0.00  0.00    +0.000 A 
ATOM     22  N   UNL     1      -0.423  11.144  21.087  0.00  0.00    +0.000 NA
ATOM     23  C   UNL     1       0.170  10.683  19.969  0.00  0.00    +0.000 A 
ATOM     24  C   UNL     1       0.820   9.458  19.925  0.00  0.00    +0.000 A 
BRANCH  23  25
ATOM     25  O   UNL     1       0.010  11.522  18.910  0.00  0.00    +0.000 OA
BRANCH  25  26
ATOM     26  C   UNL     1      -1.325  11.711  18.505  0.00  0.00    +0.000 C 
ATOM     27  F   UNL     1      -1.339  12.583  17.464  0.00  0.00    +0.000 F 
ATOM     28  F   UNL     1      -1.777  10.526  18.022  0.00  0.00    +0.000 F 
ENDBRANCH  25  26
ENDBRANCH  23  25
ENDBRANCH  18  19
ENDBRANCH  17  18
ENDBRANCH   7  17
TORSDOF 7
ENDMDL
MODEL 5
REMARK VINA RESULT:      -7.9      2.164      2.550
REMARK  Name = 
REMARK  7 active torsions:
REMARK  status: ('A' for Active; 'I' for Inactive)
REMARK    1  A    between atoms: N_1  and  S_2
REMARK    2  A    between atoms: S_2  and  N_5
REMARK    3  A    between atoms: C_11  and  C_12
REMARK    4  A    between atoms: C_12  and  O_13
REMARK    5  A    between atoms: O_13  and  C_14
REMARK    6  A    between atoms: C_18  and  O_19
REMARK    7  A    between atoms: O_19  and  C_20
REMARK                            x       y       z     vdW  Elec       q    Type
REMARK                         _______ _______ _______ _____ _____    ______ ____
ROOT
ATOM      1  N   UNL     1       6.234   5.838  17.250  0.00  0.00    +0.000 NA
ATOM      2  C   UNL     1       4.823   6.226  16.987  0.00  0.00    +0.000 C 
ATOM      3  C   UNL     1       3.849   5.152  17.455  0.00  0.00    +0.000 C 
ATOM      4  C   UNL     1       4.094   4.765  18.903  0.00  0.00    +0.000 C 
ATOM      5  C   UNL     1       5.553   4.564  19.282  0.00  0.00    +0.000 C 
ATOM      6  C   UNL     1       6.451   5.668  18.717  0.00  0.00    +0.000 C 
ATOM      7  C   UNL     1       3.134   5.182  20.022  0.00  0.00    +0.000 C 
ATOM      8  C   UNL     1       3.108   3.802  19.481  0.00  0.00    +0.000 C 
ATOM      9  F   UNL     1       2.043   3.362  18.727  0.00  0.00    +0.000 F 
ATOM     10  F   UNL     1       3.527   2.745  20.252  0.00  0.00    +0.000 F 
ENDROOT
BRANCH   1  11
ATOM     11  S   UNL     1       6.920   4.629  16.303  0.00  0.00    +0.000 S 
ATOM     12  O   UNL     1       5.920   3.718  15.822  0.00  0.00    +0.000 OA
ATOM     13  O   UNL     1       8.126   4.175  16.954  0.00  0.00    +0.000 OA
BRANCH  11  14
ATOM     14  N   UNL     1       7.414   5.526  14.992  0.00  0.00    +0.000 NA
ATOM     15  H   UNL     1       7.964   6.314  15.334  0.00  0.00    +0.000 HD
ATOM     16  H   UNL     1       6.588   5.847  14.489  0.00  0.00    +0.000 HD
ENDBRANCH  11  14
ENDBRANCH   1  11
BRANCH   7  17
ATOM     17  C   UNL     1       1.961   6.075  19.800  0.00  0.00    +0.000 C 
BRANCH  17  18
ATOM     18  O   UNL     1       2.417   7.424  19.899  0.00  0.00    +0.000 OA
BRANCH  18  19
ATOM     19  C   UNL     1       1.470   8.358  20.211  0.00  0.00    +0.000 A 
ATOM     20  C   UNL     1       0.865   8.498  21.454  0.00  0.00    +0.000 A 
ATOM     21  C   UNL     1      -0.054   9.515  21.610  0.00  0.00    +0.000 A 
ATOM     22  N   UNL     1      -0.393  10.376  20.630  0.00  0.00    +0.000 NA
ATOM     23  C   UNL     1       0.213  10.242  19.434  0.00  0.00    +0.000 A 
ATOM     24  C   UNL     1       1.146   9.247  19.182  0.00  0.00    +0.000 A 
BRANCH  23  25
ATOM     25  O   UNL     1      -0.230  11.147  18.520  0.00  0.00    +0.000 OA
BRANCH  25  26
ATOM     26  C   UNL     1      -1.518  10.889  18.013  0.00  0.00    +0.000 C 
ATOM     27  F   UNL     1      -1.933  11.979  17.319  0.00  0.00    +0.000 F 
ATOM     28  F   UNL     1      -1.407   9.878  17.114  0.00  0.00    +0.000 F 
ENDBRANCH  25  26
ENDBRANCH  23  25
ENDBRANCH  18  19
ENDBRANCH  17  18
ENDBRANCH   7  17
TORSDOF 7
ENDMDL
MODEL 6
REMARK VINA RESULT:      -7.7      1.366      1.659
REMARK  Name = 
REMARK  7 active torsions:
REMARK  status: ('A' for Active; 'I' for Inactive)
REMARK    1  A    between atoms: N_1  and  S_2
REMARK    2  A    between atoms: S_2  and  N_5
REMARK    3  A    between atoms: C_11  and  C_12
REMARK    4  A    between atoms: C_12  and  O_13
REMARK    5  A    between atoms: O_13  and  C_14
REMARK    6  A    between atoms: C_18  and  O_19
REMARK    7  A    between atoms: O_19  and  C_20
REMARK                            x       y       z     vdW  Elec       q    Type
REMARK                         _______ _______ _______ _____ _____    ______ ____
ROOT
ATOM      1  N   UNL     1       5.837   5.740  17.579  0.00  0.00    +0.000 NA
ATOM      2  C   UNL     1       4.480   6.337  17.481  0.00  0.00    +0.000 C 
ATOM      3  C   UNL     1       3.390   5.289  17.664  0.00  0.00    +0.000 C 
ATOM      4  C   UNL     1       3.591   4.488  18.939  0.00  0.00    +0.000 C 
ATOM      5  C   UNL     1       5.018   4.031  19.199  0.00  0.00    +0.000 C 
ATOM      6  C   UNL     1       6.035   5.143  18.933  0.00  0.00    +0.000 C 
ATOM      7  C   UNL     1       2.686   4.678  20.160  0.00  0.00    +0.000 C 
ATOM      8  C   UNL     1       2.503   3.516  19.259  0.00  0.00    +0.000 C 
ATOM      9  F   UNL     1       1.393   3.423  18.448  0.00  0.00    +0.000 F 
ATOM     10  F   UNL     1       2.799   2.246  19.692  0.00  0.00    +0.000 F 
ENDROOT
BRANCH   1  11
ATOM     11  S   UNL     1       6.380   4.777  16.311  0.00  0.00    +0.000 S 
ATOM     12  O   UNL     1       6.725   5.573  15.167  0.00  0.00    +0.000 OA
ATOM     13  O   UNL     1       5.512   3.626  16.214  0.00  0.00    +0.000 OA
BRANCH  11  14
ATOM     14  N   UNL     1       7.811   4.222  16.952  0.00  0.00    +0.000 NA
ATOM     15  H   UNL     1       7.636   3.311  17.378  0.00  0.00    +0.000 HD
ATOM     16  H   UNL     1       8.138   4.893  17.645  0.00  0.00    +0.000 HD
ENDBRANCH  11  14
ENDBRANCH   1  11
BRANCH   7  17
ATOM     17  C   UNL     1       1.623   5.719  20.235  0.00  0.00    +0.000 C 
BRANCH  17  18
ATOM     18  O   UNL     1       2.254   6.964  20.536  0.00  0.00    +0.000 OA
BRANCH  18  19
ATOM     19  C   UNL     1       1.653   8.082  20.029  0.00  0.00    +0.000 A 
ATOM     20  C   UNL     1       1.808   8.553  18.732  0.00  0.00    +0.000 A 
ATOM     21  C   UNL     1       1.104   9.684  18.371  0.00  0.00    +0.000 A 
ATOM     22  N   UNL     1       0.278  10.350  19.202  0.00  0.00    +0.000 NA
ATOM     23  C   UNL     1       0.121   9.873  20.452  0.00  0.00    +0.000 A 
ATOM     24  C   UNL     1       0.791   8.746  20.906  0.00  0.00    +0.000 A 
BRANCH  23  25
ATOM     25  O   UNL     1      -0.711  10.643  21.204  0.00  0.00    +0.000 OA
BRANCH  25  26
ATOM     26  C   UNL     1      -0.409  10.667  22.579  0.00  0.00    +0.000 C 
ATOM     27  F   UNL     1      -0.814  11.859  23.087  0.00  0.00    +0.000 F 
ATOM     28  F   UNL     1      -1.167   9.715  23.180  0.00  0.00    +0.000 F 
ENDBRANCH  25  26
ENDBRANCH  23  25
ENDBRANCH  18  19
ENDBRANCH  17  18
ENDBRANCH   7  17
TORSDOF 7
ENDMDL
MODEL 7
REMARK VINA RESULT:      -7.7      1.203      1.273
REMARK  Name = 
REMARK  7 active torsions:
REMARK  status: ('A' for Active; 'I' for Inactive)
REMARK    1  A    between atoms: N_1  and  S_2
REMARK    2  A    between atoms: S_2  and  N_5
REMARK    3  A    between atoms: C_11  and  C_12
REMARK    4  A    between atoms: C_12  and  O_13
REMARK    5  A    between atoms: O_13  and  C_14
REMARK    6  A    between atoms: C_18  and  O_19
REMARK    7  A    between atoms: O_19  and  C_20
REMARK                            x       y       z     vdW  Elec       q    Type
REMARK                         _______ _______ _______ _____ _____    ______ ____
ROOT
ATOM      1  N   UNL     1       6.137   5.738  17.577  0.00  0.00    +0.000 NA
ATOM      2  C   UNL     1       4.763   6.214  17.274  0.00  0.00    +0.000 C 
ATOM      3  C   UNL     1       3.729   5.114  17.484  0.00  0.00    +0.000 C 
ATOM      4  C   UNL     1       3.846   4.491  18.863  0.00  0.00    +0.000 C 
ATOM      5  C   UNL     1       5.264   4.179  19.315  0.00  0.00    +0.000 C 
ATOM      6  C   UNL     1       6.230   5.326  19.009  0.00  0.00    +0.000 C 
ATOM      7  C   UNL     1       2.808   4.756  19.958  0.00  0.00    +0.000 C 
ATOM      8  C   UNL     1       2.795   3.484  19.199  0.00  0.00    +0.000 C 
ATOM      9  F   UNL     1       1.785   3.208  18.304  0.00  0.00    +0.000 F 
ATOM     10  F   UNL     1       3.125   2.301  19.817  0.00  0.00    +0.000 F 
ENDROOT
BRANCH   1  11
ATOM     11  S   UNL     1       6.871   4.673  16.500  0.00  0.00    +0.000 S 
ATOM     12  O   UNL     1       5.905   3.796  15.901  0.00  0.00    +0.000 OA
ATOM     13  O   UNL     1       8.085   4.181  17.108  0.00  0.00    +0.000 OA
BRANCH  11  14
ATOM     14  N   UNL     1       7.348   5.735  15.313  0.00  0.00    +0.000 NA
ATOM     15  H   UNL     1       6.537   6.291  15.038  0.00  0.00    +0.000 HD
ATOM     16  H   UNL     1       7.708   5.201  14.525  0.00  0.00    +0.000 HD
ENDBRANCH  11  14
ENDBRANCH   1  11
BRANCH   7  17
ATOM     17  C   UNL     1       1.678   5.715  19.796  0.00  0.00    +0.000 C 
BRANCH  17  18
ATOM     18  O   UNL     1       1.776   6.683  20.841  0.00  0.00    +0.000 OA
BRANCH  18  19
ATOM     19  C   UNL     1       1.541   7.981  20.483  0.00  0.00    +0.000 A 
ATOM     20  C   UNL     1       1.601   8.474  19.185  0.00  0.00    +0.000 A 
ATOM     21  C   UNL     1       1.306   9.808  18.991  0.00  0.00    +0.000 A 
ATOM     22  N   UNL     1       0.963  10.652  19.985  0.00  0.00    +0.000 NA
ATOM     23  C   UNL     1       0.890  10.158  21.236  0.00  0.00    +0.000 A 
ATOM     24  C   UNL     1       1.174   8.832  21.528  0.00  0.00    +0.000 A 
BRANCH  23  25
ATOM     25  O   UNL     1       0.563  11.108  22.154  0.00  0.00    +0.000 OA
BRANCH  25  26
ATOM     26  C   UNL     1      -0.803  11.154  22.492  0.00  0.00    +0.000 C 
ATOM     27  F   UNL     1      -1.531  11.076  21.350  0.00  0.00    +0.000 F 
ATOM     28  F   UNL     1      -1.084  10.034  23.206  0.00  0.00    +0.000 F 
ENDBRANCH  25  26
ENDBRANCH  23  25
ENDBRANCH  18  19
ENDBRANCH  17  18
ENDBRANCH   7  17
TORSDOF 7
ENDMDL
MODEL 8
REMARK VINA RESULT:      -7.6      0.939      1.001
REMARK  Name = 
REMARK  7 active torsions:
REMARK  status: ('A' for Active; 'I' for Inactive)
REMARK    1  A    between atoms: N_1  and  S_2
REMARK    2  A    between atoms: S_2  and  N_5
REMARK    3  A    between atoms: C_11  and  C_12
REMARK    4  A    between atoms: C_12  and  O_13
REMARK    5  A    between atoms: O_13  and  C_14
REMARK    6  A    between atoms: C_18  and  O_19
REMARK    7  A    between atoms: O_19  and  C_20
REMARK                            x       y       z     vdW  Elec       q    Type
REMARK                         _______ _______ _______ _____ _____    ______ ____
ROOT
ATOM      1  N   UNL     1       6.507   6.023  17.597  0.00  0.00    +0.000 NA
ATOM      2  C   UNL     1       5.378   6.859  17.113  0.00  0.00    +0.000 C 
ATOM      3  C   UNL     1       4.056   6.104  17.169  0.00  0.00    +0.000 C 
ATOM      4  C   UNL     1       3.804   5.516  18.546  0.00  0.00    +0.000 C 
ATOM      5  C   UNL     1       5.001   4.829  19.186  0.00  0.00    +0.000 C 
ATOM      6  C   UNL     1       6.286   5.646  19.025  0.00  0.00    +0.000 C 
ATOM      7  C   UNL     1       2.748   6.098  19.491  0.00  0.00    +0.000 C 
ATOM      8  C   UNL     1       2.475   4.858  18.727  0.00  0.00    +0.000 C 
ATOM      9  F   UNL     1       1.558   4.853  17.699  0.00  0.00    +0.000 F 
ATOM     10  F   UNL     1       2.369   3.650  19.374  0.00  0.00    +0.000 F 
ENDROOT
BRANCH   1  11
ATOM     11  S   UNL     1       7.044   4.762  16.622  0.00  0.00    +0.000 S 
ATOM     12  O   UNL     1       5.946   3.961  16.159  0.00  0.00    +0.000 OA
ATOM     13  O   UNL     1       8.214   4.181  17.238  0.00  0.00    +0.000 OA
BRANCH  11  14
ATOM     14  N   UNL     1       7.593   5.618  15.306  0.00  0.00    +0.000 NA
ATOM     15  H   UNL     1       7.933   6.523  15.635  0.00  0.00    +0.000 HD
ATOM     16  H   UNL     1       6.823   5.734  14.650  0.00  0.00    +0.000 HD
ENDBRANCH  11  14
ENDBRANCH   1  11
BRANCH   7  17
ATOM     17  C   UNL     1       1.971   7.331  19.185  0.00  0.00    +0.000 C 
BRANCH  17  18
ATOM     18  O   UNL     1       1.716   8.003  20.418  0.00  0.00    +0.000 OA
BRANCH  18  19
ATOM     19  C   UNL     1       1.197   9.264  20.321  0.00  0.00    +0.000 A 
ATOM     20  C   UNL     1       0.997   9.956  19.133  0.00  0.00    +0.000 A 
ATOM     21  C   UNL     1       0.434  11.213  19.209  0.00  0.00    +0.000 A 
ATOM     22  N   UNL     1       0.067  11.801  20.365  0.00  0.00    +0.000 NA
ATOM     23  C   UNL     1       0.248  11.114  21.509  0.00  0.00    +0.000 A 
ATOM     24  C   UNL     1       0.812   9.846  21.532  0.00  0.00    +0.000 A 
BRANCH  23  25
ATOM     25  O   UNL     1      -0.132  11.819  22.608  0.00  0.00    +0.000 OA
BRANCH  25  26
ATOM     26  C   UNL     1      -1.464  11.606  23.013  0.00  0.00    +0.000 C 
ATOM     27  F   UNL     1      -2.258  11.643  21.913  0.00  0.00    +0.000 F 
ATOM     28  F   UNL     1      -1.544  10.344  23.504  0.00  0.00    +0.000 F 
ENDBRANCH  25  26
ENDBRANCH  23  25
ENDBRANCH  18  19
ENDBRANCH  17  18
ENDBRANCH   7  17
TORSDOF 7
ENDMDL
MODEL 9
REMARK VINA RESULT:      -7.6      1.979      2.475
REMARK  Name = 
REMARK  7 active torsions:
REMARK  status: ('A' for Active; 'I' for Inactive)
REMARK    1  A    between atoms: N_1  and  S_2
REMARK    2  A    between atoms: S_2  and  N_5
REMARK    3  A    between atoms: C_11  and  C_12
REMARK    4  A    between atoms: C_12  and  O_13
REMARK    5  A    between atoms: O_13  and  C_14
REMARK    6  A    between atoms: C_18  and  O_19
REMARK    7  A    between atoms: O_19  and  C_20
REMARK                            x       y       z     vdW  Elec       q    Type
REMARK                         _______ _______ _______ _____ _____    ______ ____
ROOT
ATOM      1  N   UNL     1       6.458   6.036  17.230  0.00  0.00    +0.000 NA
ATOM      2  C   UNL     1       5.170   6.708  16.918  0.00  0.00    +0.000 C 
ATOM      3  C   UNL     1       3.977   5.844  17.308  0.00  0.00    +0.000 C 
ATOM      4  C   UNL     1       4.067   5.384  18.752  0.00  0.00    +0.000 C 
ATOM      5  C   UNL     1       5.435   4.882  19.188  0.00  0.00    +0.000 C 
ATOM      6  C   UNL     1       6.564   5.793  18.699  0.00  0.00    +0.000 C 
ATOM      7  C   UNL     1       3.156   5.962  19.840  0.00  0.00    +0.000 C 
ATOM      8  C   UNL     1       2.880   4.629  19.256  0.00  0.00    +0.000 C 
ATOM      9  F   UNL     1       1.787   4.430  18.442  0.00  0.00    +0.000 F 
ATOM     10  F   UNL     1       3.038   3.491  20.011  0.00  0.00    +0.000 F 
ENDROOT
BRANCH   1  11
ATOM     11  S   UNL     1       6.933   4.734  16.276  0.00  0.00    +0.000 S 
ATOM     12  O   UNL     1       5.803   3.938  15.887  0.00  0.00    +0.000 OA
ATOM     13  O   UNL     1       8.119   4.154  16.861  0.00  0.00    +0.000 OA
BRANCH  11  14
ATOM     14  N   UNL     1       7.439   5.537  14.910  0.00  0.00    +0.000 NA
ATOM     15  H   UNL     1       7.161   4.987  14.096  0.00  0.00    +0.000 HD
ATOM     16  H   UNL     1       8.451   5.643  14.952  0.00  0.00    +0.000 HD
ENDBRANCH  11  14
ENDBRANCH   1  11
BRANCH   7  17
ATOM     17  C   UNL     1       2.201   7.079  19.596  0.00  0.00    +0.000 C 
BRANCH  17  18
ATOM     18  O   UNL     1       1.537   7.361  20.828  0.00  0.00    +0.000 OA
BRANCH  18  19
ATOM     19  C   UNL     1       0.969   8.600  20.936  0.00  0.00    +0.000 A 
ATOM     20  C   UNL     1       0.362   9.103  22.079  0.00  0.00    +0.000 A 
ATOM     21  C   UNL     1      -0.137  10.388  22.028  0.00  0.00    +0.000 A 
ATOM     22  N   UNL     1      -0.067  11.177  20.937  0.00  0.00    +0.000 NA
ATOM     23  C   UNL     1       0.541  10.685  19.840  0.00  0.00    +0.000 A 
ATOM     24  C   UNL     1       1.068   9.403  19.796  0.00  0.00    +0.000 A 
BRANCH  23  25
ATOM     25  O   UNL     1       0.525  11.560  18.798  0.00  0.00    +0.000 OA
BRANCH  25  26
ATOM     26  C   UNL     1       1.731  12.257  18.597  0.00  0.00    +0.000 C 
ATOM     27  F   UNL     1       2.255  12.569  19.810  0.00  0.00    +0.000 F 
ATOM     28  F   UNL     1       2.605  11.401  18.009  0.00  0.00    +0.000 F 
ENDBRANCH  25  26
ENDBRANCH  23  25
ENDBRANCH  18  19
ENDBRANCH  17  18
ENDBRANCH   7  17
TORSDOF 7
ENDMDL
