MODEL 1
REMARK VINA RESULT:      -7.2      0.000      0.000
REMARK  Name = 
REMARK  20 active torsions:
REMARK  status: ('A' for Active; 'I' for Inactive)
REMARK    1  A    between atoms: C_1  and  C_2
REMARK    2  A    between atoms: C_2  and  C_3
REMARK    3  A    between atoms: C_2  and  C_4
REMARK    4  A    between atoms: C_4  and  C_5
REMARK    5  A    between atoms: C_5  and  O_7
REMARK    6  A    between atoms: O_7  and  C_8
REMARK    7  A    between atoms: C_11  and  C_12
REMARK    8  A    between atoms: C_12  and  O_13
REMARK    9  A    between atoms: C_12  and  C_14
REMARK   10  A    between atoms: C_14  and  N_15
REMARK   11  A    between atoms: N_15  and  C_16
REMARK   12  A    between atoms: C_16  and  C_17
REMARK   13  A    between atoms: C_16  and  C_18
REMARK   14  A    between atoms: C_16  and  C_19
REMARK   15  A    between atoms: C_21  and  O_22
REMARK   16  A    between atoms: O_22  and  C_23
REMARK   17  A    between atoms: C_23  and  C_25
REMARK   18  A    between atoms: C_25  and  C_26
REMARK   19  A    between atoms: C_26  and  C_27
REMARK   20  A    between atoms: C_26  and  C_28
REMARK                            x       y       z     vdW  Elec       q    Type
REMARK                         _______ _______ _______ _____ _____    ______ ____
ROOT
ATOM      1  C   UNL     1       4.615   5.584  16.783  0.00  0.00    +0.000 A 
ATOM      2  C   UNL     1       4.644   6.981  16.603  0.00  0.00    +0.000 A 
ATOM      3  C   UNL     1       3.713   7.804  17.218  0.00  0.00    +0.000 A 
ATOM      4  C   UNL     1       2.733   7.263  18.049  0.00  0.00    +0.000 A 
ATOM      5  C   UNL     1       2.719   5.879  18.273  0.00  0.00    +0.000 A 
ATOM      6  C   UNL     1       3.656   5.022  17.656  0.00  0.00    +0.000 A 
ENDROOT
BRANCH   1   7
ATOM      7  O   UNL     1       5.523   4.792  16.126  0.00  0.00    +0.000 OA
BRANCH   7   8
ATOM      8  C   UNL     1       6.863   4.986  16.202  0.00  0.00    +0.000 C 
ATOM      9  O   UNL     1       7.483   5.380  15.224  0.00  0.00    +0.000 OA
BRANCH   8  10
ATOM     10  C   UNL     1       7.593   4.728  17.485  0.00  0.00    +0.000 C 
BRANCH  10  12
ATOM     11  C   UNL     1       8.058   5.501  19.851  0.00  0.00    +0.000 C 
ATOM     12  C   UNL     1       7.368   5.842  18.525  0.00  0.00    +0.000 C 
ATOM     13  C   UNL     1       7.880   7.174  17.952  0.00  0.00    +0.000 C 
ENDBRANCH  10  12
ENDBRANCH   8  10
ENDBRANCH   7   8
ENDBRANCH   1   7
BRANCH   4  14
ATOM     14  C   UNL     1       1.676   8.188  18.613  0.00  0.00    +0.000 C 
BRANCH  14  15
ATOM     15  O   UNL     1       1.794   8.213  20.014  0.00  0.00    +0.000 OA
ATOM     16  H   UNL     1       1.154   8.898  20.351  0.00  0.00    +0.000 HD
ENDBRANCH  14  15
BRANCH  14  17
ATOM     17  C   UNL     1       1.680   9.623  18.062  0.00  0.00    +0.000 C 
BRANCH  17  18
ATOM     18  N   UNL     1       0.307  10.147  17.931  0.00  0.00    +0.000 NA
ATOM     19  H   UNL     1      -0.359   9.352  18.080  0.00  0.00    +0.000 HD
BRANCH  18  20
ATOM     20  C   UNL     1      -0.037  11.256  18.859  0.00  0.00    +0.000 C 
ATOM     21  C   UNL     1       1.193  12.150  19.133  0.00  0.00    +0.000 C 
ATOM     22  C   UNL     1      -1.115  12.134  18.191  0.00  0.00    +0.000 C 
ATOM     23  C   UNL     1      -0.609  10.719  20.191  0.00  0.00    +0.000 C 
ENDBRANCH  18  20
ENDBRANCH  17  18
ENDBRANCH  14  17
ENDBRANCH   4  14
BRANCH   6  24
ATOM     24  O   UNL     1       3.583   3.676  17.868  0.00  0.00    +0.000 OA
BRANCH  24  25
ATOM     25  C   UNL     1       3.965   3.058  19.027  0.00  0.00    +0.000 C 
ATOM     26  O   UNL     1       5.026   3.354  19.557  0.00  0.00    +0.000 OA
BRANCH  25  27
ATOM     27  C   UNL     1       3.114   1.988  19.659  0.00  0.00    +0.000 C 
BRANCH  27  28
ATOM     28  C   UNL     1       1.884   2.577  20.405  0.00  0.00    +0.000 C 
ATOM     29  C   UNL     1       2.234   3.836  21.209  0.00  0.00    +0.000 C 
ATOM     30  C   UNL     1       0.763   2.902  19.409  0.00  0.00    +0.000 C 
ENDBRANCH  27  28
ENDBRANCH  25  27
ENDBRANCH  24  25
ENDBRANCH   6  24
TORSDOF 13
ENDMDL
MODEL 2
REMARK VINA RESULT:      -7.0      1.606      2.585
REMARK  Name = 
REMARK  20 active torsions:
REMARK  status: ('A' for Active; 'I' for Inactive)
REMARK    1  A    between atoms: C_1  and  C_2
REMARK    2  A    between atoms: C_2  and  C_3
REMARK    3  A    between atoms: C_2  and  C_4
REMARK    4  A    between atoms: C_4  and  C_5
REMARK    5  A    between atoms: C_5  and  O_7
REMARK    6  A    between atoms: O_7  and  C_8
REMARK    7  A    between atoms: C_11  and  C_12
REMARK    8  A    between atoms: C_12  and  O_13
REMARK    9  A    between atoms: C_12  and  C_14
REMARK   10  A    between atoms: C_14  and  N_15
REMARK   11  A    between atoms: N_15  and  C_16
REMARK   12  A    between atoms: C_16  and  C_17
REMARK   13  A    between atoms: C_16  and  C_18
REMARK   14  A    between atoms: C_16  and  C_19
REMARK   15  A    between atoms: C_21  and  O_22
REMARK   16  A    between atoms: O_22  and  C_23
REMARK   17  A    between atoms: C_23  and  C_25
REMARK   18  A    between atoms: C_25  and  C_26
REMARK   19  A    between atoms: C_26  and  C_27
REMARK   20  A    between atoms: C_26  and  C_28
REMARK                            x       y       z     vdW  Elec       q    Type
REMARK                         _______ _______ _______ _____ _____    ______ ____
ROOT
ATOM      1  C   UNL     1       4.998   4.947  17.522  0.00  0.00    +0.000 A 
ATOM      2  C   UNL     1       4.451   6.038  16.820  0.00  0.00    +0.000 A 
ATOM      3  C   UNL     1       3.536   6.891  17.417  0.00  0.00    +0.000 A 
ATOM      4  C   UNL     1       3.150   6.696  18.742  0.00  0.00    +0.000 A 
ATOM      5  C   UNL     1       3.720   5.641  19.469  0.00  0.00    +0.000 A 
ATOM      6  C   UNL     1       4.653   4.759  18.880  0.00  0.00    +0.000 A 
ENDROOT
BRANCH   1   7
ATOM      7  O   UNL     1       5.869   4.095  16.890  0.00  0.00    +0.000 OA
BRANCH   7   8
ATOM      8  C   UNL     1       6.616   4.463  15.820  0.00  0.00    +0.000 C 
ATOM      9  O   UNL     1       7.822   4.628  15.940  0.00  0.00    +0.000 OA
BRANCH   8  10
ATOM     10  C   UNL     1       5.974   4.663  14.481  0.00  0.00    +0.000 C 
BRANCH  10  12
ATOM     11  C   UNL     1       5.839   3.314  12.342  0.00  0.00    +0.000 C 
ATOM     12  C   UNL     1       6.774   4.006  13.340  0.00  0.00    +0.000 C 
ATOM     13  C   UNL     1       7.636   5.078  12.651  0.00  0.00    +0.000 C 
ENDBRANCH  10  12
ENDBRANCH   8  10
ENDBRANCH   7   8
ENDBRANCH   1   7
BRANCH   4  14
ATOM     14  C   UNL     1       2.071   7.588  19.317  0.00  0.00    +0.000 C 
BRANCH  14  15
ATOM     15  O   UNL     1       2.168   7.574  20.719  0.00  0.00    +0.000 OA
ATOM     16  H   UNL     1       2.452   8.486  21.004  0.00  0.00    +0.000 HD
ENDBRANCH  14  15
BRANCH  14  17
ATOM     17  C   UNL     1       2.061   9.039  18.808  0.00  0.00    +0.000 C 
BRANCH  17  18
ATOM     18  N   UNL     1       0.807   9.343  18.094  0.00  0.00    +0.000 NA
ATOM     19  H   UNL     1       0.272   8.449  17.980  0.00  0.00    +0.000 HD
BRANCH  18  20
ATOM     20  C   UNL     1      -0.063  10.355  18.747  0.00  0.00    +0.000 C 
ATOM     21  C   UNL     1       0.614  11.744  18.757  0.00  0.00    +0.000 C 
ATOM     22  C   UNL     1      -1.369  10.477  17.934  0.00  0.00    +0.000 C 
ATOM     23  C   UNL     1      -0.430   9.935  20.189  0.00  0.00    +0.000 C 
ENDBRANCH  18  20
ENDBRANCH  17  18
ENDBRANCH  14  17
ENDBRANCH   4  14
BRANCH   6  24
ATOM     24  O   UNL     1       5.153   3.719  19.609  0.00  0.00    +0.000 OA
BRANCH  24  25
ATOM     25  C   UNL     1       4.515   2.522  19.779  0.00  0.00    +0.000 C 
ATOM     26  O   UNL     1       4.973   1.687  20.546  0.00  0.00    +0.000 OA
BRANCH  25  27
ATOM     27  C   UNL     1       3.260   2.191  19.015  0.00  0.00    +0.000 C 
BRANCH  27  28
ATOM     28  C   UNL     1       2.004   2.885  19.613  0.00  0.00    +0.000 C 
ATOM     29  C   UNL     1       0.720   2.536  18.847  0.00  0.00    +0.000 C 
ATOM     30  C   UNL     1       1.837   2.503  21.089  0.00  0.00    +0.000 C 
ENDBRANCH  27  28
ENDBRANCH  25  27
ENDBRANCH  24  25
ENDBRANCH   6  24
TORSDOF 13
ENDMDL
MODEL 3
REMARK VINA RESULT:      -6.9      2.110      3.095
REMARK  Name = 
REMARK  20 active torsions:
REMARK  status: ('A' for Active; 'I' for Inactive)
REMARK    1  A    between atoms: C_1  and  C_2
REMARK    2  A    between atoms: C_2  and  C_3
REMARK    3  A    between atoms: C_2  and  C_4
REMARK    4  A    between atoms: C_4  and  C_5
REMARK    5  A    between atoms: C_5  and  O_7
REMARK    6  A    between atoms: O_7  and  C_8
REMARK    7  A    between atoms: C_11  and  C_12
REMARK    8  A    between atoms: C_12  and  O_13
REMARK    9  A    between atoms: C_12  and  C_14
REMARK   10  A    between atoms: C_14  and  N_15
REMARK   11  A    between atoms: N_15  and  C_16
REMARK   12  A    between atoms: C_16  and  C_17
REMARK   13  A    between atoms: C_16  and  C_18
REMARK   14  A    between atoms: C_16  and  C_19
REMARK   15  A    between atoms: C_21  and  O_22
REMARK   16  A    between atoms: O_22  and  C_23
REMARK   17  A    between atoms: C_23  and  C_25
REMARK   18  A    between atoms: C_25  and  C_26
REMARK   19  A    between atoms: C_26  and  C_27
REMARK   20  A    between atoms: C_26  and  C_28
REMARK                            x       y       z     vdW  Elec       q    Type
REMARK                         _______ _______ _______ _____ _____    ______ ____
ROOT
ATOM      1  C   UNL     1       4.682   5.121  16.770  0.00  0.00    +0.000 A 
ATOM      2  C   UNL     1       5.152   6.443  16.656  0.00  0.00    +0.000 A 
ATOM      3  C   UNL     1       4.447   7.506  17.201  0.00  0.00    +0.000 A 
ATOM      4  C   UNL     1       3.259   7.283  17.895  0.00  0.00    +0.000 A 
ATOM      5  C   UNL     1       2.801   5.967  18.055  0.00  0.00    +0.000 A 
ATOM      6  C   UNL     1       3.502   4.870  17.508  0.00  0.00    +0.000 A 
ENDROOT
BRANCH   1   7
ATOM      7  O   UNL     1       5.379   4.095  16.182  0.00  0.00    +0.000 OA
BRANCH   7   8
ATOM      8  C   UNL     1       6.151   4.263  15.080  0.00  0.00    +0.000 C 
ATOM      9  O   UNL     1       7.359   4.418  15.194  0.00  0.00    +0.000 OA
BRANCH   8  10
ATOM     10  C   UNL     1       5.533   4.252  13.715  0.00  0.00    +0.000 C 
BRANCH  10  12
ATOM     11  C   UNL     1       5.476   2.638  11.765  0.00  0.00    +0.000 C 
ATOM     12  C   UNL     1       6.375   3.462  12.694  0.00  0.00    +0.000 C 
ATOM     13  C   UNL     1       7.252   4.444  11.900  0.00  0.00    +0.000 C 
ENDBRANCH  10  12
ENDBRANCH   8  10
ENDBRANCH   7   8
ENDBRANCH   1   7
BRANCH   4  14
ATOM     14  C   UNL     1       2.472   8.480  18.381  0.00  0.00    +0.000 C 
BRANCH  14  15
ATOM     15  O   UNL     1       1.665   8.951  17.331  0.00  0.00    +0.000 OA
ATOM     16  H   UNL     1       1.141   9.721  17.684  0.00  0.00    +0.000 HD
ENDBRANCH  14  15
BRANCH  14  17
ATOM     17  C   UNL     1       1.616   8.254  19.638  0.00  0.00    +0.000 C 
BRANCH  17  18
ATOM     18  N   UNL     1       0.928   9.493  20.044  0.00  0.00    +0.000 NA
ATOM     19  H   UNL     1       0.117   9.642  19.398  0.00  0.00    +0.000 HD
BRANCH  18  20
ATOM     20  C   UNL     1       0.447   9.517  21.450  0.00  0.00    +0.000 C 
ATOM     21  C   UNL     1       1.610   9.278  22.438  0.00  0.00    +0.000 C 
ATOM     22  C   UNL     1      -0.138  10.914  21.743  0.00  0.00    +0.000 C 
ATOM     23  C   UNL     1      -0.668   8.470  21.681  0.00  0.00    +0.000 C 
ENDBRANCH  18  20
ENDBRANCH  17  18
ENDBRANCH  14  17
ENDBRANCH   4  14
BRANCH   6  24
ATOM     24  O   UNL     1       3.001   3.608  17.650  0.00  0.00    +0.000 OA
BRANCH  24  25
ATOM     25  C   UNL     1       3.079   2.877  18.803  0.00  0.00    +0.000 C 
ATOM     26  O   UNL     1       4.119   2.856  19.446  0.00  0.00    +0.000 OA
BRANCH  25  27
ATOM     27  C   UNL     1       1.910   2.062  19.291  0.00  0.00    +0.000 C 
BRANCH  27  28
ATOM     28  C   UNL     1       1.227   2.698  20.535  0.00  0.00    +0.000 C 
ATOM     29  C   UNL     1       2.087   2.579  21.801  0.00  0.00    +0.000 C 
ATOM     30  C   UNL     1       0.909   4.175  20.271  0.00  0.00    +0.000 C 
ENDBRANCH  27  28
ENDBRANCH  25  27
ENDBRANCH  24  25
ENDBRANCH   6  24
TORSDOF 13
ENDMDL
MODEL 4
REMARK VINA RESULT:      -6.8      1.572      2.590
REMARK  Name = 
REMARK  20 active torsions:
REMARK  status: ('A' for Active; 'I' for Inactive)
REMARK    1  A    between atoms: C_1  and  C_2
REMARK    2  A    between atoms: C_2  and  C_3
REMARK    3  A    between atoms: C_2  and  C_4
REMARK    4  A    between atoms: C_4  and  C_5
REMARK    5  A    between atoms: C_5  and  O_7
REMARK    6  A    between atoms: O_7  and  C_8
REMARK    7  A    between atoms: C_11  and  C_12
REMARK    8  A    between atoms: C_12  and  O_13
REMARK    9  A    between atoms: C_12  and  C_14
REMARK   10  A    between atoms: C_14  and  N_15
REMARK   11  A    between atoms: N_15  and  C_16
REMARK   12  A    between atoms: C_16  and  C_17
REMARK   13  A    between atoms: C_16  and  C_18
REMARK   14  A    between atoms: C_16  and  C_19
REMARK   15  A    between atoms: C_21  and  O_22
REMARK   16  A    between atoms: O_22  and  C_23
REMARK   17  A    between atoms: C_23  and  C_25
REMARK   18  A    between atoms: C_25  and  C_26
REMARK   19  A    between atoms: C_26  and  C_27
REMARK   20  A    between atoms: C_26  and  C_28
REMARK                            x       y       z     vdW  Elec       q    Type
REMARK                         _______ _______ _______ _____ _____    ______ ____
ROOT
ATOM      1  C   UNL     1       4.548   5.072  16.869  0.00  0.00    +0.000 A 
ATOM      2  C   UNL     1       4.864   6.444  16.907  0.00  0.00    +0.000 A 
ATOM      3  C   UNL     1       4.012   7.362  17.503  0.00  0.00    +0.000 A 
ATOM      4  C   UNL     1       2.826   6.939  18.100  0.00  0.00    +0.000 A 
ATOM      5  C   UNL     1       2.519   5.570  18.110  0.00  0.00    +0.000 A 
ATOM      6  C   UNL     1       3.370   4.619  17.507  0.00  0.00    +0.000 A 
ENDROOT
BRANCH   1   7
ATOM      7  O   UNL     1       5.390   4.195  16.232  0.00  0.00    +0.000 OA
BRANCH   7   8
ATOM      8  C   UNL     1       6.513   4.589  15.583  0.00  0.00    +0.000 C 
ATOM      9  O   UNL     1       7.581   4.634  16.177  0.00  0.00    +0.000 OA
BRANCH   8  10
ATOM     10  C   UNL     1       6.457   4.963  14.133  0.00  0.00    +0.000 C 
BRANCH  10  12
ATOM     11  C   UNL     1       4.826   3.588  12.770  0.00  0.00    +0.000 C 
ATOM     12  C   UNL     1       6.285   3.738  13.215  0.00  0.00    +0.000 C 
ATOM     13  C   UNL     1       7.228   3.880  12.008  0.00  0.00    +0.000 C 
ENDBRANCH  10  12
ENDBRANCH   8  10
ENDBRANCH   7   8
ENDBRANCH   1   7
BRANCH   4  14
ATOM     14  C   UNL     1       1.880   7.987  18.645  0.00  0.00    +0.000 C 
BRANCH  14  15
ATOM     15  O   UNL     1       1.976   8.002  20.047  0.00  0.00    +0.000 OA
ATOM     16  H   UNL     1       1.481   7.207  20.385  0.00  0.00    +0.000 HD
ENDBRANCH  14  15
BRANCH  14  17
ATOM     17  C   UNL     1       2.067   9.409  18.092  0.00  0.00    +0.000 C 
BRANCH  17  18
ATOM     18  N   UNL     1       0.767  10.042  17.799  0.00  0.00    +0.000 NA
ATOM     19  H   UNL     1       0.070   9.282  17.615  0.00  0.00    +0.000 HD
BRANCH  18  20
ATOM     20  C   UNL     1       0.247  10.938  18.865  0.00  0.00    +0.000 C 
ATOM     21  C   UNL     1       1.403  11.549  19.688  0.00  0.00    +0.000 C 
ATOM     22  C   UNL     1      -0.517  12.100  18.196  0.00  0.00    +0.000 C 
ATOM     23  C   UNL     1      -0.733  10.192  19.800  0.00  0.00    +0.000 C 
ENDBRANCH  18  20
ENDBRANCH  17  18
ENDBRANCH  14  17
ENDBRANCH   4  14
BRANCH   6  24
ATOM     24  O   UNL     1       3.015   3.301  17.502  0.00  0.00    +0.000 OA
BRANCH  24  25
ATOM     25  C   UNL     1       3.360   2.409  18.479  0.00  0.00    +0.000 C 
ATOM     26  O   UNL     1       3.770   1.297  18.176  0.00  0.00    +0.000 OA
BRANCH  25  27
ATOM     27  C   UNL     1       3.217   2.754  19.938  0.00  0.00    +0.000 C 
BRANCH  27  28
ATOM     28  C   UNL     1       1.741   3.039  20.335  0.00  0.00    +0.000 C 
ATOM     29  C   UNL     1       0.739   2.420  19.350  0.00  0.00    +0.000 C 
ATOM     30  C   UNL     1       1.459   2.514  21.748  0.00  0.00    +0.000 C 
ENDBRANCH  27  28
ENDBRANCH  25  27
ENDBRANCH  24  25
ENDBRANCH   6  24
TORSDOF 13
ENDMDL
MODEL 5
REMARK VINA RESULT:      -6.8      1.961      5.107
REMARK  Name = 
REMARK  20 active torsions:
REMARK  status: ('A' for Active; 'I' for Inactive)
REMARK    1  A    between atoms: C_1  and  C_2
REMARK    2  A    between atoms: C_2  and  C_3
REMARK    3  A    between atoms: C_2  and  C_4
REMARK    4  A    between atoms: C_4  and  C_5
REMARK    5  A    between atoms: C_5  and  O_7
REMARK    6  A    between atoms: O_7  and  C_8
REMARK    7  A    between atoms: C_11  and  C_12
REMARK    8  A    between atoms: C_12  and  O_13
REMARK    9  A    between atoms: C_12  and  C_14
REMARK   10  A    between atoms: C_14  and  N_15
REMARK   11  A    between atoms: N_15  and  C_16
REMARK   12  A    between atoms: C_16  and  C_17
REMARK   13  A    between atoms: C_16  and  C_18
REMARK   14  A    between atoms: C_16  and  C_19
REMARK   15  A    between atoms: C_21  and  O_22
REMARK   16  A    between atoms: O_22  and  C_23
REMARK   17  A    between atoms: C_23  and  C_25
REMARK   18  A    between atoms: C_25  and  C_26
REMARK   19  A    between atoms: C_26  and  C_27
REMARK   20  A    between atoms: C_26  and  C_28
REMARK                            x       y       z     vdW  Elec       q    Type
REMARK                         _______ _______ _______ _____ _____    ______ ____
ROOT
ATOM      1  C   UNL     1       2.269   6.102  20.504  0.00  0.00    +0.000 A 
ATOM      2  C   UNL     1       1.408   7.021  21.136  0.00  0.00    +0.000 A 
ATOM      3  C   UNL     1       1.070   8.222  20.531  0.00  0.00    +0.000 A 
ATOM      4  C   UNL     1       1.562   8.538  19.266  0.00  0.00    +0.000 A 
ATOM      5  C   UNL     1       2.384   7.614  18.605  0.00  0.00    +0.000 A 
ATOM      6  C   UNL     1       2.743   6.386  19.203  0.00  0.00    +0.000 A 
ENDROOT
BRANCH   1   7
ATOM      7  O   UNL     1       2.620   4.941  21.147  0.00  0.00    +0.000 OA
BRANCH   7   8
ATOM      8  C   UNL     1       1.810   3.855  21.205  0.00  0.00    +0.000 C 
ATOM      9  O   UNL     1       1.933   3.046  22.114  0.00  0.00    +0.000 OA
BRANCH   8  10
ATOM     10  C   UNL     1       0.755   3.641  20.163  0.00  0.00    +0.000 C 
BRANCH  10  12
ATOM     11  C   UNL     1       1.250   3.614  17.680  0.00  0.00    +0.000 C 
ATOM     12  C   UNL     1       1.261   2.798  18.977  0.00  0.00    +0.000 C 
ATOM     13  C   UNL     1       2.671   2.274  19.299  0.00  0.00    +0.000 C 
ENDBRANCH  10  12
ENDBRANCH   8  10
ENDBRANCH   7   8
ENDBRANCH   1   7
BRANCH   4  14
ATOM     14  C   UNL     1       1.250   9.903  18.693  0.00  0.00    +0.000 C 
BRANCH  14  15
ATOM     15  O   UNL     1       1.745   9.969  17.379  0.00  0.00    +0.000 OA
ATOM     16  H   UNL     1       2.243  10.827  17.294  0.00  0.00    +0.000 HD
ENDBRANCH  14  15
BRANCH  14  17
ATOM     17  C   UNL     1      -0.231  10.316  18.715  0.00  0.00    +0.000 C 
BRANCH  17  18
ATOM     18  N   UNL     1      -0.812  10.289  17.360  0.00  0.00    +0.000 NA
ATOM     19  H   UNL     1      -0.676   9.326  16.968  0.00  0.00    +0.000 HD
BRANCH  18  20
ATOM     20  C   UNL     1      -2.251  10.652  17.283  0.00  0.00    +0.000 C 
ATOM     21  C   UNL     1      -2.668  10.956  15.826  0.00  0.00    +0.000 C 
ATOM     22  C   UNL     1      -3.086   9.448  17.767  0.00  0.00    +0.000 C 
ATOM     23  C   UNL     1      -2.576  11.861  18.190  0.00  0.00    +0.000 C 
ENDBRANCH  18  20
ENDBRANCH  17  18
ENDBRANCH  14  17
ENDBRANCH   4  14
BRANCH   6  24
ATOM     24  O   UNL     1       3.578   5.532  18.543  0.00  0.00    +0.000 OA
BRANCH  24  25
ATOM     25  C   UNL     1       4.941   5.642  18.536  0.00  0.00    +0.000 C 
ATOM     26  O   UNL     1       5.571   5.517  19.577  0.00  0.00    +0.000 OA
BRANCH  25  27
ATOM     27  C   UNL     1       5.694   5.946  17.267  0.00  0.00    +0.000 C 
BRANCH  27  28
ATOM     28  C   UNL     1       6.393   4.686  16.681  0.00  0.00    +0.000 C 
ATOM     29  C   UNL     1       6.620   4.794  15.166  0.00  0.00    +0.000 C 
ATOM     30  C   UNL     1       7.736   4.448  17.383  0.00  0.00    +0.000 C 
ENDBRANCH  27  28
ENDBRANCH  25  27
ENDBRANCH  24  25
ENDBRANCH   6  24
TORSDOF 13
ENDMDL
MODEL 6
REMARK VINA RESULT:      -6.6      2.503      6.726
REMARK  Name = 
REMARK  20 active torsions:
REMARK  status: ('A' for Active; 'I' for Inactive)
REMARK    1  A    between atoms: C_1  and  C_2
REMARK    2  A    between atoms: C_2  and  C_3
REMARK    3  A    between atoms: C_2  and  C_4
REMARK    4  A    between atoms: C_4  and  C_5
REMARK    5  A    between atoms: C_5  and  O_7
REMARK    6  A    between atoms: O_7  and  C_8
REMARK    7  A    between atoms: C_11  and  C_12
REMARK    8  A    between atoms: C_12  and  O_13
REMARK    9  A    between atoms: C_12  and  C_14
REMARK   10  A    between atoms: C_14  and  N_15
REMARK   11  A    between atoms: N_15  and  C_16
REMARK   12  A    between atoms: C_16  and  C_17
REMARK   13  A    between atoms: C_16  and  C_18
REMARK   14  A    between atoms: C_16  and  C_19
REMARK   15  A    between atoms: C_21  and  O_22
REMARK   16  A    between atoms: O_22  and  C_23
REMARK   17  A    between atoms: C_23  and  C_25
REMARK   18  A    between atoms: C_25  and  C_26
REMARK   19  A    between atoms: C_26  and  C_27
REMARK   20  A    between atoms: C_26  and  C_28
REMARK                            x       y       z     vdW  Elec       q    Type
REMARK                         _______ _______ _______ _____ _____    ______ ____
ROOT
ATOM      1  C   UNL     1       3.075   6.764  18.743  0.00  0.00    +0.000 A 
ATOM      2  C   UNL     1       3.858   7.328  17.717  0.00  0.00    +0.000 A 
ATOM      3  C   UNL     1       5.163   6.913  17.498  0.00  0.00    +0.000 A 
ATOM      4  C   UNL     1       5.724   5.906  18.282  0.00  0.00    +0.000 A 
ATOM      5  C   UNL     1       4.942   5.303  19.277  0.00  0.00    +0.000 A 
ATOM      6  C   UNL     1       3.612   5.711  19.519  0.00  0.00    +0.000 A 
ENDROOT
BRANCH   1   7
ATOM      7  O   UNL     1       1.802   7.226  18.963  0.00  0.00    +0.000 OA
BRANCH   7   8
ATOM      8  C   UNL     1       1.536   8.342  19.686  0.00  0.00    +0.000 C 
ATOM      9  O   UNL     1       1.580   8.306  20.908  0.00  0.00    +0.000 OA
BRANCH   8  10
ATOM     10  C   UNL     1       1.197   9.628  18.996  0.00  0.00    +0.000 C 
BRANCH  10  12
ATOM     11  C   UNL     1      -0.223  11.468  20.000  0.00  0.00    +0.000 C 
ATOM     12  C   UNL     1      -0.236  10.102  19.306  0.00  0.00    +0.000 C 
ATOM     13  C   UNL     1      -1.045  10.144  17.998  0.00  0.00    +0.000 C 
ENDBRANCH  10  12
ENDBRANCH   8  10
ENDBRANCH   7   8
ENDBRANCH   1   7
BRANCH   4  14
ATOM     14  C   UNL     1       7.183   5.561  18.074  0.00  0.00    +0.000 C 
BRANCH  14  15
ATOM     15  O   UNL     1       7.761   5.260  19.319  0.00  0.00    +0.000 OA
ATOM     16  H   UNL     1       8.102   6.114  19.700  0.00  0.00    +0.000 HD
ENDBRANCH  14  15
BRANCH  14  17
ATOM     17  C   UNL     1       7.466   4.425  17.077  0.00  0.00    +0.000 C 
BRANCH  17  18
ATOM     18  N   UNL     1       7.491   4.927  15.691  0.00  0.00    +0.000 NA
ATOM     19  H   UNL     1       8.370   4.582  15.236  0.00  0.00    +0.000 HD
BRANCH  18  20
ATOM     20  C   UNL     1       6.323   4.541  14.858  0.00  0.00    +0.000 C 
ATOM     21  C   UNL     1       6.778   3.991  13.487  0.00  0.00    +0.000 C 
ATOM     22  C   UNL     1       5.556   3.416  15.583  0.00  0.00    +0.000 C 
ATOM     23  C   UNL     1       5.356   5.731  14.657  0.00  0.00    +0.000 C 
ENDBRANCH  18  20
ENDBRANCH  17  18
ENDBRANCH  14  17
ENDBRANCH   4  14
BRANCH   6  24
ATOM     24  O   UNL     1       2.898   5.127  20.525  0.00  0.00    +0.000 OA
BRANCH  24  25
ATOM     25  C   UNL     1       2.036   4.081  20.348  0.00  0.00    +0.000 C 
ATOM     26  O   UNL     1       0.828   4.270  20.383  0.00  0.00    +0.000 OA
BRANCH  25  27
ATOM     27  C   UNL     1       2.542   2.678  20.137  0.00  0.00    +0.000 C 
BRANCH  27  28
ATOM     28  C   UNL     1       2.367   2.203  18.667  0.00  0.00    +0.000 C 
ATOM     29  C   UNL     1       2.121   3.369  17.699  0.00  0.00    +0.000 C 
ATOM     30  C   UNL     1       3.600   1.413  18.212  0.00  0.00    +0.000 C 
ENDBRANCH  27  28
ENDBRANCH  25  27
ENDBRANCH  24  25
ENDBRANCH   6  24
TORSDOF 13
ENDMDL
MODEL 7
REMARK VINA RESULT:      -6.6      2.030      4.730
REMARK  Name = 
REMARK  20 active torsions:
REMARK  status: ('A' for Active; 'I' for Inactive)
REMARK    1  A    between atoms: C_1  and  C_2
REMARK    2  A    between atoms: C_2  and  C_3
REMARK    3  A    between atoms: C_2  and  C_4
REMARK    4  A    between atoms: C_4  and  C_5
REMARK    5  A    between atoms: C_5  and  O_7
REMARK    6  A    between atoms: O_7  and  C_8
REMARK    7  A    between atoms: C_11  and  C_12
REMARK    8  A    between atoms: C_12  and  O_13
REMARK    9  A    between atoms: C_12  and  C_14
REMARK   10  A    between atoms: C_14  and  N_15
REMARK   11  A    between atoms: N_15  and  C_16
REMARK   12  A    between atoms: C_16  and  C_17
REMARK   13  A    between atoms: C_16  and  C_18
REMARK   14  A    between atoms: C_16  and  C_19
REMARK   15  A    between atoms: C_21  and  O_22
REMARK   16  A    between atoms: O_22  and  C_23
REMARK   17  A    between atoms: C_23  and  C_25
REMARK   18  A    between atoms: C_25  and  C_26
REMARK   19  A    between atoms: C_26  and  C_27
REMARK   20  A    between atoms: C_26  and  C_28
REMARK                            x       y       z     vdW  Elec       q    Type
REMARK                         _______ _______ _______ _____ _____    ______ ____
ROOT
ATOM      1  C   UNL     1       2.219   6.692  19.828  0.00  0.00    +0.000 A 
ATOM      2  C   UNL     1       1.535   7.570  20.692  0.00  0.00    +0.000 A 
ATOM      3  C   UNL     1       1.231   8.867  20.305  0.00  0.00    +0.000 A 
ATOM      4  C   UNL     1       1.580   9.325  19.036  0.00  0.00    +0.000 A 
ATOM      5  C   UNL     1       2.222   8.448  18.148  0.00  0.00    +0.000 A 
ATOM      6  C   UNL     1       2.543   7.125  18.522  0.00  0.00    +0.000 A 
ENDROOT
BRANCH   1   7
ATOM      7  O   UNL     1       2.544   5.429  20.256  0.00  0.00    +0.000 OA
BRANCH   7   8
ATOM      8  C   UNL     1       1.812   4.332  19.941  0.00  0.00    +0.000 C 
ATOM      9  O   UNL     1       0.784   4.084  20.556  0.00  0.00    +0.000 OA
BRANCH   8  10
ATOM     10  C   UNL     1       2.251   3.421  18.836  0.00  0.00    +0.000 C 
BRANCH  10  12
ATOM     11  C   UNL     1       3.524   1.310  18.258  0.00  0.00    +0.000 C 
ATOM     12  C   UNL     1       3.342   2.431  19.287  0.00  0.00    +0.000 C 
ATOM     13  C   UNL     1       4.654   3.200  19.517  0.00  0.00    +0.000 C 
ENDBRANCH  10  12
ENDBRANCH   8  10
ENDBRANCH   7   8
ENDBRANCH   1   7
BRANCH   4  14
ATOM     14  C   UNL     1       1.321  10.777  18.698  0.00  0.00    +0.000 C 
BRANCH  14  15
ATOM     15  O   UNL     1       1.983  11.090  17.498  0.00  0.00    +0.000 OA
ATOM     16  H   UNL     1       1.439  10.712  16.754  0.00  0.00    +0.000 HD
ENDBRANCH  14  15
BRANCH  14  17
ATOM     17  C   UNL     1      -0.157  11.188  18.602  0.00  0.00    +0.000 C 
BRANCH  17  18
ATOM     18  N   UNL     1      -0.891  10.324  17.658  0.00  0.00    +0.000 NA
ATOM     19  H   UNL     1      -0.808   9.335  17.992  0.00  0.00    +0.000 HD
BRANCH  18  20
ATOM     20  C   UNL     1      -2.326  10.664  17.476  0.00  0.00    +0.000 C 
ATOM     21  C   UNL     1      -2.733  11.851  18.377  0.00  0.00    +0.000 C 
ATOM     22  C   UNL     1      -2.545  11.091  16.010  0.00  0.00    +0.000 C 
ATOM     23  C   UNL     1      -3.233   9.445  17.764  0.00  0.00    +0.000 C 
ENDBRANCH  18  20
ENDBRANCH  17  18
ENDBRANCH  14  17
ENDBRANCH   4  14
BRANCH   6  24
ATOM     24  O   UNL     1       3.204   6.316  17.643  0.00  0.00    +0.000 OA
BRANCH  24  25
ATOM     25  C   UNL     1       4.547   6.384  17.398  0.00  0.00    +0.000 C 
ATOM     26  O   UNL     1       5.343   6.339  18.326  0.00  0.00    +0.000 OA
BRANCH  25  27
ATOM     27  C   UNL     1       5.079   6.545  15.998  0.00  0.00    +0.000 C 
BRANCH  27  28
ATOM     28  C   UNL     1       5.672   5.222  15.436  0.00  0.00    +0.000 C 
ATOM     29  C   UNL     1       7.155   5.046  15.793  0.00  0.00    +0.000 C 
ATOM     30  C   UNL     1       4.876   4.019  15.957  0.00  0.00    +0.000 C 
ENDBRANCH  27  28
ENDBRANCH  25  27
ENDBRANCH  24  25
ENDBRANCH   6  24
TORSDOF 13
ENDMDL
MODEL 8
REMARK VINA RESULT:      -6.6      1.556      2.428
REMARK  Name = 
REMARK  20 active torsions:
REMARK  status: ('A' for Active; 'I' for Inactive)
REMARK    1  A    between atoms: C_1  and  C_2
REMARK    2  A    between atoms: C_2  and  C_3
REMARK    3  A    between atoms: C_2  and  C_4
REMARK    4  A    between atoms: C_4  and  C_5
REMARK    5  A    between atoms: C_5  and  O_7
REMARK    6  A    between atoms: O_7  and  C_8
REMARK    7  A    between atoms: C_11  and  C_12
REMARK    8  A    between atoms: C_12  and  O_13
REMARK    9  A    between atoms: C_12  and  C_14
REMARK   10  A    between atoms: C_14  and  N_15
REMARK   11  A    between atoms: N_15  and  C_16
REMARK   12  A    between atoms: C_16  and  C_17
REMARK   13  A    between atoms: C_16  and  C_18
REMARK   14  A    between atoms: C_16  and  C_19
REMARK   15  A    between atoms: C_21  and  O_22
REMARK   16  A    between atoms: O_22  and  C_23
REMARK   17  A    between atoms: C_23  and  C_25
REMARK   18  A    between atoms: C_25  and  C_26
REMARK   19  A    between atoms: C_26  and  C_27
REMARK   20  A    between atoms: C_26  and  C_28
REMARK                            x       y       z     vdW  Elec       q    Type
REMARK                         _______ _______ _______ _____ _____    ______ ____
ROOT
ATOM      1  C   UNL     1       3.313   6.947  17.929  0.00  0.00    +0.000 A 
ATOM      2  C   UNL     1       2.613   8.032  17.365  0.00  0.00    +0.000 A 
ATOM      3  C   UNL     1       1.758   8.811  18.130  0.00  0.00    +0.000 A 
ATOM      4  C   UNL     1       1.586   8.547  19.487  0.00  0.00    +0.000 A 
ATOM      5  C   UNL     1       2.310   7.498  20.073  0.00  0.00    +0.000 A 
ATOM      6  C   UNL     1       3.185   6.691  19.314  0.00  0.00    +0.000 A 
ENDROOT
BRANCH   1   7
ATOM      7  O   UNL     1       4.119   6.168  17.137  0.00  0.00    +0.000 OA
BRANCH   7   8
ATOM      8  C   UNL     1       5.228   6.644  16.519  0.00  0.00    +0.000 C 
ATOM      9  O   UNL     1       5.213   6.861  15.315  0.00  0.00    +0.000 OA
BRANCH   8  10
ATOM     10  C   UNL     1       6.475   6.915  17.303  0.00  0.00    +0.000 C 
BRANCH  10  12
ATOM     11  C   UNL     1       7.447   4.579  17.219  0.00  0.00    +0.000 C 
ATOM     12  C   UNL     1       6.927   5.696  18.130  0.00  0.00    +0.000 C 
ATOM     13  C   UNL     1       7.999   6.144  19.138  0.00  0.00    +0.000 C 
ENDBRANCH  10  12
ENDBRANCH   8  10
ENDBRANCH   7   8
ENDBRANCH   1   7
BRANCH   4  14
ATOM     14  C   UNL     1       0.564   9.356  20.255  0.00  0.00    +0.000 C 
BRANCH  14  15
ATOM     15  O   UNL     1       1.147   9.808  21.452  0.00  0.00    +0.000 OA
ATOM     16  H   UNL     1       1.974  10.306  21.207  0.00  0.00    +0.000 HD
ENDBRANCH  14  15
BRANCH  14  17
ATOM     17  C   UNL     1      -0.058  10.540  19.497  0.00  0.00    +0.000 C 
BRANCH  17  18
ATOM     18  N   UNL     1      -1.394  10.195  18.975  0.00  0.00    +0.000 NA
ATOM     19  H   UNL     1      -2.014   9.975  19.790  0.00  0.00    +0.000 HD
BRANCH  18  20
ATOM     20  C   UNL     1      -2.035  11.243  18.139  0.00  0.00    +0.000 C 
ATOM     21  C   UNL     1      -3.354  11.732  18.778  0.00  0.00    +0.000 C 
ATOM     22  C   UNL     1      -1.080  12.452  18.053  0.00  0.00    +0.000 C 
ATOM     23  C   UNL     1      -2.300  10.734  16.703  0.00  0.00    +0.000 C 
ENDBRANCH  18  20
ENDBRANCH  17  18
ENDBRANCH  14  17
ENDBRANCH   4  14
BRANCH   6  24
ATOM     24  O   UNL     1       3.840   5.654  19.913  0.00  0.00    +0.000 OA
BRANCH  24  25
ATOM     25  C   UNL     1       3.558   4.335  19.690  0.00  0.00    +0.000 C 
ATOM     26  O   UNL     1       4.448   3.566  19.354  0.00  0.00    +0.000 OA
BRANCH  25  27
ATOM     27  C   UNL     1       2.155   3.803  19.820  0.00  0.00    +0.000 C 
BRANCH  27  28
ATOM     28  C   UNL     1       1.668   3.098  18.522  0.00  0.00    +0.000 C 
ATOM     29  C   UNL     1       0.498   2.138  18.780  0.00  0.00    +0.000 C 
ATOM     30  C   UNL     1       1.254   4.139  17.475  0.00  0.00    +0.000 C 
ENDBRANCH  27  28
ENDBRANCH  25  27
ENDBRANCH  24  25
ENDBRANCH   6  24
TORSDOF 13
ENDMDL
MODEL 9
REMARK VINA RESULT:      -6.6      0.955      1.322
REMARK  Name = 
REMARK  20 active torsions:
REMARK  status: ('A' for Active; 'I' for Inactive)
REMARK    1  A    between atoms: C_1  and  C_2
REMARK    2  A    between atoms: C_2  and  C_3
REMARK    3  A    between atoms: C_2  and  C_4
REMARK    4  A    between atoms: C_4  and  C_5
REMARK    5  A    between atoms: C_5  and  O_7
REMARK    6  A    between atoms: O_7  and  C_8
REMARK    7  A    between atoms: C_11  and  C_12
REMARK    8  A    between atoms: C_12  and  O_13
REMARK    9  A    between atoms: C_12  and  C_14
REMARK   10  A    between atoms: C_14  and  N_15
REMARK   11  A    between atoms: N_15  and  C_16
REMARK   12  A    between atoms: C_16  and  C_17
REMARK   13  A    between atoms: C_16  and  C_18
REMARK   14  A    between atoms: C_16  and  C_19
REMARK   15  A    between atoms: C_21  and  O_22
REMARK   16  A    between atoms: O_22  and  C_23
REMARK   17  A    between atoms: C_23  and  C_25
REMARK   18  A    between atoms: C_25  and  C_26
REMARK   19  A    between atoms: C_26  and  C_27
REMARK   20  A    between atoms: C_26  and  C_28
REMARK                            x       y       z     vdW  Elec       q    Type
REMARK                         _______ _______ _______ _____ _____    ______ ____
ROOT
ATOM      1  C   UNL     1       4.057   6.101  17.123  0.00  0.00    +0.000 A 
ATOM      2  C   UNL     1       3.970   7.507  17.111  0.00  0.00    +0.000 A 
ATOM      3  C   UNL     1       3.137   8.183  17.988  0.00  0.00    +0.000 A 
ATOM      4  C   UNL     1       2.376   7.481  18.921  0.00  0.00    +0.000 A 
ATOM      5  C   UNL     1       2.485   6.084  18.976  0.00  0.00    +0.000 A 
ATOM      6  C   UNL     1       3.326   5.375  18.091  0.00  0.00    +0.000 A 
ENDROOT
BRANCH   1   7
ATOM      7  O   UNL     1       4.858   5.458  16.213  0.00  0.00    +0.000 OA
BRANCH   7   8
ATOM      8  C   UNL     1       6.130   5.077  16.488  0.00  0.00    +0.000 C 
ATOM      9  O   UNL     1       6.393   3.894  16.656  0.00  0.00    +0.000 OA
BRANCH   8  10
ATOM     10  C   UNL     1       7.223   6.098  16.580  0.00  0.00    +0.000 C 
BRANCH  10  12
ATOM     11  C   UNL     1       7.940   5.926  19.002  0.00  0.00    +0.000 C 
ATOM     12  C   UNL     1       7.255   6.804  17.949  0.00  0.00    +0.000 C 
ATOM     13  C   UNL     1       7.968   8.158  17.798  0.00  0.00    +0.000 C 
ENDBRANCH  10  12
ENDBRANCH   8  10
ENDBRANCH   7   8
ENDBRANCH   1   7
BRANCH   4  14
ATOM     14  C   UNL     1       1.404   8.254  19.786  0.00  0.00    +0.000 C 
BRANCH  14  15
ATOM     15  O   UNL     1       1.761   8.087  21.135  0.00  0.00    +0.000 OA
ATOM     16  H   UNL     1       1.256   7.301  21.479  0.00  0.00    +0.000 HD
ENDBRANCH  14  15
BRANCH  14  17
ATOM     17  C   UNL     1       1.264   9.751  19.463  0.00  0.00    +0.000 C 
BRANCH  17  18
ATOM     18  N   UNL     1       0.062  10.010  18.648  0.00  0.00    +0.000 NA
ATOM     19  H   UNL     1      -0.564   9.172  18.717  0.00  0.00    +0.000 HD
BRANCH  18  20
ATOM     20  C   UNL     1      -0.703  11.228  19.021  0.00  0.00    +0.000 C 
ATOM     21  C   UNL     1      -2.093  11.237  18.345  0.00  0.00    +0.000 C 
ATOM     22  C   UNL     1      -0.924  11.218  20.548  0.00  0.00    +0.000 C 
ATOM     23  C   UNL     1       0.073  12.514  18.654  0.00  0.00    +0.000 C 
ENDBRANCH  18  20
ENDBRANCH  17  18
ENDBRANCH  14  17
ENDBRANCH   4  14
BRANCH   6  24
ATOM     24  O   UNL     1       3.372   4.012  18.149  0.00  0.00    +0.000 OA
BRANCH  24  25
ATOM     25  C   UNL     1       3.918   3.305  19.185  0.00  0.00    +0.000 C 
ATOM     26  O   UNL     1       5.012   3.620  19.633  0.00  0.00    +0.000 OA
BRANCH  25  27
ATOM     27  C   UNL     1       3.209   2.115  19.777  0.00  0.00    +0.000 C 
BRANCH  27  28
ATOM     28  C   UNL     1       1.933   2.522  20.567  0.00  0.00    +0.000 C 
ATOM     29  C   UNL     1       2.179   3.711  21.507  0.00  0.00    +0.000 C 
ATOM     30  C   UNL     1       0.794   2.864  19.598  0.00  0.00    +0.000 C 
ENDBRANCH  27  28
ENDBRANCH  25  27
ENDBRANCH  24  25
ENDBRANCH   6  24
TORSDOF 13
ENDMDL
