MODEL 1
REMARK VINA RESULT:      -8.2      0.000      0.000
REMARK  Name = 
REMARK  12 active torsions:
REMARK  status: ('A' for Active; 'I' for Inactive)
REMARK    1  A    between atoms: C_1  and  O_2
REMARK    2  A    between atoms: O_2  and  C_3
REMARK    3  A    between atoms: C_7  and  C_8
REMARK    4  A    between atoms: C_8  and  C_9
REMARK    5  A    between atoms: C_18  and  S_19
REMARK    6  A    between atoms: S_19  and  C_20
REMARK    7  A    between atoms: C_20  and  C_21
REMARK    8  A    between atoms: N_23  and  C_24
REMARK    9  A    between atoms: C_26  and  O_27
REMARK   10  A    between atoms: O_27  and  C_28
REMARK   11  A    between atoms: C_31  and  O_32
REMARK   12  A    between atoms: O_32  and  C_33
REMARK                            x       y       z     vdW  Elec       q    Type
REMARK                         _______ _______ _______ _____ _____    ______ ____
ROOT
ATOM      1  C   UNL     1       5.669   4.581  17.221  0.00  0.00    +0.000 A 
ATOM      2  N   UNL     1       5.653   3.781  18.308  0.00  0.00    +0.000 NA
ATOM      3  C   UNL     1       4.434   3.285  18.613  0.00  0.00    +0.000 A 
ATOM      4  C   UNL     1       3.984   3.078  19.905  0.00  0.00    +0.000 A 
ATOM      5  C   UNL     1       2.714   2.545  20.130  0.00  0.00    +0.000 A 
ATOM      6  C   UNL     1       2.036   1.976  19.060  0.00  0.00    +0.000 A 
ATOM      7  C   UNL     1       2.464   2.273  17.775  0.00  0.00    +0.000 A 
ATOM      8  C   UNL     1       3.447   3.245  17.638  0.00  0.00    +0.000 A 
ATOM      9  N   UNL     1       3.377   4.299  16.785  0.00  0.00    +0.000 NA
ATOM     10  C   UNL     1       4.464   5.099  16.776  0.00  0.00    +0.000 A 
ENDROOT
BRANCH   1  11
ATOM     11  C   UNL     1       6.958   4.894  16.514  0.00  0.00    +0.000 C 
BRANCH  11  16
ATOM     12  C   UNL     1       6.103   3.582  13.014  0.00  0.00    +0.000 A 
ATOM     13  C   UNL     1       7.001   4.305  12.226  0.00  0.00    +0.000 A 
ATOM     14  C   UNL     1       7.831   5.266  12.800  0.00  0.00    +0.000 A 
ATOM     15  C   UNL     1       7.786   5.492  14.180  0.00  0.00    +0.000 A 
ATOM     16  C   UNL     1       6.911   4.758  14.996  0.00  0.00    +0.000 A 
ATOM     17  C   UNL     1       6.034   3.839  14.388  0.00  0.00    +0.000 A 
BRANCH  12  19
ATOM     18  C   UNL     1       4.385   3.128  11.426  0.00  0.00    +0.000 C 
ATOM     19  O   UNL     1       5.373   2.650  12.329  0.00  0.00    +0.000 OA
ENDBRANCH  12  19
ENDBRANCH  11  16
ENDBRANCH   1  11
BRANCH  10  20
ATOM     20  S   UNL     1       4.342   6.875  17.317  0.00  0.00    +0.000 S 
BRANCH  20  21
ATOM     21  C   UNL     1       2.763   7.104  18.172  0.00  0.00    +0.000 C 
BRANCH  21  22
ATOM     22  C   UNL     1       2.076   8.470  18.233  0.00  0.00    +0.000 C 
ATOM     23  O   UNL     1       2.463   9.326  17.424  0.00  0.00    +0.000 OA
ATOM     24  N   UNL     1       1.187   8.769  19.248  0.00  0.00    +0.000 N 
ATOM     25  H   UNL     1       1.147   8.143  20.038  0.00  0.00    +0.000 HD
BRANCH  24  26
ATOM     26  C   UNL     1       0.629  10.093  19.404  0.00  0.00    +0.000 A 
ATOM     27  C   UNL     1       1.180  11.010  20.337  0.00  0.00    +0.000 A 
ATOM     28  C   UNL     1       0.688  12.311  20.487  0.00  0.00    +0.000 A 
ATOM     29  C   UNL     1      -0.365  12.729  19.681  0.00  0.00    +0.000 A 
ATOM     30  C   UNL     1      -0.876  11.889  18.704  0.00  0.00    +0.000 A 
ATOM     31  C   UNL     1      -0.372  10.577  18.541  0.00  0.00    +0.000 A 
BRANCH  28  32
ATOM     32  O   UNL     1       1.330  13.071  21.422  0.00  0.00    +0.000 OA
ATOM     33  C   UNL     1       1.844  14.319  20.976  0.00  0.00    +0.000 C 
ENDBRANCH  28  32
BRANCH  31  34
ATOM     34  O   UNL     1      -0.950   9.892  17.502  0.00  0.00    +0.000 OA
ATOM     35  C   UNL     1      -2.375   9.872  17.499  0.00  0.00    +0.000 C 
ENDBRANCH  31  34
ENDBRANCH  24  26
ENDBRANCH  21  22
ENDBRANCH  20  21
ENDBRANCH  10  20
TORSDOF 9
ENDMDL
MODEL 2
REMARK VINA RESULT:      -8.1      1.833      2.337
REMARK  Name = 
REMARK  12 active torsions:
REMARK  status: ('A' for Active; 'I' for Inactive)
REMARK    1  A    between atoms: C_1  and  O_2
REMARK    2  A    between atoms: O_2  and  C_3
REMARK    3  A    between atoms: C_7  and  C_8
REMARK    4  A    between atoms: C_8  and  C_9
REMARK    5  A    between atoms: C_18  and  S_19
REMARK    6  A    between atoms: S_19  and  C_20
REMARK    7  A    between atoms: C_20  and  C_21
REMARK    8  A    between atoms: N_23  and  C_24
REMARK    9  A    between atoms: C_26  and  O_27
REMARK   10  A    between atoms: O_27  and  C_28
REMARK   11  A    between atoms: C_31  and  O_32
REMARK   12  A    between atoms: O_32  and  C_33
REMARK                            x       y       z     vdW  Elec       q    Type
REMARK                         _______ _______ _______ _____ _____    ______ ____
ROOT
ATOM      1  C   UNL     1       4.297   5.605  18.464  0.00  0.00    +0.000 A 
ATOM      2  N   UNL     1       4.219   4.870  19.593  0.00  0.00    +0.000 NA
ATOM      3  C   UNL     1       3.016   4.287  19.792  0.00  0.00    +0.000 A 
ATOM      4  C   UNL     1       2.437   4.115  21.037  0.00  0.00    +0.000 A 
ATOM      5  C   UNL     1       1.196   3.486  21.153  0.00  0.00    +0.000 A 
ATOM      6  C   UNL     1       0.696   2.800  20.054  0.00  0.00    +0.000 A 
ATOM      7  C   UNL     1       1.246   3.060  18.809  0.00  0.00    +0.000 A 
ATOM      8  C   UNL     1       2.156   4.105  18.718  0.00  0.00    +0.000 A 
ATOM      9  N   UNL     1       2.102   5.099  17.794  0.00  0.00    +0.000 NA
ATOM     10  C   UNL     1       3.114   5.990  17.853  0.00  0.00    +0.000 A 
ENDROOT
BRANCH   1  11
ATOM     11  C   UNL     1       5.630   5.990  17.885  0.00  0.00    +0.000 C 
BRANCH  11  16
ATOM     12  C   UNL     1       7.303   5.183  14.531  0.00  0.00    +0.000 A 
ATOM     13  C   UNL     1       6.545   4.090  14.105  0.00  0.00    +0.000 A 
ATOM     14  C   UNL     1       5.545   3.563  14.920  0.00  0.00    +0.000 A 
ATOM     15  C   UNL     1       5.279   4.145  16.163  0.00  0.00    +0.000 A 
ATOM     16  C   UNL     1       6.010   5.261  16.601  0.00  0.00    +0.000 A 
ATOM     17  C   UNL     1       7.060   5.738  15.793  0.00  0.00    +0.000 A 
BRANCH  12  19
ATOM     18  C   UNL     1       7.884   5.528  12.246  0.00  0.00    +0.000 C 
ATOM     19  O   UNL     1       8.228   5.618  13.622  0.00  0.00    +0.000 OA
ENDBRANCH  12  19
ENDBRANCH  11  16
ENDBRANCH   1  11
BRANCH  10  20
ATOM     20  S   UNL     1       2.787   7.776  18.259  0.00  0.00    +0.000 S 
BRANCH  20  21
ATOM     21  C   UNL     1       1.923   7.851  19.848  0.00  0.00    +0.000 C 
BRANCH  21  22
ATOM     22  C   UNL     1       0.995   9.016  20.201  0.00  0.00    +0.000 C 
ATOM     23  O   UNL     1       0.385   8.937  21.276  0.00  0.00    +0.000 OA
ATOM     24  N   UNL     1       0.740  10.017  19.283  0.00  0.00    +0.000 N 
ATOM     25  H   UNL     1       1.026   9.865  18.328  0.00  0.00    +0.000 HD
BRANCH  24  26
ATOM     26  C   UNL     1      -0.234  11.055  19.541  0.00  0.00    +0.000 A 
ATOM     27  C   UNL     1       0.149  12.271  20.167  0.00  0.00    +0.000 A 
ATOM     28  C   UNL     1      -0.760  13.310  20.397  0.00  0.00    +0.000 A 
ATOM     29  C   UNL     1      -2.078  13.156  19.982  0.00  0.00    +0.000 A 
ATOM     30  C   UNL     1      -2.468  12.016  19.297  0.00  0.00    +0.000 A 
ATOM     31  C   UNL     1      -1.550  10.968  19.051  0.00  0.00    +0.000 A 
BRANCH  28  32
ATOM     32  O   UNL     1      -0.235  14.416  21.002  0.00  0.00    +0.000 OA
ATOM     33  C   UNL     1       1.013  14.244  21.659  0.00  0.00    +0.000 C 
ENDBRANCH  28  32
BRANCH  31  34
ATOM     34  O   UNL     1      -2.079   9.934  18.321  0.00  0.00    +0.000 OA
ATOM     35  C   UNL     1      -3.292  10.229  17.632  0.00  0.00    +0.000 C 
ENDBRANCH  31  34
ENDBRANCH  24  26
ENDBRANCH  21  22
ENDBRANCH  20  21
ENDBRANCH  10  20
TORSDOF 9
ENDMDL
MODEL 3
REMARK VINA RESULT:      -8.0      1.261      1.397
REMARK  Name = 
REMARK  12 active torsions:
REMARK  status: ('A' for Active; 'I' for Inactive)
REMARK    1  A    between atoms: C_1  and  O_2
REMARK    2  A    between atoms: O_2  and  C_3
REMARK    3  A    between atoms: C_7  and  C_8
REMARK    4  A    between atoms: C_8  and  C_9
REMARK    5  A    between atoms: C_18  and  S_19
REMARK    6  A    between atoms: S_19  and  C_20
REMARK    7  A    between atoms: C_20  and  C_21
REMARK    8  A    between atoms: N_23  and  C_24
REMARK    9  A    between atoms: C_26  and  O_27
REMARK   10  A    between atoms: O_27  and  C_28
REMARK   11  A    between atoms: C_31  and  O_32
REMARK   12  A    between atoms: O_32  and  C_33
REMARK                            x       y       z     vdW  Elec       q    Type
REMARK                         _______ _______ _______ _____ _____    ______ ____
ROOT
ATOM      1  C   UNL     1       4.847   4.481  18.256  0.00  0.00    +0.000 A 
ATOM      2  N   UNL     1       4.522   3.894  19.427  0.00  0.00    +0.000 NA
ATOM      3  C   UNL     1       3.203   3.641  19.573  0.00  0.00    +0.000 A 
ATOM      4  C   UNL     1       2.527   3.730  20.778  0.00  0.00    +0.000 A 
ATOM      5  C   UNL     1       1.165   3.434  20.843  0.00  0.00    +0.000 A 
ATOM      6  C   UNL     1       0.575   2.792  19.762  0.00  0.00    +0.000 A 
ATOM      7  C   UNL     1       1.244   2.795  18.547  0.00  0.00    +0.000 A 
ATOM      8  C   UNL     1       2.389   3.575  18.451  0.00  0.00    +0.000 A 
ATOM      9  N   UNL     1       2.637   4.463  17.455  0.00  0.00    +0.000 NA
ATOM     10  C   UNL     1       3.834   5.083  17.527  0.00  0.00    +0.000 A 
ENDROOT
BRANCH   1  11
ATOM     11  C   UNL     1       6.265   4.476  17.758  0.00  0.00    +0.000 C 
BRANCH  11  16
ATOM     12  C   UNL     1       5.822   3.928  13.990  0.00  0.00    +0.000 A 
ATOM     13  C   UNL     1       6.864   4.705  13.478  0.00  0.00    +0.000 A 
ATOM     14  C   UNL     1       7.666   5.461  14.330  0.00  0.00    +0.000 A 
ATOM     15  C   UNL     1       7.444   5.427  15.710  0.00  0.00    +0.000 A 
ATOM     16  C   UNL     1       6.420   4.633  16.250  0.00  0.00    +0.000 A 
ATOM     17  C   UNL     1       5.579   3.927  15.368  0.00  0.00    +0.000 A 
BRANCH  12  19
ATOM     18  C   UNL     1       5.843   2.824  11.877  0.00  0.00    +0.000 C 
ATOM     19  O   UNL     1       5.136   3.211  13.048  0.00  0.00    +0.000 OA
ENDBRANCH  12  19
ENDBRANCH  11  16
ENDBRANCH   1  11
BRANCH  10  20
ATOM     20  S   UNL     1       3.938   6.925  17.771  0.00  0.00    +0.000 S 
BRANCH  20  21
ATOM     21  C   UNL     1       2.455   7.468  18.656  0.00  0.00    +0.000 C 
BRANCH  21  22
ATOM     22  C   UNL     1       1.811   8.829  18.380  0.00  0.00    +0.000 C 
ATOM     23  O   UNL     1       2.077   9.361  17.293  0.00  0.00    +0.000 OA
ATOM     24  N   UNL     1       1.104   9.488  19.366  0.00  0.00    +0.000 N 
ATOM     25  H   UNL     1       1.181   9.144  20.312  0.00  0.00    +0.000 HD
BRANCH  24  26
ATOM     26  C   UNL     1       0.601  10.830  19.174  0.00  0.00    +0.000 A 
ATOM     27  C   UNL     1       1.456  11.954  19.317  0.00  0.00    +0.000 A 
ATOM     28  C   UNL     1       1.011  13.264  19.101  0.00  0.00    +0.000 A 
ATOM     29  C   UNL     1      -0.308  13.470  18.714  0.00  0.00    +0.000 A 
ATOM     30  C   UNL     1      -1.149  12.393  18.488  0.00  0.00    +0.000 A 
ATOM     31  C   UNL     1      -0.700  11.066  18.692  0.00  0.00    +0.000 A 
BRANCH  28  32
ATOM     32  O   UNL     1       1.956  14.234  19.272  0.00  0.00    +0.000 OA
ATOM     33  C   UNL     1       2.680  14.620  18.112  0.00  0.00    +0.000 C 
ENDBRANCH  28  32
BRANCH  31  34
ATOM     34  O   UNL     1      -1.636  10.115  18.378  0.00  0.00    +0.000 OA
ATOM     35  C   UNL     1      -1.924   9.973  16.989  0.00  0.00    +0.000 C 
ENDBRANCH  31  34
ENDBRANCH  24  26
ENDBRANCH  21  22
ENDBRANCH  20  21
ENDBRANCH  10  20
TORSDOF 9
ENDMDL
MODEL 4
REMARK VINA RESULT:      -8.0      1.909      3.191
REMARK  Name = 
REMARK  12 active torsions:
REMARK  status: ('A' for Active; 'I' for Inactive)
REMARK    1  A    between atoms: C_1  and  O_2
REMARK    2  A    between atoms: O_2  and  C_3
REMARK    3  A    between atoms: C_7  and  C_8
REMARK    4  A    between atoms: C_8  and  C_9
REMARK    5  A    between atoms: C_18  and  S_19
REMARK    6  A    between atoms: S_19  and  C_20
REMARK    7  A    between atoms: C_20  and  C_21
REMARK    8  A    between atoms: N_23  and  C_24
REMARK    9  A    between atoms: C_26  and  O_27
REMARK   10  A    between atoms: O_27  and  C_28
REMARK   11  A    between atoms: C_31  and  O_32
REMARK   12  A    between atoms: O_32  and  C_33
REMARK                            x       y       z     vdW  Elec       q    Type
REMARK                         _______ _______ _______ _____ _____    ______ ____
ROOT
ATOM      1  C   UNL     1       4.160   5.274  18.612  0.00  0.00    +0.000 A 
ATOM      2  N   UNL     1       4.193   4.231  19.469  0.00  0.00    +0.000 NA
ATOM      3  C   UNL     1       3.000   3.624  19.648  0.00  0.00    +0.000 A 
ATOM      4  C   UNL     1       2.578   3.086  20.852  0.00  0.00    +0.000 A 
ATOM      5  C   UNL     1       1.334   2.461  20.945  0.00  0.00    +0.000 A 
ATOM      6  C   UNL     1       0.663   2.144  19.771  0.00  0.00    +0.000 A 
ATOM      7  C   UNL     1       1.059   2.766  18.597  0.00  0.00    +0.000 A 
ATOM      8  C   UNL     1       2.000   3.783  18.698  0.00  0.00    +0.000 A 
ATOM      9  N   UNL     1       1.875   5.010  18.132  0.00  0.00    +0.000 NA
ATOM     10  C   UNL     1       2.928   5.834  18.314  0.00  0.00    +0.000 A 
ENDROOT
BRANCH   1  11
ATOM     11  C   UNL     1       5.425   5.806  17.997  0.00  0.00    +0.000 C 
BRANCH  11  16
ATOM     12  C   UNL     1       7.258   5.106  14.703  0.00  0.00    +0.000 A 
ATOM     13  C   UNL     1       6.438   4.125  14.139  0.00  0.00    +0.000 A 
ATOM     14  C   UNL     1       5.339   3.634  14.840  0.00  0.00    +0.000 A 
ATOM     15  C   UNL     1       5.036   4.141  16.108  0.00  0.00    +0.000 A 
ATOM     16  C   UNL     1       5.830   5.146  16.684  0.00  0.00    +0.000 A 
ATOM     17  C   UNL     1       6.974   5.583  15.988  0.00  0.00    +0.000 A 
BRANCH  12  19
ATOM     18  C   UNL     1       7.996   5.685  12.512  0.00  0.00    +0.000 C 
ATOM     19  O   UNL     1       8.280   5.521  13.895  0.00  0.00    +0.000 OA
ENDBRANCH  12  19
ENDBRANCH  11  16
ENDBRANCH   1  11
BRANCH  10  20
ATOM     20  S   UNL     1       2.744   7.415  19.278  0.00  0.00    +0.000 S 
BRANCH  20  21
ATOM     21  C   UNL     1       2.593   8.785  18.103  0.00  0.00    +0.000 C 
BRANCH  21  22
ATOM     22  C   UNL     1       1.474   9.821  18.223  0.00  0.00    +0.000 C 
ATOM     23  O   UNL     1       1.763  10.990  17.930  0.00  0.00    +0.000 OA
ATOM     24  N   UNL     1       0.257   9.485  18.784  0.00  0.00    +0.000 N 
ATOM     25  H   UNL     1       0.191   8.606  19.275  0.00  0.00    +0.000 HD
BRANCH  24  26
ATOM     26  C   UNL     1      -0.767  10.476  19.030  0.00  0.00    +0.000 A 
ATOM     27  C   UNL     1      -1.870  10.615  18.147  0.00  0.00    +0.000 A 
ATOM     28  C   UNL     1      -2.897  11.538  18.375  0.00  0.00    +0.000 A 
ATOM     29  C   UNL     1      -2.847  12.332  19.515  0.00  0.00    +0.000 A 
ATOM     30  C   UNL     1      -1.828  12.168  20.439  0.00  0.00    +0.000 A 
ATOM     31  C   UNL     1      -0.794  11.227  20.219  0.00  0.00    +0.000 A 
BRANCH  28  32
ATOM     32  O   UNL     1      -3.890  11.545  17.438  0.00  0.00    +0.000 OA
ATOM     33  C   UNL     1      -3.542  11.066  16.146  0.00  0.00    +0.000 C 
ENDBRANCH  28  32
BRANCH  31  34
ATOM     34  O   UNL     1       0.110  11.154  21.248  0.00  0.00    +0.000 OA
ATOM     35  C   UNL     1      -0.243  10.271  22.311  0.00  0.00    +0.000 C 
ENDBRANCH  31  34
ENDBRANCH  24  26
ENDBRANCH  21  22
ENDBRANCH  20  21
ENDBRANCH  10  20
TORSDOF 9
ENDMDL
MODEL 5
REMARK VINA RESULT:      -8.0      4.831      8.158
REMARK  Name = 
REMARK  12 active torsions:
REMARK  status: ('A' for Active; 'I' for Inactive)
REMARK    1  A    between atoms: C_1  and  O_2
REMARK    2  A    between atoms: O_2  and  C_3
REMARK    3  A    between atoms: C_7  and  C_8
REMARK    4  A    between atoms: C_8  and  C_9
REMARK    5  A    between atoms: C_18  and  S_19
REMARK    6  A    between atoms: S_19  and  C_20
REMARK    7  A    between atoms: C_20  and  C_21
REMARK    8  A    between atoms: N_23  and  C_24
REMARK    9  A    between atoms: C_26  and  O_27
REMARK   10  A    between atoms: O_27  and  C_28
REMARK   11  A    between atoms: C_31  and  O_32
REMARK   12  A    between atoms: O_32  and  C_33
REMARK                            x       y       z     vdW  Elec       q    Type
REMARK                         _______ _______ _______ _____ _____    ______ ____
ROOT
ATOM      1  C   UNL     1       3.495   6.645  17.988  0.00  0.00    +0.000 A 
ATOM      2  N   UNL     1       2.746   5.600  17.577  0.00  0.00    +0.000 NA
ATOM      3  C   UNL     1       3.170   4.402  18.036  0.00  0.00    +0.000 A 
ATOM      4  C   UNL     1       3.101   3.226  17.307  0.00  0.00    +0.000 A 
ATOM      5  C   UNL     1       3.548   2.027  17.864  0.00  0.00    +0.000 A 
ATOM      6  C   UNL     1       3.792   1.983  19.231  0.00  0.00    +0.000 A 
ATOM      7  C   UNL     1       3.937   3.181  19.914  0.00  0.00    +0.000 A 
ATOM      8  C   UNL     1       3.984   4.345  19.158  0.00  0.00    +0.000 A 
ATOM      9  N   UNL     1       4.930   5.310  19.284  0.00  0.00    +0.000 NA
ATOM     10  C   UNL     1       4.762   6.384  18.484  0.00  0.00    +0.000 A 
ENDROOT
BRANCH   1  11
ATOM     11  C   UNL     1       2.964   8.050  17.913  0.00  0.00    +0.000 C 
BRANCH  11  16
ATOM     12  C   UNL     1       0.224   9.933  19.820  0.00  0.00    +0.000 A 
ATOM     13  C   UNL     1       0.213   9.242  21.034  0.00  0.00    +0.000 A 
ATOM     14  C   UNL     1       1.030   8.128  21.220  0.00  0.00    +0.000 A 
ATOM     15  C   UNL     1       1.885   7.711  20.195  0.00  0.00    +0.000 A 
ATOM     16  C   UNL     1       1.933   8.407  18.977  0.00  0.00    +0.000 A 
ATOM     17  C   UNL     1       1.053   9.490  18.784  0.00  0.00    +0.000 A 
BRANCH  12  19
ATOM     18  C   UNL     1      -0.004  12.301  19.976  0.00  0.00    +0.000 C 
ATOM     19  O   UNL     1      -0.600  11.025  19.784  0.00  0.00    +0.000 OA
ENDBRANCH  12  19
ENDBRANCH  11  16
ENDBRANCH   1  11
BRANCH  10  20
ATOM     20  S   UNL     1       6.013   6.797  17.170  0.00  0.00    +0.000 S 
BRANCH  20  21
ATOM     21  C   UNL     1       7.582   7.195  17.981  0.00  0.00    +0.000 C 
BRANCH  21  22
ATOM     22  C   UNL     1       8.036   8.642  18.180  0.00  0.00    +0.000 C 
ATOM     23  O   UNL     1       7.588   9.482  17.387  0.00  0.00    +0.000 OA
ATOM     24  N   UNL     1       9.019   8.954  19.100  0.00  0.00    +0.000 N 
ATOM     25  H   UNL     1       9.553   8.194  19.495  0.00  0.00    +0.000 HD
BRANCH  24  26
ATOM     26  C   UNL     1       9.559  10.290  19.213  0.00  0.00    +0.000 A 
ATOM     27  C   UNL     1      10.187  10.917  18.104  0.00  0.00    +0.000 A 
ATOM     28  C   UNL     1      10.686  12.223  18.169  0.00  0.00    +0.000 A 
ATOM     29  C   UNL     1      10.545  12.939  19.351  0.00  0.00    +0.000 A 
ATOM     30  C   UNL     1       9.867  12.389  20.428  0.00  0.00    +0.000 A 
ATOM     31  C   UNL     1       9.349  11.074  20.363  0.00  0.00    +0.000 A 
BRANCH  28  32
ATOM     32  O   UNL     1      11.256  12.684  17.017  0.00  0.00    +0.000 OA
ATOM     33  C   UNL     1      11.061  14.061  16.724  0.00  0.00    +0.000 C 
ENDBRANCH  28  32
BRANCH  31  34
ATOM     34  O   UNL     1       8.665  10.697  21.490  0.00  0.00    +0.000 OA
ATOM     35  C   UNL     1       8.339  11.753  22.391  0.00  0.00    +0.000 C 
ENDBRANCH  31  34
ENDBRANCH  24  26
ENDBRANCH  21  22
ENDBRANCH  20  21
ENDBRANCH  10  20
TORSDOF 9
ENDMDL
MODEL 6
REMARK VINA RESULT:      -8.0      1.136      2.583
REMARK  Name = 
REMARK  12 active torsions:
REMARK  status: ('A' for Active; 'I' for Inactive)
REMARK    1  A    between atoms: C_1  and  O_2
REMARK    2  A    between atoms: O_2  and  C_3
REMARK    3  A    between atoms: C_7  and  C_8
REMARK    4  A    between atoms: C_8  and  C_9
REMARK    5  A    between atoms: C_18  and  S_19
REMARK    6  A    between atoms: S_19  and  C_20
REMARK    7  A    between atoms: C_20  and  C_21
REMARK    8  A    between atoms: N_23  and  C_24
REMARK    9  A    between atoms: C_26  and  O_27
REMARK   10  A    between atoms: O_27  and  C_28
REMARK   11  A    between atoms: C_31  and  O_32
REMARK   12  A    between atoms: O_32  and  C_33
REMARK                            x       y       z     vdW  Elec       q    Type
REMARK                         _______ _______ _______ _____ _____    ______ ____
ROOT
ATOM      1  C   UNL     1       4.876   4.417  18.115  0.00  0.00    +0.000 A 
ATOM      2  N   UNL     1       4.564   3.863  19.305  0.00  0.00    +0.000 NA
ATOM      3  C   UNL     1       3.241   3.666  19.494  0.00  0.00    +0.000 A 
ATOM      4  C   UNL     1       2.606   3.802  20.717  0.00  0.00    +0.000 A 
ATOM      5  C   UNL     1       1.236   3.563  20.827  0.00  0.00    +0.000 A 
ATOM      6  C   UNL     1       0.587   2.927  19.775  0.00  0.00    +0.000 A 
ATOM      7  C   UNL     1       1.220   2.883  18.542  0.00  0.00    +0.000 A 
ATOM      8  C   UNL     1       2.391   3.615  18.398  0.00  0.00    +0.000 A 
ATOM      9  N   UNL     1       2.645   4.475  17.379  0.00  0.00    +0.000 NA
ATOM     10  C   UNL     1       3.867   5.047  17.405  0.00  0.00    +0.000 A 
ENDROOT
BRANCH   1  11
ATOM     11  C   UNL     1       6.278   4.345  17.575  0.00  0.00    +0.000 C 
BRANCH  11  16
ATOM     12  C   UNL     1       5.711   3.895  13.810  0.00  0.00    +0.000 A 
ATOM     13  C   UNL     1       6.771   4.638  13.285  0.00  0.00    +0.000 A 
ATOM     14  C   UNL     1       7.626   5.343  14.129  0.00  0.00    +0.000 A 
ATOM     15  C   UNL     1       7.440   5.289  15.514  0.00  0.00    +0.000 A 
ATOM     16  C   UNL     1       6.398   4.527  16.066  0.00  0.00    +0.000 A 
ATOM     17  C   UNL     1       5.505   3.875  15.195  0.00  0.00    +0.000 A 
BRANCH  12  19
ATOM     18  C   UNL     1       5.668   2.651  11.778  0.00  0.00    +0.000 C 
ATOM     19  O   UNL     1       4.971   3.227  12.874  0.00  0.00    +0.000 OA
ENDBRANCH  12  19
ENDBRANCH  11  16
ENDBRANCH   1  11
BRANCH  10  20
ATOM     20  S   UNL     1       4.053   6.887  17.613  0.00  0.00    +0.000 S 
BRANCH  20  21
ATOM     21  C   UNL     1       2.747   7.470  18.723  0.00  0.00    +0.000 C 
BRANCH  21  22
ATOM     22  C   UNL     1       1.852   8.655  18.353  0.00  0.00    +0.000 C 
ATOM     23  O   UNL     1       2.097   9.226  17.282  0.00  0.00    +0.000 OA
ATOM     24  N   UNL     1       0.927   9.149  19.253  0.00  0.00    +0.000 N 
ATOM     25  H   UNL     1       0.987   8.835  20.211  0.00  0.00    +0.000 HD
BRANCH  24  26
ATOM     26  C   UNL     1       0.165  10.347  18.980  0.00  0.00    +0.000 A 
ATOM     27  C   UNL     1      -0.932  10.321  18.079  0.00  0.00    +0.000 A 
ATOM     28  C   UNL     1      -1.714  11.452  17.820  0.00  0.00    +0.000 A 
ATOM     29  C   UNL     1      -1.419  12.639  18.483  0.00  0.00    +0.000 A 
ATOM     30  C   UNL     1      -0.407  12.681  19.428  0.00  0.00    +0.000 A 
ATOM     31  C   UNL     1       0.377  11.535  19.702  0.00  0.00    +0.000 A 
BRANCH  28  32
ATOM     32  O   UNL     1      -2.735  11.262  16.935  0.00  0.00    +0.000 OA
ATOM     33  C   UNL     1      -2.963   9.925  16.512  0.00  0.00    +0.000 C 
ENDBRANCH  28  32
BRANCH  31  34
ATOM     34  O   UNL     1       1.303  11.729  20.696  0.00  0.00    +0.000 OA
ATOM     35  C   UNL     1       2.056  12.936  20.604  0.00  0.00    +0.000 C 
ENDBRANCH  31  34
ENDBRANCH  24  26
ENDBRANCH  21  22
ENDBRANCH  20  21
ENDBRANCH  10  20
TORSDOF 9
ENDMDL
MODEL 7
REMARK VINA RESULT:      -7.9      2.890      3.715
REMARK  Name = 
REMARK  12 active torsions:
REMARK  status: ('A' for Active; 'I' for Inactive)
REMARK    1  A    between atoms: C_1  and  O_2
REMARK    2  A    between atoms: O_2  and  C_3
REMARK    3  A    between atoms: C_7  and  C_8
REMARK    4  A    between atoms: C_8  and  C_9
REMARK    5  A    between atoms: C_18  and  S_19
REMARK    6  A    between atoms: S_19  and  C_20
REMARK    7  A    between atoms: C_20  and  C_21
REMARK    8  A    between atoms: N_23  and  C_24
REMARK    9  A    between atoms: C_26  and  O_27
REMARK   10  A    between atoms: O_27  and  C_28
REMARK   11  A    between atoms: C_31  and  O_32
REMARK   12  A    between atoms: O_32  and  C_33
REMARK                            x       y       z     vdW  Elec       q    Type
REMARK                         _______ _______ _______ _____ _____    ______ ____
ROOT
ATOM      1  C   UNL     1       3.962   4.917  17.865  0.00  0.00    +0.000 A 
ATOM      2  N   UNL     1       4.106   3.888  18.726  0.00  0.00    +0.000 NA
ATOM      3  C   UNL     1       2.940   3.387  19.190  0.00  0.00    +0.000 A 
ATOM      4  C   UNL     1       2.763   2.904  20.476  0.00  0.00    +0.000 A 
ATOM      5  C   UNL     1       1.527   2.388  20.868  0.00  0.00    +0.000 A 
ATOM      6  C   UNL     1       0.583   2.112  19.887  0.00  0.00    +0.000 A 
ATOM      7  C   UNL     1       0.750   2.681  18.633  0.00  0.00    +0.000 A 
ATOM      8  C   UNL     1       1.766   3.616  18.486  0.00  0.00    +0.000 A 
ATOM      9  N   UNL     1       1.614   4.841  17.921  0.00  0.00    +0.000 NA
ATOM     10  C   UNL     1       2.743   5.575  17.834  0.00  0.00    +0.000 A 
ENDROOT
BRANCH   1  11
ATOM     11  C   UNL     1       5.092   5.330  16.963  0.00  0.00    +0.000 C 
BRANCH  11  16
ATOM     12  C   UNL     1       7.677   8.043  17.773  0.00  0.00    +0.000 A 
ATOM     13  C   UNL     1       8.469   7.390  18.721  0.00  0.00    +0.000 A 
ATOM     14  C   UNL     1       8.137   6.109  19.157  0.00  0.00    +0.000 A 
ATOM     15  C   UNL     1       7.018   5.459  18.625  0.00  0.00    +0.000 A 
ATOM     16  C   UNL     1       6.223   6.085  17.652  0.00  0.00    +0.000 A 
ATOM     17  C   UNL     1       6.537   7.405  17.272  0.00  0.00    +0.000 A 
BRANCH  12  19
ATOM     18  C   UNL     1       8.786  10.055  18.408  0.00  0.00    +0.000 C 
ATOM     19  O   UNL     1       8.135   9.280  17.410  0.00  0.00    +0.000 OA
ENDBRANCH  12  19
ENDBRANCH  11  16
ENDBRANCH   1  11
BRANCH  10  20
ATOM     20  S   UNL     1       2.909   7.180  18.761  0.00  0.00    +0.000 S 
BRANCH  20  21
ATOM     21  C   UNL     1       2.414   8.528  17.659  0.00  0.00    +0.000 C 
BRANCH  21  22
ATOM     22  C   UNL     1       1.523   9.673  18.146  0.00  0.00    +0.000 C 
ATOM     23  O   UNL     1       1.965  10.822  18.007  0.00  0.00    +0.000 OA
ATOM     24  N   UNL     1       0.361   9.415  18.848  0.00  0.00    +0.000 N 
ATOM     25  H   UNL     1       0.215   8.476  19.188  0.00  0.00    +0.000 HD
BRANCH  24  26
ATOM     26  C   UNL     1      -0.426  10.476  19.433  0.00  0.00    +0.000 A 
ATOM     27  C   UNL     1      -0.102  11.003  20.711  0.00  0.00    +0.000 A 
ATOM     28  C   UNL     1      -0.820  12.055  21.289  0.00  0.00    +0.000 A 
ATOM     29  C   UNL     1      -1.875  12.619  20.582  0.00  0.00    +0.000 A 
ATOM     30  C   UNL     1      -2.170  12.184  19.299  0.00  0.00    +0.000 A 
ATOM     31  C   UNL     1      -1.438  11.129  18.705  0.00  0.00    +0.000 A 
BRANCH  28  32
ATOM     32  O   UNL     1      -0.379  12.452  22.519  0.00  0.00    +0.000 OA
ATOM     33  C   UNL     1      -1.188  13.398  23.205  0.00  0.00    +0.000 C 
ENDBRANCH  28  32
BRANCH  31  34
ATOM     34  O   UNL     1      -1.822  10.852  17.418  0.00  0.00    +0.000 OA
ATOM     35  C   UNL     1      -3.126  11.300  17.057  0.00  0.00    +0.000 C 
ENDBRANCH  31  34
ENDBRANCH  24  26
ENDBRANCH  21  22
ENDBRANCH  20  21
ENDBRANCH  10  20
TORSDOF 9
ENDMDL
MODEL 8
REMARK VINA RESULT:      -7.9      1.479      2.982
REMARK  Name = 
REMARK  12 active torsions:
REMARK  status: ('A' for Active; 'I' for Inactive)
REMARK    1  A    between atoms: C_1  and  O_2
REMARK    2  A    between atoms: O_2  and  C_3
REMARK    3  A    between atoms: C_7  and  C_8
REMARK    4  A    between atoms: C_8  and  C_9
REMARK    5  A    between atoms: C_18  and  S_19
REMARK    6  A    between atoms: S_19  and  C_20
REMARK    7  A    between atoms: C_20  and  C_21
REMARK    8  A    between atoms: N_23  and  C_24
REMARK    9  A    between atoms: C_26  and  O_27
REMARK   10  A    between atoms: O_27  and  C_28
REMARK   11  A    between atoms: C_31  and  O_32
REMARK   12  A    between atoms: O_32  and  C_33
REMARK                            x       y       z     vdW  Elec       q    Type
REMARK                         _______ _______ _______ _____ _____    ______ ____
ROOT
ATOM      1  C   UNL     1       4.863   4.565  18.332  0.00  0.00    +0.000 A 
ATOM      2  N   UNL     1       4.531   3.954  19.489  0.00  0.00    +0.000 NA
ATOM      3  C   UNL     1       3.206   3.735  19.638  0.00  0.00    +0.000 A 
ATOM      4  C   UNL     1       2.542   3.808  20.851  0.00  0.00    +0.000 A 
ATOM      5  C   UNL     1       1.172   3.550  20.917  0.00  0.00    +0.000 A 
ATOM      6  C   UNL     1       0.556   2.954  19.824  0.00  0.00    +0.000 A 
ATOM      7  C   UNL     1       1.217   2.973  18.605  0.00  0.00    +0.000 A 
ATOM      8  C   UNL     1       2.382   3.723  18.521  0.00  0.00    +0.000 A 
ATOM      9  N   UNL     1       2.648   4.631  17.548  0.00  0.00    +0.000 NA
ATOM     10  C   UNL     1       3.863   5.215  17.628  0.00  0.00    +0.000 A 
ENDROOT
BRANCH   1  11
ATOM     11  C   UNL     1       6.277   4.533  17.822  0.00  0.00    +0.000 C 
BRANCH  11  16
ATOM     12  C   UNL     1       7.435   5.085  14.210  0.00  0.00    +0.000 A 
ATOM     13  C   UNL     1       6.511   4.309  13.506  0.00  0.00    +0.000 A 
ATOM     14  C   UNL     1       5.561   3.551  14.188  0.00  0.00    +0.000 A 
ATOM     15  C   UNL     1       5.514   3.584  15.585  0.00  0.00    +0.000 A 
ATOM     16  C   UNL     1       6.415   4.378  16.312  0.00  0.00    +0.000 A 
ATOM     17  C   UNL     1       7.409   5.085  15.609  0.00  0.00    +0.000 A 
BRANCH  12  19
ATOM     18  C   UNL     1       8.035   5.809  12.019  0.00  0.00    +0.000 C 
ATOM     19  O   UNL     1       8.289   5.804  13.418  0.00  0.00    +0.000 OA
ENDBRANCH  12  19
ENDBRANCH  11  16
ENDBRANCH   1  11
BRANCH  10  20
ATOM     20  S   UNL     1       4.021   7.046  17.922  0.00  0.00    +0.000 S 
BRANCH  20  21
ATOM     21  C   UNL     1       2.643   7.576  18.970  0.00  0.00    +0.000 C 
BRANCH  21  22
ATOM     22  C   UNL     1       1.617   8.603  18.484  0.00  0.00    +0.000 C 
ATOM     23  O   UNL     1       1.724   8.986  17.311  0.00  0.00    +0.000 OA
ATOM     24  N   UNL     1       0.726   9.183  19.367  0.00  0.00    +0.000 N 
ATOM     25  H   UNL     1       0.890   9.055  20.355  0.00  0.00    +0.000 HD
BRANCH  24  26
ATOM     26  C   UNL     1      -0.161  10.250  18.962  0.00  0.00    +0.000 A 
ATOM     27  C   UNL     1      -1.290   9.985  18.143  0.00  0.00    +0.000 A 
ATOM     28  C   UNL     1      -2.190  10.987  17.764  0.00  0.00    +0.000 A 
ATOM     29  C   UNL     1      -1.982  12.285  18.219  0.00  0.00    +0.000 A 
ATOM     30  C   UNL     1      -0.936  12.565  19.084  0.00  0.00    +0.000 A 
ATOM     31  C   UNL     1      -0.032  11.552  19.480  0.00  0.00    +0.000 A 
BRANCH  28  32
ATOM     32  O   UNL     1      -3.228  10.570  16.982  0.00  0.00    +0.000 OA
ATOM     33  C   UNL     1      -4.262  11.516  16.749  0.00  0.00    +0.000 C 
ENDBRANCH  28  32
BRANCH  31  34
ATOM     34  O   UNL     1       0.916  11.981  20.374  0.00  0.00    +0.000 OA
ATOM     35  C   UNL     1       0.466  12.938  21.331  0.00  0.00    +0.000 C 
ENDBRANCH  31  34
ENDBRANCH  24  26
ENDBRANCH  21  22
ENDBRANCH  20  21
ENDBRANCH  10  20
TORSDOF 9
ENDMDL
MODEL 9
REMARK VINA RESULT:      -7.8      1.918      3.153
REMARK  Name = 
REMARK  12 active torsions:
REMARK  status: ('A' for Active; 'I' for Inactive)
REMARK    1  A    between atoms: C_1  and  O_2
REMARK    2  A    between atoms: O_2  and  C_3
REMARK    3  A    between atoms: C_7  and  C_8
REMARK    4  A    between atoms: C_8  and  C_9
REMARK    5  A    between atoms: C_18  and  S_19
REMARK    6  A    between atoms: S_19  and  C_20
REMARK    7  A    between atoms: C_20  and  C_21
REMARK    8  A    between atoms: N_23  and  C_24
REMARK    9  A    between atoms: C_26  and  O_27
REMARK   10  A    between atoms: O_27  and  C_28
REMARK   11  A    between atoms: C_31  and  O_32
REMARK   12  A    between atoms: O_32  and  C_33
REMARK                            x       y       z     vdW  Elec       q    Type
REMARK                         _______ _______ _______ _____ _____    ______ ____
ROOT
ATOM      1  C   UNL     1       3.854   5.941  18.330  0.00  0.00    +0.000 A 
ATOM      2  N   UNL     1       4.163   4.887  19.116  0.00  0.00    +0.000 NA
ATOM      3  C   UNL     1       3.120   4.070  19.381  0.00  0.00    +0.000 A 
ATOM      4  C   UNL     1       2.936   3.418  20.588  0.00  0.00    +0.000 A 
ATOM      5  C   UNL     1       1.837   2.578  20.772  0.00  0.00    +0.000 A 
ATOM      6  C   UNL     1       1.103   2.193  19.657  0.00  0.00    +0.000 A 
ATOM      7  C   UNL     1       1.252   2.922  18.487  0.00  0.00    +0.000 A 
ATOM      8  C   UNL     1       2.008   4.086  18.551  0.00  0.00    +0.000 A 
ATOM      9  N   UNL     1       1.610   5.292  18.074  0.00  0.00    +0.000 NA
ATOM     10  C   UNL     1       2.519   6.283  18.195  0.00  0.00    +0.000 A 
ENDROOT
BRANCH   1  11
ATOM     11  C   UNL     1       4.931   6.714  17.620  0.00  0.00    +0.000 C 
BRANCH  11  16
ATOM     12  C   UNL     1       5.612   4.521  14.550  0.00  0.00    +0.000 A 
ATOM     13  C   UNL     1       6.984   4.288  14.681  0.00  0.00    +0.000 A 
ATOM     14  C   UNL     1       7.707   4.889  15.709  0.00  0.00    +0.000 A 
ATOM     15  C   UNL     1       7.055   5.712  16.633  0.00  0.00    +0.000 A 
ATOM     16  C   UNL     1       5.673   5.939  16.537  0.00  0.00    +0.000 A 
ATOM     17  C   UNL     1       4.971   5.376  15.453  0.00  0.00    +0.000 A 
BRANCH  12  19
ATOM     18  C   UNL     1       5.823   3.548  12.384  0.00  0.00    +0.000 C 
ATOM     19  O   UNL     1       5.020   3.844  13.519  0.00  0.00    +0.000 OA
ENDBRANCH  12  19
ENDBRANCH  11  16
ENDBRANCH   1  11
BRANCH  10  20
ATOM     20  S   UNL     1       2.173   7.767  19.264  0.00  0.00    +0.000 S 
BRANCH  20  21
ATOM     21  C   UNL     1       1.978   9.211  18.190  0.00  0.00    +0.000 C 
BRANCH  21  22
ATOM     22  C   UNL     1       0.904  10.268  18.457  0.00  0.00    +0.000 C 
ATOM     23  O   UNL     1       1.251  11.453  18.355  0.00  0.00    +0.000 OA
ATOM     24  N   UNL     1      -0.337   9.906  18.943  0.00  0.00    +0.000 N 
ATOM     25  H   UNL     1      -0.452   8.965  19.289  0.00  0.00    +0.000 HD
BRANCH  24  26
ATOM     26  C   UNL     1      -1.321  10.893  19.329  0.00  0.00    +0.000 A 
ATOM     27  C   UNL     1      -2.510  11.069  18.573  0.00  0.00    +0.000 A 
ATOM     28  C   UNL     1      -3.498  11.989  18.940  0.00  0.00    +0.000 A 
ATOM     29  C   UNL     1      -3.321  12.743  20.095  0.00  0.00    +0.000 A 
ATOM     30  C   UNL     1      -2.211  12.541  20.900  0.00  0.00    +0.000 A 
ATOM     31  C   UNL     1      -1.215  11.603  20.540  0.00  0.00    +0.000 A 
BRANCH  28  32
ATOM     32  O   UNL     1      -4.584  12.034  18.114  0.00  0.00    +0.000 OA
ATOM     33  C   UNL     1      -4.404  11.509  16.806  0.00  0.00    +0.000 C 
ENDBRANCH  28  32
BRANCH  31  34
ATOM     34  O   UNL     1      -0.209  11.488  21.464  0.00  0.00    +0.000 OA
ATOM     35  C   UNL     1      -0.458  10.577  22.532  0.00  0.00    +0.000 C 
ENDBRANCH  31  34
ENDBRANCH  24  26
ENDBRANCH  21  22
ENDBRANCH  20  21
ENDBRANCH  10  20
TORSDOF 9
ENDMDL
