MODEL 1
REMARK VINA RESULT:      -7.4      0.000      0.000
REMARK  Name = 
REMARK  2 active torsions:
REMARK  status: ('A' for Active; 'I' for Inactive)
REMARK    1  A    between atoms: C_1  and  C_2
REMARK    2  A    between atoms: C_6  and  C_7
REMARK                            x       y       z     vdW  Elec       q    Type
REMARK                         _______ _______ _______ _____ _____    ______ ____
ROOT
ATOM      1  C   UNL     1       5.283   4.857  19.117  0.00  0.00    +0.000 C 
ATOM      2  C   UNL     1       5.628   4.657  17.830  0.00  0.00    +0.000 C 
ATOM      3  C   UNL     1       4.651   4.472  16.726  0.00  0.00    +0.000 C 
ATOM      4  O   UNL     1       3.443   4.318  16.870  0.00  0.00    +0.000 OA
ATOM      5  N   UNL     1       5.197   4.431  15.468  0.00  0.00    +0.000 N 
ATOM      6  C   UNL     1       6.520   4.424  15.161  0.00  0.00    +0.000 C 
ATOM      7  S   UNL     1       7.041   4.307  13.586  0.00  0.00    +0.000 S 
ATOM      8  N   UNL     1       7.399   4.505  16.194  0.00  0.00    +0.000 N 
ATOM      9  C   UNL     1       7.080   4.627  17.520  0.00  0.00    +0.000 C 
ATOM     10  O   UNL     1       7.959   4.686  18.376  0.00  0.00    +0.000 OA
ATOM     11  H   UNL     1       4.533   4.325  14.712  0.00  0.00    +0.000 HD
ATOM     12  H   UNL     1       8.388   4.480  15.979  0.00  0.00    +0.000 HD
ENDROOT
BRANCH   1  18
ATOM     13  C   UNL     1       1.704   2.474  21.284  0.00  0.00    +0.000 C 
ATOM     14  C   UNL     1       2.213   3.759  20.705  0.00  0.00    +0.000 A 
ATOM     15  C   UNL     1       1.433   4.913  20.759  0.00  0.00    +0.000 A 
ATOM     16  C   UNL     1       1.924   6.081  20.187  0.00  0.00    +0.000 A 
ATOM     17  C   UNL     1       3.184   6.073  19.603  0.00  0.00    +0.000 A 
ATOM     18  C   UNL     1       3.918   4.893  19.633  0.00  0.00    +0.000 A 
ATOM     19  N   UNL     1       3.447   3.733  20.143  0.00  0.00    +0.000 NA
ENDBRANCH   1  18
TORSDOF 1
ENDMDL
MODEL 2
REMARK VINA RESULT:      -7.2      0.765      1.622
REMARK  Name = 
REMARK  2 active torsions:
REMARK  status: ('A' for Active; 'I' for Inactive)
REMARK    1  A    between atoms: C_1  and  C_2
REMARK    2  A    between atoms: C_6  and  C_7
REMARK                            x       y       z     vdW  Elec       q    Type
REMARK                         _______ _______ _______ _____ _____    ______ ____
ROOT
ATOM      1  C   UNL     1       5.435   4.378  19.121  0.00  0.00    +0.000 C 
ATOM      2  C   UNL     1       5.745   4.369  17.811  0.00  0.00    +0.000 C 
ATOM      3  C   UNL     1       4.743   4.242  16.720  0.00  0.00    +0.000 C 
ATOM      4  O   UNL     1       3.557   3.973  16.879  0.00  0.00    +0.000 OA
ATOM      5  N   UNL     1       5.241   4.403  15.452  0.00  0.00    +0.000 N 
ATOM      6  C   UNL     1       6.547   4.543  15.108  0.00  0.00    +0.000 C 
ATOM      7  S   UNL     1       7.014   4.666  13.517  0.00  0.00    +0.000 S 
ATOM      8  N   UNL     1       7.457   4.567  16.118  0.00  0.00    +0.000 N 
ATOM      9  C   UNL     1       7.181   4.497  17.457  0.00  0.00    +0.000 C 
ATOM     10  O   UNL     1       8.086   4.521  18.288  0.00  0.00    +0.000 OA
ATOM     11  H   UNL     1       4.558   4.338  14.709  0.00  0.00    +0.000 HD
ATOM     12  H   UNL     1       8.436   4.650  15.872  0.00  0.00    +0.000 HD
ENDROOT
BRANCH   1  18
ATOM     13  C   UNL     1       1.410   6.566  20.605  0.00  0.00    +0.000 C 
ATOM     14  C   UNL     1       2.147   5.285  20.355  0.00  0.00    +0.000 A 
ATOM     15  C   UNL     1       1.521   4.059  20.569  0.00  0.00    +0.000 A 
ATOM     16  C   UNL     1       2.243   2.890  20.355  0.00  0.00    +0.000 A 
ATOM     17  C   UNL     1       3.557   2.976  19.911  0.00  0.00    +0.000 A 
ATOM     18  C   UNL     1       4.093   4.237  19.677  0.00  0.00    +0.000 A 
ATOM     19  N   UNL     1       3.427   5.389  19.919  0.00  0.00    +0.000 NA
ENDBRANCH   1  18
TORSDOF 1
ENDMDL
MODEL 3
REMARK VINA RESULT:      -6.8      3.097      6.052
REMARK  Name = 
REMARK  2 active torsions:
REMARK  status: ('A' for Active; 'I' for Inactive)
REMARK    1  A    between atoms: C_1  and  C_2
REMARK    2  A    between atoms: C_6  and  C_7
REMARK                            x       y       z     vdW  Elec       q    Type
REMARK                         _______ _______ _______ _____ _____    ______ ____
ROOT
ATOM      1  C   UNL     1       3.572   4.631  16.938  0.00  0.00    +0.000 C 
ATOM      2  C   UNL     1       3.147   4.068  18.085  0.00  0.00    +0.000 C 
ATOM      3  C   UNL     1       4.049   3.647  19.189  0.00  0.00    +0.000 C 
ATOM      4  O   UNL     1       5.273   3.610  19.126  0.00  0.00    +0.000 OA
ATOM      5  N   UNL     1       3.413   3.234  20.332  0.00  0.00    +0.000 N 
ATOM      6  C   UNL     1       2.076   3.065  20.498  0.00  0.00    +0.000 C 
ATOM      7  S   UNL     1       1.448   2.493  21.928  0.00  0.00    +0.000 S 
ATOM      8  N   UNL     1       1.275   3.371  19.444  0.00  0.00    +0.000 N 
ATOM      9  C   UNL     1       1.684   3.869  18.235  0.00  0.00    +0.000 C 
ATOM     10  O   UNL     1       0.871   4.106  17.345  0.00  0.00    +0.000 OA
ATOM     11  H   UNL     1       4.024   2.965  21.093  0.00  0.00    +0.000 HD
ATOM     12  H   UNL     1       0.277   3.231  19.549  0.00  0.00    +0.000 HD
ENDROOT
BRANCH   1  18
ATOM     13  C   UNL     1       7.464   7.403  17.530  0.00  0.00    +0.000 C 
ATOM     14  C   UNL     1       6.844   6.196  16.896  0.00  0.00    +0.000 A 
ATOM     15  C   UNL     1       7.610   5.348  16.097  0.00  0.00    +0.000 A 
ATOM     16  C   UNL     1       6.995   4.253  15.501  0.00  0.00    +0.000 A 
ATOM     17  C   UNL     1       5.647   4.020  15.736  0.00  0.00    +0.000 A 
ATOM     18  C   UNL     1       4.965   4.886  16.583  0.00  0.00    +0.000 A 
ATOM     19  N   UNL     1       5.527   5.982  17.141  0.00  0.00    +0.000 NA
ENDBRANCH   1  18
TORSDOF 1
ENDMDL
MODEL 4
REMARK VINA RESULT:      -6.5      4.472      6.155
REMARK  Name = 
REMARK  2 active torsions:
REMARK  status: ('A' for Active; 'I' for Inactive)
REMARK    1  A    between atoms: C_1  and  C_2
REMARK    2  A    between atoms: C_6  and  C_7
REMARK                            x       y       z     vdW  Elec       q    Type
REMARK                         _______ _______ _______ _____ _____    ______ ____
ROOT
ATOM      1  C   UNL     1       2.974   7.065  18.134  0.00  0.00    +0.000 C 
ATOM      2  C   UNL     1       2.192   7.787  18.959  0.00  0.00    +0.000 C 
ATOM      3  C   UNL     1       1.751   7.327  20.302  0.00  0.00    +0.000 C 
ATOM      4  O   UNL     1       1.905   6.194  20.746  0.00  0.00    +0.000 OA
ATOM      5  N   UNL     1       1.085   8.267  21.048  0.00  0.00    +0.000 N 
ATOM      6  C   UNL     1       0.698   9.501  20.635  0.00  0.00    +0.000 C 
ATOM      7  S   UNL     1      -0.164  10.515  21.632  0.00  0.00    +0.000 S 
ATOM      8  N   UNL     1       1.035   9.868  19.371  0.00  0.00    +0.000 N 
ATOM      9  C   UNL     1       1.759   9.124  18.478  0.00  0.00    +0.000 C 
ATOM     10  O   UNL     1       2.003   9.553  17.353  0.00  0.00    +0.000 OA
ATOM     11  H   UNL     1       0.800   7.963  21.970  0.00  0.00    +0.000 HD
ATOM     12  H   UNL     1       0.735  10.779  19.045  0.00  0.00    +0.000 HD
ENDROOT
BRANCH   1  18
ATOM     13  C   UNL     1       2.301   2.315  17.717  0.00  0.00    +0.000 C 
ATOM     14  C   UNL     1       3.175   3.444  18.173  0.00  0.00    +0.000 A 
ATOM     15  C   UNL     1       4.424   3.185  18.733  0.00  0.00    +0.000 A 
ATOM     16  C   UNL     1       5.197   4.254  19.171  0.00  0.00    +0.000 A 
ATOM     17  C   UNL     1       4.717   5.547  19.017  0.00  0.00    +0.000 A 
ATOM     18  C   UNL     1       3.481   5.723  18.405  0.00  0.00    +0.000 A 
ATOM     19  N   UNL     1       2.690   4.700  18.009  0.00  0.00    +0.000 NA
ENDBRANCH   1  18
TORSDOF 1
ENDMDL
MODEL 5
REMARK VINA RESULT:      -6.5      2.437      2.733
REMARK  Name = 
REMARK  2 active torsions:
REMARK  status: ('A' for Active; 'I' for Inactive)
REMARK    1  A    between atoms: C_1  and  C_2
REMARK    2  A    between atoms: C_6  and  C_7
REMARK                            x       y       z     vdW  Elec       q    Type
REMARK                         _______ _______ _______ _____ _____    ______ ____
ROOT
ATOM      1  C   UNL     1       4.574   3.624  17.318  0.00  0.00    +0.000 C 
ATOM      2  C   UNL     1       5.281   4.770  17.347  0.00  0.00    +0.000 C 
ATOM      3  C   UNL     1       4.932   5.941  18.193  0.00  0.00    +0.000 C 
ATOM      4  O   UNL     1       3.891   6.067  18.829  0.00  0.00    +0.000 OA
ATOM      5  N   UNL     1       5.858   6.953  18.194  0.00  0.00    +0.000 N 
ATOM      6  C   UNL     1       6.972   7.031  17.421  0.00  0.00    +0.000 C 
ATOM      7  S   UNL     1       7.976   8.356  17.482  0.00  0.00    +0.000 S 
ATOM      8  N   UNL     1       7.225   5.988  16.588  0.00  0.00    +0.000 N 
ATOM      9  C   UNL     1       6.481   4.844  16.475  0.00  0.00    +0.000 C 
ATOM     10  O   UNL     1       6.799   3.962  15.681  0.00  0.00    +0.000 OA
ATOM     11  H   UNL     1       5.633   7.744  18.784  0.00  0.00    +0.000 HD
ATOM     12  H   UNL     1       8.042   6.044  15.992  0.00  0.00    +0.000 HD
ENDROOT
BRANCH   1  18
ATOM     13  C   UNL     1       2.599   2.478  21.557  0.00  0.00    +0.000 C 
ATOM     14  C   UNL     1       2.404   2.846  20.117  0.00  0.00    +0.000 A 
ATOM     15  C   UNL     1       1.120   3.003  19.599  0.00  0.00    +0.000 A 
ATOM     16  C   UNL     1       0.975   3.317  18.252  0.00  0.00    +0.000 A 
ATOM     17  C   UNL     1       2.109   3.489  17.469  0.00  0.00    +0.000 A 
ATOM     18  C   UNL     1       3.354   3.361  18.074  0.00  0.00    +0.000 A 
ATOM     19  N   UNL     1       3.523   3.014  19.370  0.00  0.00    +0.000 NA
ENDBRANCH   1  18
TORSDOF 1
ENDMDL
MODEL 6
REMARK VINA RESULT:      -6.5      1.856      2.275
REMARK  Name = 
REMARK  2 active torsions:
REMARK  status: ('A' for Active; 'I' for Inactive)
REMARK    1  A    between atoms: C_1  and  C_2
REMARK    2  A    between atoms: C_6  and  C_7
REMARK                            x       y       z     vdW  Elec       q    Type
REMARK                         _______ _______ _______ _____ _____    ______ ____
ROOT
ATOM      1  C   UNL     1       3.147   5.484  18.040  0.00  0.00    +0.000 C 
ATOM      2  C   UNL     1       4.153   5.282  17.168  0.00  0.00    +0.000 C 
ATOM      3  C   UNL     1       4.596   3.942  16.704  0.00  0.00    +0.000 C 
ATOM      4  O   UNL     1       4.219   2.873  17.171  0.00  0.00    +0.000 OA
ATOM      5  N   UNL     1       5.535   3.955  15.704  0.00  0.00    +0.000 N 
ATOM      6  C   UNL     1       6.166   5.047  15.200  0.00  0.00    +0.000 C 
ATOM      7  S   UNL     1       7.336   4.906  14.027  0.00  0.00    +0.000 S 
ATOM      8  N   UNL     1       5.808   6.258  15.703  0.00  0.00    +0.000 N 
ATOM      9  C   UNL     1       4.846   6.489  16.649  0.00  0.00    +0.000 C 
ATOM     10  O   UNL     1       4.607   7.630  17.038  0.00  0.00    +0.000 OA
ATOM     11  H   UNL     1       5.825   3.044  15.372  0.00  0.00    +0.000 HD
ATOM     12  H   UNL     1       6.286   7.078  15.349  0.00  0.00    +0.000 HD
ENDROOT
BRANCH   1  18
ATOM     13  C   UNL     1       2.300   2.927  22.031  0.00  0.00    +0.000 C 
ATOM     14  C   UNL     1       1.931   3.233  20.611  0.00  0.00    +0.000 A 
ATOM     15  C   UNL     1       0.843   2.600  20.014  0.00  0.00    +0.000 A 
ATOM     16  C   UNL     1       0.546   2.887  18.686  0.00  0.00    +0.000 A 
ATOM     17  C   UNL     1       1.323   3.813  18.002  0.00  0.00    +0.000 A 
ATOM     18  C   UNL     1       2.361   4.436  18.685  0.00  0.00    +0.000 A 
ATOM     19  N   UNL     1       2.698   4.143  19.961  0.00  0.00    +0.000 NA
ENDBRANCH   1  18
TORSDOF 1
ENDMDL
MODEL 7
REMARK VINA RESULT:      -6.5      2.664      3.139
REMARK  Name = 
REMARK  2 active torsions:
REMARK  status: ('A' for Active; 'I' for Inactive)
REMARK    1  A    between atoms: C_1  and  C_2
REMARK    2  A    between atoms: C_6  and  C_7
REMARK                            x       y       z     vdW  Elec       q    Type
REMARK                         _______ _______ _______ _____ _____    ______ ____
ROOT
ATOM      1  C   UNL     1       5.717   4.442  19.061  0.00  0.00    +0.000 C 
ATOM      2  C   UNL     1       6.299   5.577  18.628  0.00  0.00    +0.000 C 
ATOM      3  C   UNL     1       5.635   6.566  17.740  0.00  0.00    +0.000 C 
ATOM      4  O   UNL     1       4.561   6.396  17.172  0.00  0.00    +0.000 OA
ATOM      5  N   UNL     1       6.338   7.726  17.535  0.00  0.00    +0.000 N 
ATOM      6  C   UNL     1       7.600   7.993  17.958  0.00  0.00    +0.000 C 
ATOM      7  S   UNL     1       8.355   9.426  17.579  0.00  0.00    +0.000 S 
ATOM      8  N   UNL     1       8.223   7.036  18.695  0.00  0.00    +0.000 N 
ATOM      9  C   UNL     1       7.688   5.837  19.083  0.00  0.00    +0.000 C 
ATOM     10  O   UNL     1       8.347   5.040  19.747  0.00  0.00    +0.000 OA
ATOM     11  H   UNL     1       5.880   8.410  16.946  0.00  0.00    +0.000 HD
ATOM     12  H   UNL     1       9.173   7.216  19.000  0.00  0.00    +0.000 HD
ENDROOT
BRANCH   1  18
ATOM     13  C   UNL     1       1.057   4.254  20.258  0.00  0.00    +0.000 C 
ATOM     14  C   UNL     1       2.132   3.930  19.266  0.00  0.00    +0.000 A 
ATOM     15  C   UNL     1       1.813   3.317  18.056  0.00  0.00    +0.000 A 
ATOM     16  C   UNL     1       2.838   3.005  17.171  0.00  0.00    +0.000 A 
ATOM     17  C   UNL     1       4.146   3.336  17.503  0.00  0.00    +0.000 A 
ATOM     18  C   UNL     1       4.375   3.989  18.708  0.00  0.00    +0.000 A 
ATOM     19  N   UNL     1       3.402   4.265  19.606  0.00  0.00    +0.000 NA
ENDBRANCH   1  18
TORSDOF 1
ENDMDL
MODEL 8
REMARK VINA RESULT:      -6.3      4.168      6.365
REMARK  Name = 
REMARK  2 active torsions:
REMARK  status: ('A' for Active; 'I' for Inactive)
REMARK    1  A    between atoms: C_1  and  C_2
REMARK    2  A    between atoms: C_6  and  C_7
REMARK                            x       y       z     vdW  Elec       q    Type
REMARK                         _______ _______ _______ _____ _____    ______ ____
ROOT
ATOM      1  C   UNL     1       3.293   7.361  17.656  0.00  0.00    +0.000 C 
ATOM      2  C   UNL     1       2.506   7.715  18.690  0.00  0.00    +0.000 C 
ATOM      3  C   UNL     1       2.363   6.921  19.938  0.00  0.00    +0.000 C 
ATOM      4  O   UNL     1       2.806   5.791  20.110  0.00  0.00    +0.000 OA
ATOM      5  N   UNL     1       1.632   7.525  20.930  0.00  0.00    +0.000 N 
ATOM      6  C   UNL     1       0.947   8.693  20.832  0.00  0.00    +0.000 C 
ATOM      7  S   UNL     1       0.046   9.275  22.103  0.00  0.00    +0.000 S 
ATOM      8  N   UNL     1       1.018   9.359  19.650  0.00  0.00    +0.000 N 
ATOM      9  C   UNL     1       1.745   8.983  18.552  0.00  0.00    +0.000 C 
ATOM     10  O   UNL     1       1.734   9.661  17.528  0.00  0.00    +0.000 OA
ATOM     11  H   UNL     1       1.549   6.995  21.788  0.00  0.00    +0.000 HD
ATOM     12  H   UNL     1       0.495  10.222  19.559  0.00  0.00    +0.000 HD
ENDROOT
BRANCH   1  18
ATOM     13  C   UNL     1       7.597   5.298  18.297  0.00  0.00    +0.000 C 
ATOM     14  C   UNL     1       6.154   5.147  17.923  0.00  0.00    +0.000 A 
ATOM     15  C   UNL     1       5.634   3.891  17.617  0.00  0.00    +0.000 A 
ATOM     16  C   UNL     1       4.298   3.791  17.246  0.00  0.00    +0.000 A 
ATOM     17  C   UNL     1       3.514   4.937  17.216  0.00  0.00    +0.000 A 
ATOM     18  C   UNL     1       4.097   6.144  17.581  0.00  0.00    +0.000 A 
ATOM     19  N   UNL     1       5.404   6.277  17.903  0.00  0.00    +0.000 NA
ENDBRANCH   1  18
TORSDOF 1
ENDMDL
MODEL 9
REMARK VINA RESULT:      -6.2      4.581      6.313
REMARK  Name = 
REMARK  2 active torsions:
REMARK  status: ('A' for Active; 'I' for Inactive)
REMARK    1  A    between atoms: C_1  and  C_2
REMARK    2  A    between atoms: C_6  and  C_7
REMARK                            x       y       z     vdW  Elec       q    Type
REMARK                         _______ _______ _______ _____ _____    ______ ____
ROOT
ATOM      1  C   UNL     1       2.215   6.812  19.820  0.00  0.00    +0.000 C 
ATOM      2  C   UNL     1       1.868   8.079  19.521  0.00  0.00    +0.000 C 
ATOM      3  C   UNL     1       2.043   8.695  18.180  0.00  0.00    +0.000 C 
ATOM      4  O   UNL     1       2.661   8.193  17.247  0.00  0.00    +0.000 OA
ATOM      5  N   UNL     1       1.490   9.943  18.038  0.00  0.00    +0.000 N 
ATOM      6  C   UNL     1       0.923  10.692  19.018  0.00  0.00    +0.000 C 
ATOM      7  S   UNL     1       0.349  12.223  18.712  0.00  0.00    +0.000 S 
ATOM      8  N   UNL     1       0.853  10.143  20.259  0.00  0.00    +0.000 N 
ATOM      9  C   UNL     1       1.272   8.889  20.614  0.00  0.00    +0.000 C 
ATOM     10  O   UNL     1       1.167   8.495  21.772  0.00  0.00    +0.000 OA
ATOM     11  H   UNL     1       1.591  10.357  17.121  0.00  0.00    +0.000 HD
ATOM     12  H   UNL     1       0.449  10.701  21.002  0.00  0.00    +0.000 HD
ENDROOT
BRANCH   1  18
ATOM     13  C   UNL     1       6.293   4.896  18.122  0.00  0.00    +0.000 C 
ATOM     14  C   UNL     1       4.795   4.919  18.112  0.00  0.00    +0.000 A 
ATOM     15  C   UNL     1       4.082   4.015  17.327  0.00  0.00    +0.000 A 
ATOM     16  C   UNL     1       2.693   4.084  17.320  0.00  0.00    +0.000 A 
ATOM     17  C   UNL     1       2.056   5.031  18.111  0.00  0.00    +0.000 A 
ATOM     18  C   UNL     1       2.839   5.865  18.901  0.00  0.00    +0.000 A 
ATOM     19  N   UNL     1       4.191   5.848  18.894  0.00  0.00    +0.000 NA
ENDBRANCH   1  18
TORSDOF 1
ENDMDL
