MODEL 1
REMARK VINA RESULT:      -5.6      0.000      0.000
REMARK  Name = 
REMARK  5 active torsions:
REMARK  status: ('A' for Active; 'I' for Inactive)
REMARK    1  A    between atoms: C_1  and  C_2
REMARK    2  A    between atoms: C_2  and  C_3
REMARK    3  A    between atoms: C_3  and  C_4
REMARK    4  A    between atoms: C_6  and  C_7
REMARK    5  A    between atoms: C_12  and  S_13
REMARK                            x       y       z     vdW  Elec       q    Type
REMARK                         _______ _______ _______ _____ _____    ______ ____
ROOT
ATOM      1  C   UNL     1       2.697   5.794  19.725  0.00  0.00    +0.000 A 
ATOM      2  N   UNL     1       2.158   6.984  19.493  0.00  0.00    +0.000 NA
ATOM      3  C   UNL     1       2.746   7.467  18.355  0.00  0.00    +0.000 A 
ATOM      4  C   UNL     1       2.366   8.784  17.799  0.00  0.00    +0.000 C 
ATOM      5  C   UNL     1       3.661   6.554  17.893  0.00  0.00    +0.000 A 
ATOM      6  C   UNL     1       4.541   6.524  16.782  0.00  0.00    +0.000 A 
ATOM      7  N   UNL     1       5.309   5.500  16.570  0.00  0.00    +0.000 NA
ATOM      8  N   UNL     1       5.265   4.394  17.460  0.00  0.00    +0.000 NA
ATOM      9  C   UNL     1       4.469   4.391  18.492  0.00  0.00    +0.000 A 
ATOM     10  N   UNL     1       3.631   5.481  18.749  0.00  0.00    +0.000 N 
ENDROOT
BRANCH   9  11
ATOM     11  S   UNL     1       4.544   2.954  19.481  0.00  0.00    +0.000 S 
ATOM     12  H   UNL     1       4.726   3.619  20.629  0.00  0.00    +0.000 HD
ENDBRANCH   9  11
BRANCH   1  13
ATOM     13  C   UNL     1       2.315   4.951  20.898  0.00  0.00    +0.000 C 
BRANCH  13  15
ATOM     14  C   UNL     1       1.248   2.711  21.329  0.00  0.00    +0.000 C 
ATOM     15  C   UNL     1       1.153   4.017  20.558  0.00  0.00    +0.000 C 
ENDBRANCH  13  15
ENDBRANCH   1  13
TORSDOF 3
ENDMDL
MODEL 2
REMARK VINA RESULT:      -5.5      2.203      4.193
REMARK  Name = 
REMARK  5 active torsions:
REMARK  status: ('A' for Active; 'I' for Inactive)
REMARK    1  A    between atoms: C_1  and  C_2
REMARK    2  A    between atoms: C_2  and  C_3
REMARK    3  A    between atoms: C_3  and  C_4
REMARK    4  A    between atoms: C_6  and  C_7
REMARK    5  A    between atoms: C_12  and  S_13
REMARK                            x       y       z     vdW  Elec       q    Type
REMARK                         _______ _______ _______ _____ _____    ______ ____
ROOT
ATOM      1  C   UNL     1       3.352   5.623  18.074  0.00  0.00    +0.000 A 
ATOM      2  N   UNL     1       4.218   5.692  17.072  0.00  0.00    +0.000 NA
ATOM      3  C   UNL     1       4.565   4.404  16.762  0.00  0.00    +0.000 A 
ATOM      4  C   UNL     1       5.518   4.112  15.669  0.00  0.00    +0.000 C 
ATOM      5  C   UNL     1       3.898   3.540  17.595  0.00  0.00    +0.000 A 
ATOM      6  C   UNL     1       3.872   2.129  17.727  0.00  0.00    +0.000 A 
ATOM      7  N   UNL     1       3.120   1.558  18.617  0.00  0.00    +0.000 NA
ATOM      8  N   UNL     1       2.310   2.358  19.468  0.00  0.00    +0.000 NA
ATOM      9  C   UNL     1       2.314   3.658  19.375  0.00  0.00    +0.000 A 
ATOM     10  N   UNL     1       3.116   4.302  18.427  0.00  0.00    +0.000 N 
ENDROOT
BRANCH   9  11
ATOM     11  S   UNL     1       1.262   4.483  20.498  0.00  0.00    +0.000 S 
ATOM     12  H   UNL     1       0.170   4.370  19.729  0.00  0.00    +0.000 HD
ENDBRANCH   9  11
BRANCH   1  13
ATOM     13  C   UNL     1       2.748   6.836  18.704  0.00  0.00    +0.000 C 
BRANCH  13  15
ATOM     14  C   UNL     1       1.661   8.957  17.892  0.00  0.00    +0.000 C 
ATOM     15  C   UNL     1       2.883   8.060  17.797  0.00  0.00    +0.000 C 
ENDBRANCH  13  15
ENDBRANCH   1  13
TORSDOF 3
ENDMDL
MODEL 3
REMARK VINA RESULT:      -5.5      1.078      1.143
REMARK  Name = 
REMARK  5 active torsions:
REMARK  status: ('A' for Active; 'I' for Inactive)
REMARK    1  A    between atoms: C_1  and  C_2
REMARK    2  A    between atoms: C_2  and  C_3
REMARK    3  A    between atoms: C_3  and  C_4
REMARK    4  A    between atoms: C_6  and  C_7
REMARK    5  A    between atoms: C_12  and  S_13
REMARK                            x       y       z     vdW  Elec       q    Type
REMARK                         _______ _______ _______ _____ _____    ______ ____
ROOT
ATOM      1  C   UNL     1       2.172   4.944  18.921  0.00  0.00    +0.000 A 
ATOM      2  N   UNL     1       1.942   6.249  18.954  0.00  0.00    +0.000 NA
ATOM      3  C   UNL     1       2.857   6.831  18.118  0.00  0.00    +0.000 A 
ATOM      4  C   UNL     1       2.876   8.295  17.907  0.00  0.00    +0.000 C 
ATOM      5  C   UNL     1       3.658   5.859  17.573  0.00  0.00    +0.000 A 
ATOM      6  C   UNL     1       4.747   5.880  16.665  0.00  0.00    +0.000 A 
ATOM      7  N   UNL     1       5.330   4.780  16.300  0.00  0.00    +0.000 NA
ATOM      8  N   UNL     1       4.869   3.538  16.815  0.00  0.00    +0.000 NA
ATOM      9  C   UNL     1       3.873   3.484  17.654  0.00  0.00    +0.000 A 
ATOM     10  N   UNL     1       3.227   4.653  18.068  0.00  0.00    +0.000 N 
ENDROOT
BRANCH   9  11
ATOM     11  S   UNL     1       3.440   1.879  18.186  0.00  0.00    +0.000 S 
ATOM     12  H   UNL     1       2.187   1.942  17.716  0.00  0.00    +0.000 HD
ENDBRANCH   9  11
BRANCH   1  13
ATOM     13  C   UNL     1       1.377   3.964  19.722  0.00  0.00    +0.000 C 
BRANCH  13  15
ATOM     14  C   UNL     1       1.757   2.523  21.752  0.00  0.00    +0.000 C 
ATOM     15  C   UNL     1       1.841   3.928  21.178  0.00  0.00    +0.000 C 
ENDBRANCH  13  15
ENDBRANCH   1  13
TORSDOF 3
ENDMDL
MODEL 4
REMARK VINA RESULT:      -5.4      2.076      4.217
REMARK  Name = 
REMARK  5 active torsions:
REMARK  status: ('A' for Active; 'I' for Inactive)
REMARK    1  A    between atoms: C_1  and  C_2
REMARK    2  A    between atoms: C_2  and  C_3
REMARK    3  A    between atoms: C_3  and  C_4
REMARK    4  A    between atoms: C_6  and  C_7
REMARK    5  A    between atoms: C_12  and  S_13
REMARK                            x       y       z     vdW  Elec       q    Type
REMARK                         _______ _______ _______ _____ _____    ______ ____
ROOT
ATOM      1  C   UNL     1       3.660   4.845  17.662  0.00  0.00    +0.000 A 
ATOM      2  N   UNL     1       3.481   6.158  17.642  0.00  0.00    +0.000 NA
ATOM      3  C   UNL     1       2.661   6.461  18.695  0.00  0.00    +0.000 A 
ATOM      4  C   UNL     1       2.263   7.858  18.976  0.00  0.00    +0.000 C 
ATOM      5  C   UNL     1       2.334   5.307  19.363  0.00  0.00    +0.000 A 
ATOM      6  C   UNL     1       1.535   5.025  20.500  0.00  0.00    +0.000 A 
ATOM      7  N   UNL     1       1.405   3.809  20.936  0.00  0.00    +0.000 NA
ATOM      8  N   UNL     1       2.075   2.749  20.267  0.00  0.00    +0.000 NA
ATOM      9  C   UNL     1       2.814   2.975  19.217  0.00  0.00    +0.000 A 
ATOM     10  N   UNL     1       2.971   4.273  18.723  0.00  0.00    +0.000 N 
ENDROOT
BRANCH   9  11
ATOM     11  S   UNL     1       3.561   1.559  18.520  0.00  0.00    +0.000 S 
ATOM     12  H   UNL     1       3.134   0.726  19.479  0.00  0.00    +0.000 HD
ENDBRANCH   9  11
BRANCH   1  13
ATOM     13  C   UNL     1       4.494   4.127  16.651  0.00  0.00    +0.000 C 
BRANCH  13  15
ATOM     14  C   UNL     1       6.270   4.381  14.883  0.00  0.00    +0.000 C 
ATOM     15  C   UNL     1       5.292   5.108  15.791  0.00  0.00    +0.000 C 
ENDBRANCH  13  15
ENDBRANCH   1  13
TORSDOF 3
ENDMDL
MODEL 5
REMARK VINA RESULT:      -5.4      2.865      3.828
REMARK  Name = 
REMARK  5 active torsions:
REMARK  status: ('A' for Active; 'I' for Inactive)
REMARK    1  A    between atoms: C_1  and  C_2
REMARK    2  A    between atoms: C_2  and  C_3
REMARK    3  A    between atoms: C_3  and  C_4
REMARK    4  A    between atoms: C_6  and  C_7
REMARK    5  A    between atoms: C_12  and  S_13
REMARK                            x       y       z     vdW  Elec       q    Type
REMARK                         _______ _______ _______ _____ _____    ______ ____
ROOT
ATOM      1  C   UNL     1       4.127   4.108  16.886  0.00  0.00    +0.000 A 
ATOM      2  N   UNL     1       4.623   4.004  15.661  0.00  0.00    +0.000 NA
ATOM      3  C   UNL     1       5.953   4.313  15.748  0.00  0.00    +0.000 A 
ATOM      4  C   UNL     1       6.824   4.285  14.551  0.00  0.00    +0.000 C 
ATOM      5  C   UNL     1       6.267   4.613  17.050  0.00  0.00    +0.000 A 
ATOM      6  C   UNL     1       7.464   4.995  17.708  0.00  0.00    +0.000 A 
ATOM      7  N   UNL     1       7.479   5.211  18.987  0.00  0.00    +0.000 NA
ATOM      8  N   UNL     1       6.282   5.060  19.738  0.00  0.00    +0.000 NA
ATOM      9  C   UNL     1       5.165   4.714  19.163  0.00  0.00    +0.000 A 
ATOM     10  N   UNL     1       5.116   4.477  17.786  0.00  0.00    +0.000 N 
ENDROOT
BRANCH   9  11
ATOM     11  S   UNL     1       3.793   4.576  20.234  0.00  0.00    +0.000 S 
ATOM     12  H   UNL     1       2.913   4.329  19.254  0.00  0.00    +0.000 HD
ENDBRANCH   9  11
BRANCH   1  13
ATOM     13  C   UNL     1       2.687   3.857  17.197  0.00  0.00    +0.000 C 
BRANCH  13  15
ATOM     14  C   UNL     1       1.293   2.292  18.594  0.00  0.00    +0.000 C 
ATOM     15  C   UNL     1       2.453   2.406  17.618  0.00  0.00    +0.000 C 
ENDBRANCH  13  15
ENDBRANCH   1  13
TORSDOF 3
ENDMDL
MODEL 6
REMARK VINA RESULT:      -5.3      1.744      3.929
REMARK  Name = 
REMARK  5 active torsions:
REMARK  status: ('A' for Active; 'I' for Inactive)
REMARK    1  A    between atoms: C_1  and  C_2
REMARK    2  A    between atoms: C_2  and  C_3
REMARK    3  A    between atoms: C_3  and  C_4
REMARK    4  A    between atoms: C_6  and  C_7
REMARK    5  A    between atoms: C_12  and  S_13
REMARK                            x       y       z     vdW  Elec       q    Type
REMARK                         _______ _______ _______ _____ _____    ______ ____
ROOT
ATOM      1  C   UNL     1       2.967   6.447  18.578  0.00  0.00    +0.000 A 
ATOM      2  N   UNL     1       1.843   6.070  19.170  0.00  0.00    +0.000 NA
ATOM      3  C   UNL     1       2.082   4.841  19.723  0.00  0.00    +0.000 A 
ATOM      4  C   UNL     1       1.031   4.125  20.479  0.00  0.00    +0.000 C 
ATOM      5  C   UNL     1       3.375   4.466  19.457  0.00  0.00    +0.000 A 
ATOM      6  C   UNL     1       4.150   3.322  19.773  0.00  0.00    +0.000 A 
ATOM      7  N   UNL     1       5.388   3.231  19.395  0.00  0.00    +0.000 NA
ATOM      8  N   UNL     1       5.975   4.294  18.656  0.00  0.00    +0.000 NA
ATOM      9  C   UNL     1       5.289   5.358  18.345  0.00  0.00    +0.000 A 
ATOM     10  N   UNL     1       3.952   5.483  18.737  0.00  0.00    +0.000 N 
ENDROOT
BRANCH   9  11
ATOM     11  S   UNL     1       6.164   6.563  17.435  0.00  0.00    +0.000 S 
ATOM     12  H   UNL     1       5.870   6.033  16.240  0.00  0.00    +0.000 HD
ENDBRANCH   9  11
BRANCH   1  13
ATOM     13  C   UNL     1       3.098   7.743  17.844  0.00  0.00    +0.000 C 
BRANCH  13  15
ATOM     14  C   UNL     1       1.988   9.998  17.994  0.00  0.00    +0.000 C 
ATOM     15  C   UNL     1       1.772   8.504  17.819  0.00  0.00    +0.000 C 
ENDBRANCH  13  15
ENDBRANCH   1  13
TORSDOF 3
ENDMDL
MODEL 7
REMARK VINA RESULT:      -5.3      1.670      3.340
REMARK  Name = 
REMARK  5 active torsions:
REMARK  status: ('A' for Active; 'I' for Inactive)
REMARK    1  A    between atoms: C_1  and  C_2
REMARK    2  A    between atoms: C_2  and  C_3
REMARK    3  A    between atoms: C_3  and  C_4
REMARK    4  A    between atoms: C_6  and  C_7
REMARK    5  A    between atoms: C_12  and  S_13
REMARK                            x       y       z     vdW  Elec       q    Type
REMARK                         _______ _______ _______ _____ _____    ______ ____
ROOT
ATOM      1  C   UNL     1       4.239   4.032  18.396  0.00  0.00    +0.000 A 
ATOM      2  N   UNL     1       4.956   4.188  17.292  0.00  0.00    +0.000 NA
ATOM      3  C   UNL     1       4.743   5.470  16.862  0.00  0.00    +0.000 A 
ATOM      4  C   UNL     1       5.408   5.989  15.647  0.00  0.00    +0.000 C 
ATOM      5  C   UNL     1       3.877   6.100  17.721  0.00  0.00    +0.000 A 
ATOM      6  C   UNL     1       3.315   7.401  17.768  0.00  0.00    +0.000 A 
ATOM      7  N   UNL     1       2.511   7.743  18.727  0.00  0.00    +0.000 NA
ATOM      8  N   UNL     1       2.192   6.803  19.744  0.00  0.00    +0.000 NA
ATOM      9  C   UNL     1       2.689   5.598  19.728  0.00  0.00    +0.000 A 
ATOM     10  N   UNL     1       3.556   5.199  18.706  0.00  0.00    +0.000 N 
ENDROOT
BRANCH   9  11
ATOM     11  S   UNL     1       2.191   4.574  21.052  0.00  0.00    +0.000 S 
ATOM     12  H   UNL     1       1.995   5.588  21.906  0.00  0.00    +0.000 HD
ENDBRANCH   9  11
BRANCH   1  13
ATOM     13  C   UNL     1       4.201   2.747  19.159  0.00  0.00    +0.000 C 
BRANCH  13  15
ATOM     14  C   UNL     1       2.008   2.115  18.095  0.00  0.00    +0.000 C 
ATOM     15  C   UNL     1       3.429   1.670  18.397  0.00  0.00    +0.000 C 
ENDBRANCH  13  15
ENDBRANCH   1  13
TORSDOF 3
ENDMDL
MODEL 8
REMARK VINA RESULT:      -5.3      1.365      1.442
REMARK  Name = 
REMARK  5 active torsions:
REMARK  status: ('A' for Active; 'I' for Inactive)
REMARK    1  A    between atoms: C_1  and  C_2
REMARK    2  A    between atoms: C_2  and  C_3
REMARK    3  A    between atoms: C_3  and  C_4
REMARK    4  A    between atoms: C_6  and  C_7
REMARK    5  A    between atoms: C_12  and  S_13
REMARK                            x       y       z     vdW  Elec       q    Type
REMARK                         _______ _______ _______ _____ _____    ______ ____
ROOT
ATOM      1  C   UNL     1       2.356   4.629  18.729  0.00  0.00    +0.000 A 
ATOM      2  N   UNL     1       1.909   5.816  18.344  0.00  0.00    +0.000 NA
ATOM      3  C   UNL     1       3.010   6.597  18.119  0.00  0.00    +0.000 A 
ATOM      4  C   UNL     1       2.874   7.997  17.661  0.00  0.00    +0.000 C 
ATOM      5  C   UNL     1       4.145   5.868  18.378  0.00  0.00    +0.000 A 
ATOM      6  C   UNL     1       5.532   6.158  18.318  0.00  0.00    +0.000 A 
ATOM      7  N   UNL     1       6.413   5.253  18.613  0.00  0.00    +0.000 NA
ATOM      8  N   UNL     1       5.983   3.954  18.997  0.00  0.00    +0.000 NA
ATOM      9  C   UNL     1       4.716   3.657  19.066  0.00  0.00    +0.000 A 
ATOM     10  N   UNL     1       3.743   4.612  18.756  0.00  0.00    +0.000 N 
ENDROOT
BRANCH   9  11
ATOM     11  S   UNL     1       4.366   2.018  19.556  0.00  0.00    +0.000 S 
ATOM     12  H   UNL     1       5.295   1.466  18.764  0.00  0.00    +0.000 HD
ENDBRANCH   9  11
BRANCH   1  13
ATOM     13  C   UNL     1       1.443   3.498  19.080  0.00  0.00    +0.000 C 
BRANCH  13  15
ATOM     14  C   UNL     1       1.466   2.920  21.531  0.00  0.00    +0.000 C 
ATOM     15  C   UNL     1       0.778   3.722  20.439  0.00  0.00    +0.000 C 
ENDBRANCH  13  15
ENDBRANCH   1  13
TORSDOF 3
ENDMDL
MODEL 9
REMARK VINA RESULT:      -5.3      2.095      3.813
REMARK  Name = 
REMARK  5 active torsions:
REMARK  status: ('A' for Active; 'I' for Inactive)
REMARK    1  A    between atoms: C_1  and  C_2
REMARK    2  A    between atoms: C_2  and  C_3
REMARK    3  A    between atoms: C_3  and  C_4
REMARK    4  A    between atoms: C_6  and  C_7
REMARK    5  A    between atoms: C_12  and  S_13
REMARK                            x       y       z     vdW  Elec       q    Type
REMARK                         _______ _______ _______ _____ _____    ______ ____
ROOT
ATOM      1  C   UNL     1       2.282   5.871  19.856  0.00  0.00    +0.000 A 
ATOM      2  N   UNL     1       1.633   5.161  20.770  0.00  0.00    +0.000 NA
ATOM      3  C   UNL     1       1.903   3.845  20.510  0.00  0.00    +0.000 A 
ATOM      4  C   UNL     1       1.340   2.769  21.356  0.00  0.00    +0.000 C 
ATOM      5  C   UNL     1       2.727   3.756  19.416  0.00  0.00    +0.000 A 
ATOM      6  C   UNL     1       3.313   2.672  18.715  0.00  0.00    +0.000 A 
ATOM      7  N   UNL     1       4.084   2.881  17.692  0.00  0.00    +0.000 NA
ATOM      8  N   UNL     1       4.347   4.213  17.273  0.00  0.00    +0.000 NA
ATOM      9  C   UNL     1       3.821   5.231  17.894  0.00  0.00    +0.000 A 
ATOM     10  N   UNL     1       2.984   5.038  18.997  0.00  0.00    +0.000 N 
ENDROOT
BRANCH   9  11
ATOM     11  S   UNL     1       4.248   6.795  17.245  0.00  0.00    +0.000 S 
ATOM     12  H   UNL     1       4.506   6.336  16.013  0.00  0.00    +0.000 HD
ENDBRANCH   9  11
BRANCH   1  13
ATOM     13  C   UNL     1       2.223   7.363  19.802  0.00  0.00    +0.000 C 
BRANCH  13  15
ATOM     14  C   UNL     1       0.732   9.248  20.555  0.00  0.00    +0.000 C 
ATOM     15  C   UNL     1       1.379   7.929  20.945  0.00  0.00    +0.000 C 
ENDBRANCH  13  15
ENDBRANCH   1  13
TORSDOF 3
ENDMDL
