MODEL 1
REMARK VINA RESULT:      -7.5      0.000      0.000
REMARK  Name = 
REMARK  5 active torsions:
REMARK  status: ('A' for Active; 'I' for Inactive)
REMARK    1  A    between atoms: C_1  and  C_2
REMARK    2  A    between atoms: C_6  and  C_7
REMARK    3  A    between atoms: C_7  and  C_8
REMARK    4  A    between atoms: C_8  and  N_9
REMARK    5  A    between atoms: C_13  and  C_14
REMARK                            x       y       z     vdW  Elec       q    Type
REMARK                         _______ _______ _______ _____ _____    ______ ____
ROOT
ATOM      1  N   UNL     1       6.379   4.129  17.231  0.00  0.00    +0.000 N 
ATOM      2  C   UNL     1       6.726   4.407  15.964  0.00  0.00    +0.000 A 
ATOM      3  N   UNL     1       7.496   5.357  15.478  0.00  0.00    +0.000 NA
ATOM      4  N   UNL     1       7.425   5.261  14.109  0.00  0.00    +0.000 NA
ATOM      5  C   UNL     1       6.611   4.258  13.844  0.00  0.00    +0.000 A 
ATOM      6  O   UNL     1       6.130   3.662  14.984  0.00  0.00    +0.000 OA
ATOM      7  H   UNL     1       5.598   3.493  17.350  0.00  0.00    +0.000 HD
ENDROOT
BRANCH   5   8
ATOM      8  C   UNL     1       6.240   3.874  12.426  0.00  0.00    +0.000 C 
ATOM      9  C   UNL     1       6.526   2.402  12.021  0.00  0.00    +0.000 C 
ATOM     10  C   UNL     1       5.183   2.421  11.267  0.00  0.00    +0.000 C 
ATOM     11  C   UNL     1       4.736   3.498  12.270  0.00  0.00    +0.000 C 
ENDBRANCH   5   8
BRANCH   1  12
ATOM     12  C   UNL     1       6.445   5.225  18.200  0.00  0.00    +0.000 C 
BRANCH  12  13
ATOM     13  C   UNL     1       5.423   5.031  19.332  0.00  0.00    +0.000 C 
BRANCH  13  19
ATOM     14  C   UNL     1       3.246   6.961  17.903  0.00  0.00    +0.000 C 
ATOM     15  C   UNL     1       3.104   5.503  18.206  0.00  0.00    +0.000 A 
ATOM     16  C   UNL     1       1.935   4.747  17.853  0.00  0.00    +0.000 A 
ATOM     17  C   UNL     1       2.026   3.424  18.209  0.00  0.00    +0.000 A 
ATOM     18  S   UNL     1       3.503   3.070  18.978  0.00  0.00    +0.000 S 
ATOM     19  C   UNL     1       4.046   4.693  18.832  0.00  0.00    +0.000 A 
ENDBRANCH  13  19
ENDBRANCH  12  13
ENDBRANCH   1  12
TORSDOF 4
ENDMDL
MODEL 2
REMARK VINA RESULT:      -7.4      0.988      1.563
REMARK  Name = 
REMARK  5 active torsions:
REMARK  status: ('A' for Active; 'I' for Inactive)
REMARK    1  A    between atoms: C_1  and  C_2
REMARK    2  A    between atoms: C_6  and  C_7
REMARK    3  A    between atoms: C_7  and  C_8
REMARK    4  A    between atoms: C_8  and  N_9
REMARK    5  A    between atoms: C_13  and  C_14
REMARK                            x       y       z     vdW  Elec       q    Type
REMARK                         _______ _______ _______ _____ _____    ______ ____
ROOT
ATOM      1  N   UNL     1       6.545   4.161  17.192  0.00  0.00    +0.000 N 
ATOM      2  C   UNL     1       6.843   4.442  15.913  0.00  0.00    +0.000 A 
ATOM      3  N   UNL     1       7.572   5.410  15.399  0.00  0.00    +0.000 NA
ATOM      4  N   UNL     1       7.459   5.306  14.033  0.00  0.00    +0.000 NA
ATOM      5  C   UNL     1       6.662   4.282  13.799  0.00  0.00    +0.000 A 
ATOM      6  O   UNL     1       6.234   3.678  14.955  0.00  0.00    +0.000 OA
ATOM      7  H   UNL     1       5.785   3.505  17.339  0.00  0.00    +0.000 HD
ENDROOT
BRANCH   5   8
ATOM      8  C   UNL     1       6.254   3.883  12.395  0.00  0.00    +0.000 C 
ATOM      9  C   UNL     1       6.455   2.388  12.026  0.00  0.00    +0.000 C 
ATOM     10  C   UNL     1       5.106   2.461  11.285  0.00  0.00    +0.000 C 
ATOM     11  C   UNL     1       4.730   3.586  12.263  0.00  0.00    +0.000 C 
ENDBRANCH   5   8
BRANCH   1  12
ATOM     12  C   UNL     1       6.615   5.262  18.155  0.00  0.00    +0.000 C 
BRANCH  12  13
ATOM     13  C   UNL     1       5.601   5.072  19.294  0.00  0.00    +0.000 C 
BRANCH  13  19
ATOM     14  C   UNL     1       4.126   2.207  19.642  0.00  0.00    +0.000 C 
ATOM     15  C   UNL     1       3.589   3.425  18.962  0.00  0.00    +0.000 A 
ATOM     16  C   UNL     1       2.277   3.475  18.380  0.00  0.00    +0.000 A 
ATOM     17  C   UNL     1       1.984   4.696  17.825  0.00  0.00    +0.000 A 
ATOM     18  S   UNL     1       3.274   5.796  17.983  0.00  0.00    +0.000 S 
ATOM     19  C   UNL     1       4.243   4.644  18.811  0.00  0.00    +0.000 A 
ENDBRANCH  13  19
ENDBRANCH  12  13
ENDBRANCH   1  12
TORSDOF 4
ENDMDL
MODEL 3
REMARK VINA RESULT:      -7.0      3.733      4.881
REMARK  Name = 
REMARK  5 active torsions:
REMARK  status: ('A' for Active; 'I' for Inactive)
REMARK    1  A    between atoms: C_1  and  C_2
REMARK    2  A    between atoms: C_6  and  C_7
REMARK    3  A    between atoms: C_7  and  C_8
REMARK    4  A    between atoms: C_8  and  N_9
REMARK    5  A    between atoms: C_13  and  C_14
REMARK                            x       y       z     vdW  Elec       q    Type
REMARK                         _______ _______ _______ _____ _____    ______ ____
ROOT
ATOM      1  N   UNL     1       3.907   2.425  17.448  0.00  0.00    +0.000 N 
ATOM      2  C   UNL     1       4.862   3.203  17.985  0.00  0.00    +0.000 A 
ATOM      3  N   UNL     1       5.176   3.423  19.243  0.00  0.00    +0.000 NA
ATOM      4  N   UNL     1       6.153   4.390  19.243  0.00  0.00    +0.000 NA
ATOM      5  C   UNL     1       6.371   4.703  17.980  0.00  0.00    +0.000 A 
ATOM      6  O   UNL     1       5.583   3.979  17.120  0.00  0.00    +0.000 OA
ATOM      7  H   UNL     1       3.702   2.583  16.468  0.00  0.00    +0.000 HD
ENDROOT
BRANCH   5   8
ATOM      8  C   UNL     1       7.355   5.782  17.576  0.00  0.00    +0.000 C 
ATOM      9  C   UNL     1       6.736   7.103  17.043  0.00  0.00    +0.000 C 
ATOM     10  C   UNL     1       7.826   7.852  17.833  0.00  0.00    +0.000 C 
ATOM     11  C   UNL     1       7.848   6.639  18.780  0.00  0.00    +0.000 C 
ENDBRANCH   5   8
BRANCH   1  12
ATOM     12  C   UNL     1       2.749   2.109  18.287  0.00  0.00    +0.000 C 
BRANCH  12  13
ATOM     13  C   UNL     1       1.630   3.147  18.105  0.00  0.00    +0.000 C 
BRANCH  13  19
ATOM     14  C   UNL     1       1.290   3.407  21.317  0.00  0.00    +0.000 C 
ATOM     15  C   UNL     1       1.672   4.487  20.357  0.00  0.00    +0.000 A 
ATOM     16  C   UNL     1       1.976   5.826  20.776  0.00  0.00    +0.000 A 
ATOM     17  C   UNL     1       2.320   6.649  19.731  0.00  0.00    +0.000 A 
ATOM     18  S   UNL     1       2.274   5.835  18.236  0.00  0.00    +0.000 S 
ATOM     19  C   UNL     1       1.801   4.360  18.977  0.00  0.00    +0.000 A 
ENDBRANCH  13  19
ENDBRANCH  12  13
ENDBRANCH   1  12
TORSDOF 4
ENDMDL
MODEL 4
REMARK VINA RESULT:      -6.9      1.108      1.169
REMARK  Name = 
REMARK  5 active torsions:
REMARK  status: ('A' for Active; 'I' for Inactive)
REMARK    1  A    between atoms: C_1  and  C_2
REMARK    2  A    between atoms: C_6  and  C_7
REMARK    3  A    between atoms: C_7  and  C_8
REMARK    4  A    between atoms: C_8  and  N_9
REMARK    5  A    between atoms: C_13  and  C_14
REMARK                            x       y       z     vdW  Elec       q    Type
REMARK                         _______ _______ _______ _____ _____    ______ ____
ROOT
ATOM      1  N   UNL     1       6.540   4.165  16.955  0.00  0.00    +0.000 N 
ATOM      2  C   UNL     1       6.810   4.426  15.666  0.00  0.00    +0.000 A 
ATOM      3  N   UNL     1       7.445   5.438  15.114  0.00  0.00    +0.000 NA
ATOM      4  N   UNL     1       7.342   5.274  13.753  0.00  0.00    +0.000 NA
ATOM      5  C   UNL     1       6.646   4.171  13.560  0.00  0.00    +0.000 A 
ATOM      6  O   UNL     1       6.277   3.573  14.739  0.00  0.00    +0.000 OA
ATOM      7  H   UNL     1       5.846   3.447  17.129  0.00  0.00    +0.000 HD
ENDROOT
BRANCH   5   8
ATOM      8  C   UNL     1       6.278   3.684  12.173  0.00  0.00    +0.000 C 
ATOM      9  C   UNL     1       6.411   2.155  11.930  0.00  0.00    +0.000 C 
ATOM     10  C   UNL     1       5.102   2.239  11.122  0.00  0.00    +0.000 C 
ATOM     11  C   UNL     1       4.747   3.457  11.992  0.00  0.00    +0.000 C 
ENDBRANCH   5   8
BRANCH   1  12
ATOM     12  C   UNL     1       6.506   5.303  17.877  0.00  0.00    +0.000 C 
BRANCH  12  13
ATOM     13  C   UNL     1       5.321   6.233  17.571  0.00  0.00    +0.000 C 
BRANCH  13  19
ATOM     14  C   UNL     1       2.655   8.039  17.938  0.00  0.00    +0.000 C 
ATOM     15  C   UNL     1       2.981   6.754  18.631  0.00  0.00    +0.000 A 
ATOM     16  C   UNL     1       2.090   6.128  19.566  0.00  0.00    +0.000 A 
ATOM     17  C   UNL     1       2.582   4.949  20.068  0.00  0.00    +0.000 A 
ATOM     18  S   UNL     1       4.120   4.579  19.436  0.00  0.00    +0.000 S 
ATOM     19  C   UNL     1       4.139   5.999  18.470  0.00  0.00    +0.000 A 
ENDBRANCH  13  19
ENDBRANCH  12  13
ENDBRANCH   1  12
TORSDOF 4
ENDMDL
MODEL 5
REMARK VINA RESULT:      -6.8      1.487      2.146
REMARK  Name = 
REMARK  5 active torsions:
REMARK  status: ('A' for Active; 'I' for Inactive)
REMARK    1  A    between atoms: C_1  and  C_2
REMARK    2  A    between atoms: C_6  and  C_7
REMARK    3  A    between atoms: C_7  and  C_8
REMARK    4  A    between atoms: C_8  and  N_9
REMARK    5  A    between atoms: C_13  and  C_14
REMARK                            x       y       z     vdW  Elec       q    Type
REMARK                         _______ _______ _______ _____ _____    ______ ____
ROOT
ATOM      1  N   UNL     1       5.019   3.711  17.972  0.00  0.00    +0.000 N 
ATOM      2  C   UNL     1       5.850   4.116  16.997  0.00  0.00    +0.000 A 
ATOM      3  N   UNL     1       7.039   4.674  17.067  0.00  0.00    +0.000 NA
ATOM      4  N   UNL     1       7.402   4.992  15.780  0.00  0.00    +0.000 NA
ATOM      5  C   UNL     1       6.407   4.610  15.004  0.00  0.00    +0.000 A 
ATOM      6  O   UNL     1       5.381   4.036  15.715  0.00  0.00    +0.000 OA
ATOM      7  H   UNL     1       4.064   3.517  17.692  0.00  0.00    +0.000 HD
ENDROOT
BRANCH   5   8
ATOM      8  C   UNL     1       6.417   4.843  13.507  0.00  0.00    +0.000 C 
ATOM      9  C   UNL     1       7.817   4.993  12.850  0.00  0.00    +0.000 C 
ATOM     10  C   UNL     1       7.278   4.157  11.673  0.00  0.00    +0.000 C 
ATOM     11  C   UNL     1       6.305   3.525  12.683  0.00  0.00    +0.000 C 
ENDBRANCH   5   8
BRANCH   1  12
ATOM     12  C   UNL     1       5.170   4.339  19.286  0.00  0.00    +0.000 C 
BRANCH  12  13
ATOM     13  C   UNL     1       3.926   5.162  19.657  0.00  0.00    +0.000 C 
BRANCH  13  19
ATOM     14  C   UNL     1       1.526   4.369  17.628  0.00  0.00    +0.000 C 
ATOM     15  C   UNL     1       1.680   3.952  19.055  0.00  0.00    +0.000 A 
ATOM     16  C   UNL     1       0.747   3.083  19.716  0.00  0.00    +0.000 A 
ATOM     17  C   UNL     1       1.092   2.816  21.018  0.00  0.00    +0.000 A 
ATOM     18  S   UNL     1       2.529   3.608  21.472  0.00  0.00    +0.000 S 
ATOM     19  C   UNL     1       2.712   4.313  19.916  0.00  0.00    +0.000 A 
ENDBRANCH  13  19
ENDBRANCH  12  13
ENDBRANCH   1  12
TORSDOF 4
ENDMDL
MODEL 6
REMARK VINA RESULT:      -6.8      5.699      7.129
REMARK  Name = 
REMARK  5 active torsions:
REMARK  status: ('A' for Active; 'I' for Inactive)
REMARK    1  A    between atoms: C_1  and  C_2
REMARK    2  A    between atoms: C_6  and  C_7
REMARK    3  A    between atoms: C_7  and  C_8
REMARK    4  A    between atoms: C_8  and  N_9
REMARK    5  A    between atoms: C_13  and  C_14
REMARK                            x       y       z     vdW  Elec       q    Type
REMARK                         _______ _______ _______ _____ _____    ______ ____
ROOT
ATOM      1  N   UNL     1       7.609   8.697  17.672  0.00  0.00    +0.000 N 
ATOM      2  C   UNL     1       7.513   7.359  17.608  0.00  0.00    +0.000 A 
ATOM      3  N   UNL     1       7.882   6.436  18.470  0.00  0.00    +0.000 NA
ATOM      4  N   UNL     1       7.660   5.221  17.865  0.00  0.00    +0.000 NA
ATOM      5  C   UNL     1       7.172   5.481  16.668  0.00  0.00    +0.000 A 
ATOM      6  O   UNL     1       7.046   6.829  16.437  0.00  0.00    +0.000 OA
ATOM      7  H   UNL     1       7.467   9.196  16.800  0.00  0.00    +0.000 HD
ENDROOT
BRANCH   5   8
ATOM      8  C   UNL     1       6.848   4.384  15.674  0.00  0.00    +0.000 C 
ATOM      9  C   UNL     1       5.346   4.209  15.318  0.00  0.00    +0.000 C 
ATOM     10  C   UNL     1       5.789   3.974  13.862  0.00  0.00    +0.000 C 
ATOM     11  C   UNL     1       7.023   4.832  14.192  0.00  0.00    +0.000 C 
ENDBRANCH   5   8
BRANCH   1  12
ATOM     12  C   UNL     1       8.638   9.255  18.550  0.00  0.00    +0.000 C 
BRANCH  12  13
ATOM     13  C   UNL     1       9.235  10.544  17.963  0.00  0.00    +0.000 C 
BRANCH  13  19
ATOM     14  C   UNL     1      11.629  12.690  17.554  0.00  0.00    +0.000 C 
ATOM     15  C   UNL     1      10.940  12.335  18.832  0.00  0.00    +0.000 A 
ATOM     16  C   UNL     1      11.259  12.958  20.086  0.00  0.00    +0.000 A 
ATOM     17  C   UNL     1      10.492  12.493  21.126  0.00  0.00    +0.000 A 
ATOM     18  S   UNL     1       9.388  11.300  20.621  0.00  0.00    +0.000 S 
ATOM     19  C   UNL     1       9.921  11.400  18.991  0.00  0.00    +0.000 A 
ENDBRANCH  13  19
ENDBRANCH  12  13
ENDBRANCH   1  12
TORSDOF 4
ENDMDL
MODEL 7
REMARK VINA RESULT:      -6.8      3.619      4.691
REMARK  Name = 
REMARK  5 active torsions:
REMARK  status: ('A' for Active; 'I' for Inactive)
REMARK    1  A    between atoms: C_1  and  C_2
REMARK    2  A    between atoms: C_6  and  C_7
REMARK    3  A    between atoms: C_7  and  C_8
REMARK    4  A    between atoms: C_8  and  N_9
REMARK    5  A    between atoms: C_13  and  C_14
REMARK                            x       y       z     vdW  Elec       q    Type
REMARK                         _______ _______ _______ _____ _____    ______ ____
ROOT
ATOM      1  N   UNL     1       4.413   2.726  17.309  0.00  0.00    +0.000 N 
ATOM      2  C   UNL     1       5.248   3.603  17.890  0.00  0.00    +0.000 A 
ATOM      3  N   UNL     1       5.399   3.927  19.156  0.00  0.00    +0.000 NA
ATOM      4  N   UNL     1       6.308   4.957  19.194  0.00  0.00    +0.000 NA
ATOM      5  C   UNL     1       6.653   5.200  17.945  0.00  0.00    +0.000 A 
ATOM      6  O   UNL     1       6.017   4.368  17.057  0.00  0.00    +0.000 OA
ATOM      7  H   UNL     1       4.315   2.804  16.302  0.00  0.00    +0.000 HD
ENDROOT
BRANCH   5   8
ATOM      8  C   UNL     1       7.609   6.316  17.575  0.00  0.00    +0.000 C 
ATOM      9  C   UNL     1       6.957   7.672  17.188  0.00  0.00    +0.000 C 
ATOM     10  C   UNL     1       8.089   8.361  17.974  0.00  0.00    +0.000 C 
ATOM     11  C   UNL     1       8.168   7.076  18.815  0.00  0.00    +0.000 C 
ENDBRANCH   5   8
BRANCH   1  12
ATOM     12  C   UNL     1       3.186   2.387  18.032  0.00  0.00    +0.000 C 
BRANCH  12  13
ATOM     13  C   UNL     1       2.086   3.431  17.785  0.00  0.00    +0.000 C 
BRANCH  13  19
ATOM     14  C   UNL     1       3.148   6.493  17.713  0.00  0.00    +0.000 C 
ATOM     15  C   UNL     1       2.454   5.802  18.843  0.00  0.00    +0.000 A 
ATOM     16  C   UNL     1       2.137   6.460  20.079  0.00  0.00    +0.000 A 
ATOM     17  C   UNL     1       1.485   5.643  20.969  0.00  0.00    +0.000 A 
ATOM     18  S   UNL     1       1.250   4.077  20.344  0.00  0.00    +0.000 S 
ATOM     19  C   UNL     1       2.016   4.481  18.860  0.00  0.00    +0.000 A 
ENDBRANCH  13  19
ENDBRANCH  12  13
ENDBRANCH   1  12
TORSDOF 4
ENDMDL
MODEL 8
REMARK VINA RESULT:      -6.7      1.161      1.613
REMARK  Name = 
REMARK  5 active torsions:
REMARK  status: ('A' for Active; 'I' for Inactive)
REMARK    1  A    between atoms: C_1  and  C_2
REMARK    2  A    between atoms: C_6  and  C_7
REMARK    3  A    between atoms: C_7  and  C_8
REMARK    4  A    between atoms: C_8  and  N_9
REMARK    5  A    between atoms: C_13  and  C_14
REMARK                            x       y       z     vdW  Elec       q    Type
REMARK                         _______ _______ _______ _____ _____    ______ ____
ROOT
ATOM      1  N   UNL     1       6.020   3.885  17.241  0.00  0.00    +0.000 N 
ATOM      2  C   UNL     1       6.351   4.285  16.002  0.00  0.00    +0.000 A 
ATOM      3  N   UNL     1       6.827   5.434  15.575  0.00  0.00    +0.000 NA
ATOM      4  N   UNL     1       6.882   5.353  14.203  0.00  0.00    +0.000 NA
ATOM      5  C   UNL     1       6.430   4.157  13.879  0.00  0.00    +0.000 A 
ATOM      6  O   UNL     1       6.076   3.417  14.980  0.00  0.00    +0.000 OA
ATOM      7  H   UNL     1       5.463   3.039  17.303  0.00  0.00    +0.000 HD
ENDROOT
BRANCH   5   8
ATOM      8  C   UNL     1       6.288   3.713  12.437  0.00  0.00    +0.000 C 
ATOM      9  C   UNL     1       6.425   2.188  12.178  0.00  0.00    +0.000 C 
ATOM     10  C   UNL     1       5.272   2.326  11.166  0.00  0.00    +0.000 C 
ATOM     11  C   UNL     1       4.805   3.533  11.997  0.00  0.00    +0.000 C 
ENDBRANCH   5   8
BRANCH   1  12
ATOM     12  C   UNL     1       5.686   4.926  18.214  0.00  0.00    +0.000 C 
BRANCH  12  13
ATOM     13  C   UNL     1       4.345   5.597  17.875  0.00  0.00    +0.000 C 
BRANCH  13  19
ATOM     14  C   UNL     1       2.598   2.934  17.274  0.00  0.00    +0.000 C 
ATOM     15  C   UNL     1       2.436   3.884  18.417  0.00  0.00    +0.000 A 
ATOM     16  C   UNL     1       1.455   3.698  19.448  0.00  0.00    +0.000 A 
ATOM     17  C   UNL     1       1.494   4.679  20.408  0.00  0.00    +0.000 A 
ATOM     18  S   UNL     1       2.697   5.840  20.085  0.00  0.00    +0.000 S 
ATOM     19  C   UNL     1       3.189   5.031  18.652  0.00  0.00    +0.000 A 
ENDBRANCH  13  19
ENDBRANCH  12  13
ENDBRANCH   1  12
TORSDOF 4
ENDMDL
MODEL 9
REMARK VINA RESULT:      -6.6      1.561      2.266
REMARK  Name = 
REMARK  5 active torsions:
REMARK  status: ('A' for Active; 'I' for Inactive)
REMARK    1  A    between atoms: C_1  and  C_2
REMARK    2  A    between atoms: C_6  and  C_7
REMARK    3  A    between atoms: C_7  and  C_8
REMARK    4  A    between atoms: C_8  and  N_9
REMARK    5  A    between atoms: C_13  and  C_14
REMARK                            x       y       z     vdW  Elec       q    Type
REMARK                         _______ _______ _______ _____ _____    ______ ____
ROOT
ATOM      1  N   UNL     1       5.297   3.900  18.155  0.00  0.00    +0.000 N 
ATOM      2  C   UNL     1       5.989   4.426  17.131  0.00  0.00    +0.000 A 
ATOM      3  N   UNL     1       6.959   5.314  17.124  0.00  0.00    +0.000 NA
ATOM      4  N   UNL     1       7.234   5.586  15.804  0.00  0.00    +0.000 NA
ATOM      5  C   UNL     1       6.409   4.847  15.088  0.00  0.00    +0.000 A 
ATOM      6  O   UNL     1       5.586   4.076  15.871  0.00  0.00    +0.000 OA
ATOM      7  H   UNL     1       4.446   3.405  17.911  0.00  0.00    +0.000 HD
ENDROOT
BRANCH   5   8
ATOM      8  C   UNL     1       6.376   4.913  13.575  0.00  0.00    +0.000 C 
ATOM      9  C   UNL     1       7.757   4.918  12.863  0.00  0.00    +0.000 C 
ATOM     10  C   UNL     1       7.137   3.986  11.804  0.00  0.00    +0.000 C 
ATOM     11  C   UNL     1       6.172   3.520  12.908  0.00  0.00    +0.000 C 
ENDBRANCH   5   8
BRANCH   1  12
ATOM     12  C   UNL     1       5.233   4.680  19.393  0.00  0.00    +0.000 C 
BRANCH  12  13
ATOM     13  C   UNL     1       3.850   5.324  19.575  0.00  0.00    +0.000 C 
BRANCH  13  19
ATOM     14  C   UNL     1       2.321   3.547  21.813  0.00  0.00    +0.000 C 
ATOM     15  C   UNL     1       2.041   3.590  20.345  0.00  0.00    +0.000 A 
ATOM     16  C   UNL     1       0.988   2.831  19.732  0.00  0.00    +0.000 A 
ATOM     17  C   UNL     1       0.897   3.035  18.377  0.00  0.00    +0.000 A 
ATOM     18  S   UNL     1       2.076   4.130  17.818  0.00  0.00    +0.000 S 
ATOM     19  C   UNL     1       2.717   4.351  19.396  0.00  0.00    +0.000 A 
ENDBRANCH  13  19
ENDBRANCH  12  13
ENDBRANCH   1  12
TORSDOF 4
ENDMDL
