MODEL 1
REMARK VINA RESULT:      -6.8      0.000      0.000
REMARK  Name = 
REMARK  5 active torsions:
REMARK  status: ('A' for Active; 'I' for Inactive)
REMARK    1  A    between atoms: N_1  and  C_2
REMARK    2  A    between atoms: C_2  and  C_3
REMARK    3  A    between atoms: C_3  and  N_4
REMARK    4  A    between atoms: N_4  and  C_15
REMARK    5  A    between atoms: C_5  and  C_7
REMARK                            x       y       z     vdW  Elec       q    Type
REMARK                         _______ _______ _______ _____ _____    ______ ____
ROOT
ATOM      1  N   UNL     1       5.912   4.285  16.376  0.00  0.00    +0.000 N 
ATOM      2  C   UNL     1       4.515   4.165  16.644  0.00  0.00    +0.000 C 
ATOM      3  O   UNL     1       3.641   4.197  15.780  0.00  0.00    +0.000 OA
ENDROOT
BRANCH   2   4
ATOM      4  C   UNL     1       3.969   3.944  18.025  0.00  0.00    +0.000 A 
ATOM      5  C   UNL     1       4.068   2.690  18.647  0.00  0.00    +0.000 A 
ATOM      6  C   UNL     1       3.497   2.461  19.904  0.00  0.00    +0.000 A 
ATOM      7  C   UNL     1       2.926   3.515  20.610  0.00  0.00    +0.000 A 
ATOM      8 CL   UNL     1       2.204   3.228  22.144  0.00  0.00    +0.000 Cl
ATOM      9  C   UNL     1       2.939   4.797  20.081  0.00  0.00    +0.000 A 
ATOM     10  C   UNL     1       3.448   5.016  18.784  0.00  0.00    +0.000 A 
ATOM     11 CL   UNL     1       3.365   6.657  18.237  0.00  0.00    +0.000 Cl
ENDBRANCH   2   4
BRANCH   1  12
ATOM     12  C   UNL     1       6.401   4.347  14.990  0.00  0.00    +0.000 A 
ATOM     13  C   UNL     1       7.391   5.250  14.571  0.00  0.00    +0.000 A 
ATOM     14  C   UNL     1       7.840   5.307  13.242  0.00  0.00    +0.000 A 
ATOM     15  C   UNL     1       7.325   4.439  12.291  0.00  0.00    +0.000 A 
ATOM     16  C   UNL     1       6.362   3.519  12.677  0.00  0.00    +0.000 A 
ATOM     17 CL   UNL     1       5.730   2.408  11.522  0.00  0.00    +0.000 Cl
ATOM     18  C   UNL     1       5.900   3.477  13.998  0.00  0.00    +0.000 A 
ENDBRANCH   1  12
BRANCH   1  19
ATOM     19  C   UNL     1       6.965   4.338  17.428  0.00  0.00    +0.000 C 
BRANCH  19  20
ATOM     20  C   UNL     1       6.908   5.660  18.244  0.00  0.00    +0.000 C 
BRANCH  20  21
ATOM     21  N   UNL     1       6.962   5.440  19.688  0.00  0.00    +0.000 NA
ATOM     22  H   UNL     1       7.202   4.460  19.864  0.00  0.00    +0.000 HD
ATOM     23  H   UNL     1       6.028   5.556  20.090  0.00  0.00    +0.000 HD
ENDBRANCH  20  21
ENDBRANCH  19  20
ENDBRANCH   1  19
TORSDOF 5
ENDMDL
MODEL 2
REMARK VINA RESULT:      -6.8      4.349      6.248
REMARK  Name = 
REMARK  5 active torsions:
REMARK  status: ('A' for Active; 'I' for Inactive)
REMARK    1  A    between atoms: N_1  and  C_2
REMARK    2  A    between atoms: C_2  and  C_3
REMARK    3  A    between atoms: C_3  and  N_4
REMARK    4  A    between atoms: N_4  and  C_15
REMARK    5  A    between atoms: C_5  and  C_7
REMARK                            x       y       z     vdW  Elec       q    Type
REMARK                         _______ _______ _______ _____ _____    ______ ____
ROOT
ATOM      1  N   UNL     1       2.120   6.209  19.733  0.00  0.00    +0.000 N 
ATOM      2  C   UNL     1       2.108   7.624  19.542  0.00  0.00    +0.000 C 
ATOM      3  O   UNL     1       2.739   8.207  18.662  0.00  0.00    +0.000 OA
ENDROOT
BRANCH   2   4
ATOM      4  C   UNL     1       1.280   8.551  20.384  0.00  0.00    +0.000 A 
ATOM      5  C   UNL     1       1.419   8.574  21.780  0.00  0.00    +0.000 A 
ATOM      6  C   UNL     1       0.599   9.384  22.574  0.00  0.00    +0.000 A 
ATOM      7  C   UNL     1      -0.287  10.273  21.975  0.00  0.00    +0.000 A 
ATOM      8 CL   UNL     1      -1.311  11.251  22.950  0.00  0.00    +0.000 Cl
ATOM      9  C   UNL     1      -0.345  10.374  20.593  0.00  0.00    +0.000 A 
ATOM     10  C   UNL     1       0.426   9.508  19.793  0.00  0.00    +0.000 A 
ATOM     11 CL   UNL     1       0.224   9.721  18.086  0.00  0.00    +0.000 Cl
ENDBRANCH   2   4
BRANCH   1  12
ATOM     12  C   UNL     1       2.828   5.337  18.785  0.00  0.00    +0.000 A 
ATOM     13  C   UNL     1       2.162   4.473  17.900  0.00  0.00    +0.000 A 
ATOM     14  C   UNL     1       2.851   3.635  17.009  0.00  0.00    +0.000 A 
ATOM     15  C   UNL     1       4.237   3.656  16.958  0.00  0.00    +0.000 A 
ATOM     16  C   UNL     1       4.924   4.514  17.801  0.00  0.00    +0.000 A 
ATOM     17 CL   UNL     1       6.644   4.582  17.735  0.00  0.00    +0.000 Cl
ATOM     18  C   UNL     1       4.237   5.334  18.705  0.00  0.00    +0.000 A 
ENDBRANCH   1  12
BRANCH   1  19
ATOM     19  C   UNL     1       1.430   5.511  20.853  0.00  0.00    +0.000 C 
BRANCH  19  20
ATOM     20  C   UNL     1       2.073   4.130  21.163  0.00  0.00    +0.000 C 
BRANCH  20  21
ATOM     21  N   UNL     1       1.098   3.040  21.184  0.00  0.00    +0.000 NA
ATOM     22  H   UNL     1       0.157   3.438  21.119  0.00  0.00    +0.000 HD
ATOM     23  H   UNL     1       1.122   2.573  22.094  0.00  0.00    +0.000 HD
ENDBRANCH  20  21
ENDBRANCH  19  20
ENDBRANCH   1  19
TORSDOF 5
ENDMDL
MODEL 3
REMARK VINA RESULT:      -6.4      7.851      9.884
REMARK  Name = 
REMARK  5 active torsions:
REMARK  status: ('A' for Active; 'I' for Inactive)
REMARK    1  A    between atoms: N_1  and  C_2
REMARK    2  A    between atoms: C_2  and  C_3
REMARK    3  A    between atoms: C_3  and  N_4
REMARK    4  A    between atoms: N_4  and  C_15
REMARK    5  A    between atoms: C_5  and  C_7
REMARK                            x       y       z     vdW  Elec       q    Type
REMARK                         _______ _______ _______ _____ _____    ______ ____
ROOT
ATOM      1  N   UNL     1       0.068  10.280  20.109  0.00  0.00    +0.000 N 
ATOM      2  C   UNL     1       0.313  10.748  21.435  0.00  0.00    +0.000 C 
ATOM      3  O   UNL     1       1.236  10.355  22.147  0.00  0.00    +0.000 OA
ENDROOT
BRANCH   2   4
ATOM      4  C   UNL     1      -0.520  11.813  22.087  0.00  0.00    +0.000 A 
ATOM      5  C   UNL     1      -1.628  11.476  22.881  0.00  0.00    +0.000 A 
ATOM      6  C   UNL     1      -2.449  12.466  23.432  0.00  0.00    +0.000 A 
ATOM      7  C   UNL     1      -2.105  13.807  23.299  0.00  0.00    +0.000 A 
ATOM      8 CL   UNL     1      -3.126  15.024  23.956  0.00  0.00    +0.000 Cl
ATOM      9  C   UNL     1      -0.938  14.165  22.640  0.00  0.00    +0.000 A 
ATOM     10  C   UNL     1      -0.149  13.174  22.022  0.00  0.00    +0.000 A 
ATOM     11 CL   UNL     1       1.256  13.769  21.202  0.00  0.00    +0.000 Cl
ENDBRANCH   2   4
BRANCH   1  12
ATOM     12  C   UNL     1       1.006   9.348  19.464  0.00  0.00    +0.000 A 
ATOM     13  C   UNL     1       1.626   9.620  18.234  0.00  0.00    +0.000 A 
ATOM     14  C   UNL     1       2.509   8.716  17.623  0.00  0.00    +0.000 A 
ATOM     15  C   UNL     1       2.821   7.515  18.242  0.00  0.00    +0.000 A 
ATOM     16  C   UNL     1       2.244   7.226  19.469  0.00  0.00    +0.000 A 
ATOM     17 CL   UNL     1       2.640   5.755  20.274  0.00  0.00    +0.000 Cl
ATOM     18  C   UNL     1       1.346   8.119  20.067  0.00  0.00    +0.000 A 
ENDBRANCH   1  12
BRANCH   1  19
ATOM     19  C   UNL     1      -1.101  10.687  19.280  0.00  0.00    +0.000 C 
BRANCH  19  20
ATOM     20  C   UNL     1      -0.898  12.087  18.635  0.00  0.00    +0.000 C 
BRANCH  20  21
ATOM     21  N   UNL     1      -1.567  12.219  17.342  0.00  0.00    +0.000 NA
ATOM     22  H   UNL     1      -2.571  12.338  17.500  0.00  0.00    +0.000 HD
ATOM     23  H   UNL     1      -1.486  11.343  16.820  0.00  0.00    +0.000 HD
ENDBRANCH  20  21
ENDBRANCH  19  20
ENDBRANCH   1  19
TORSDOF 5
ENDMDL
MODEL 4
REMARK VINA RESULT:      -6.4      1.873      2.192
REMARK  Name = 
REMARK  5 active torsions:
REMARK  status: ('A' for Active; 'I' for Inactive)
REMARK    1  A    between atoms: N_1  and  C_2
REMARK    2  A    between atoms: C_2  and  C_3
REMARK    3  A    between atoms: C_3  and  N_4
REMARK    4  A    between atoms: N_4  and  C_15
REMARK    5  A    between atoms: C_5  and  C_7
REMARK                            x       y       z     vdW  Elec       q    Type
REMARK                         _______ _______ _______ _____ _____    ______ ____
ROOT
ATOM      1  N   UNL     1       4.742   4.532  17.350  0.00  0.00    +0.000 N 
ATOM      2  C   UNL     1       4.061   3.316  17.658  0.00  0.00    +0.000 C 
ATOM      3  O   UNL     1       4.083   2.313  16.945  0.00  0.00    +0.000 OA
ENDROOT
BRANCH   2   4
ATOM      4  C   UNL     1       3.271   3.123  18.920  0.00  0.00    +0.000 A 
ATOM      5  C   UNL     1       3.879   2.622  20.081  0.00  0.00    +0.000 A 
ATOM      6  C   UNL     1       3.131   2.373  21.237  0.00  0.00    +0.000 A 
ATOM      7  C   UNL     1       1.790   2.736  21.289  0.00  0.00    +0.000 A 
ATOM      8 CL   UNL     1       0.866   2.409  22.701  0.00  0.00    +0.000 Cl
ATOM      9  C   UNL     1       1.196   3.364  20.203  0.00  0.00    +0.000 A 
ATOM     10  C   UNL     1       1.927   3.549  19.013  0.00  0.00    +0.000 A 
ATOM     11 CL   UNL     1       1.048   4.309  17.729  0.00  0.00    +0.000 Cl
ENDBRANCH   2   4
BRANCH   1  12
ATOM     12  C   UNL     1       5.624   4.615  16.177  0.00  0.00    +0.000 A 
ATOM     13  C   UNL     1       6.894   5.212  16.218  0.00  0.00    +0.000 A 
ATOM     14  C   UNL     1       7.721   5.296  15.087  0.00  0.00    +0.000 A 
ATOM     15  C   UNL     1       7.310   4.757  13.877  0.00  0.00    +0.000 A 
ATOM     16  C   UNL     1       6.071   4.139  13.808  0.00  0.00    +0.000 A 
ATOM     17 CL   UNL     1       5.551   3.433  12.326  0.00  0.00    +0.000 Cl
ATOM     18  C   UNL     1       5.238   4.075  14.932  0.00  0.00    +0.000 A 
ENDBRANCH   1  12
BRANCH   1  19
ATOM     19  C   UNL     1       4.642   5.776  18.165  0.00  0.00    +0.000 C 
BRANCH  19  20
ATOM     20  C   UNL     1       3.856   6.894  17.426  0.00  0.00    +0.000 C 
BRANCH  20  21
ATOM     21  N   UNL     1       2.744   7.424  18.215  0.00  0.00    +0.000 NA
ATOM     22  H   UNL     1       2.134   7.969  17.600  0.00  0.00    +0.000 HD
ATOM     23  H   UNL     1       3.097   8.098  18.899  0.00  0.00    +0.000 HD
ENDBRANCH  20  21
ENDBRANCH  19  20
ENDBRANCH   1  19
TORSDOF 5
ENDMDL
MODEL 5
REMARK VINA RESULT:      -6.4      5.984      8.482
REMARK  Name = 
REMARK  5 active torsions:
REMARK  status: ('A' for Active; 'I' for Inactive)
REMARK    1  A    between atoms: N_1  and  C_2
REMARK    2  A    between atoms: C_2  and  C_3
REMARK    3  A    between atoms: C_3  and  N_4
REMARK    4  A    between atoms: N_4  and  C_15
REMARK    5  A    between atoms: C_5  and  C_7
REMARK                            x       y       z     vdW  Elec       q    Type
REMARK                         _______ _______ _______ _____ _____    ______ ____
ROOT
ATOM      1  N   UNL     1       1.581   8.629  19.741  0.00  0.00    +0.000 N 
ATOM      2  C   UNL     1       1.488   9.559  18.662  0.00  0.00    +0.000 C 
ATOM      3  O   UNL     1       1.828   9.312  17.506  0.00  0.00    +0.000 OA
ENDROOT
BRANCH   2   4
ATOM      4  C   UNL     1       0.920  10.939  18.826  0.00  0.00    +0.000 A 
ATOM      5  C   UNL     1       1.757  12.037  19.083  0.00  0.00    +0.000 A 
ATOM      6  C   UNL     1       1.225  13.312  19.307  0.00  0.00    +0.000 A 
ATOM      7  C   UNL     1      -0.140  13.532  19.157  0.00  0.00    +0.000 A 
ATOM      8 CL   UNL     1      -0.795  15.093  19.456  0.00  0.00    +0.000 Cl
ATOM      9  C   UNL     1      -0.973  12.495  18.765  0.00  0.00    +0.000 A 
ATOM     10  C   UNL     1      -0.452  11.195  18.610  0.00  0.00    +0.000 A 
ATOM     11 CL   UNL     1      -1.614   9.994  18.156  0.00  0.00    +0.000 Cl
ENDBRANCH   2   4
BRANCH   1  12
ATOM     12  C   UNL     1       2.003   7.242  19.493  0.00  0.00    +0.000 A 
ATOM     13  C   UNL     1       2.606   6.832  18.293  0.00  0.00    +0.000 A 
ATOM     14  C   UNL     1       2.992   5.502  18.064  0.00  0.00    +0.000 A 
ATOM     15  C   UNL     1       2.809   4.540  19.047  0.00  0.00    +0.000 A 
ATOM     16  C   UNL     1       2.238   4.917  20.252  0.00  0.00    +0.000 A 
ATOM     17 CL   UNL     1       2.028   3.749  21.500  0.00  0.00    +0.000 Cl
ATOM     18  C   UNL     1       1.833   6.240  20.471  0.00  0.00    +0.000 A 
ENDBRANCH   1  12
BRANCH   1  19
ATOM     19  C   UNL     1       1.257   8.955  21.158  0.00  0.00    +0.000 C 
BRANCH  19  20
ATOM     20  C   UNL     1      -0.256   8.774  21.465  0.00  0.00    +0.000 C 
BRANCH  20  21
ATOM     21  N   UNL     1      -0.602   9.123  22.842  0.00  0.00    +0.000 NA
ATOM     22  H   UNL     1      -1.622   9.130  22.935  0.00  0.00    +0.000 HD
ATOM     23  H   UNL     1      -0.315  10.085  23.037  0.00  0.00    +0.000 HD
ENDBRANCH  20  21
ENDBRANCH  19  20
ENDBRANCH   1  19
TORSDOF 5
ENDMDL
MODEL 6
REMARK VINA RESULT:      -6.4      1.635      6.560
REMARK  Name = 
REMARK  5 active torsions:
REMARK  status: ('A' for Active; 'I' for Inactive)
REMARK    1  A    between atoms: N_1  and  C_2
REMARK    2  A    between atoms: C_2  and  C_3
REMARK    3  A    between atoms: C_3  and  N_4
REMARK    4  A    between atoms: N_4  and  C_15
REMARK    5  A    between atoms: C_5  and  C_7
REMARK                            x       y       z     vdW  Elec       q    Type
REMARK                         _______ _______ _______ _____ _____    ______ ____
ROOT
ATOM      1  N   UNL     1       4.787   4.071  18.274  0.00  0.00    +0.000 N 
ATOM      2  C   UNL     1       4.315   4.088  16.927  0.00  0.00    +0.000 C 
ATOM      3  O   UNL     1       3.141   3.916  16.605  0.00  0.00    +0.000 OA
ENDROOT
BRANCH   2   4
ATOM      4  C   UNL     1       5.212   4.363  15.755  0.00  0.00    +0.000 A 
ATOM      5  C   UNL     1       5.489   3.363  14.810  0.00  0.00    +0.000 A 
ATOM      6  C   UNL     1       6.381   3.593  13.756  0.00  0.00    +0.000 A 
ATOM      7  C   UNL     1       6.915   4.863  13.562  0.00  0.00    +0.000 A 
ATOM      8 CL   UNL     1       8.028   5.139  12.282  0.00  0.00    +0.000 Cl
ATOM      9  C   UNL     1       6.548   5.907  14.398  0.00  0.00    +0.000 A 
ATOM     10  C   UNL     1       5.708   5.661  15.502  0.00  0.00    +0.000 A 
ATOM     11 CL   UNL     1       5.367   7.049  16.481  0.00  0.00    +0.000 Cl
ENDBRANCH   2   4
BRANCH   1  12
ATOM     12  C   UNL     1       3.840   3.949  19.393  0.00  0.00    +0.000 A 
ATOM     13  C   UNL     1       3.715   2.780  20.161  0.00  0.00    +0.000 A 
ATOM     14  C   UNL     1       2.798   2.673  21.218  0.00  0.00    +0.000 A 
ATOM     15  C   UNL     1       1.991   3.748  21.558  0.00  0.00    +0.000 A 
ATOM     16  C   UNL     1       2.106   4.925  20.834  0.00  0.00    +0.000 A 
ATOM     17 CL   UNL     1       1.138   6.285  21.256  0.00  0.00    +0.000 Cl
ATOM     18  C   UNL     1       3.006   5.024  19.766  0.00  0.00    +0.000 A 
ENDBRANCH   1  12
BRANCH   1  19
ATOM     19  C   UNL     1       6.221   4.189  18.660  0.00  0.00    +0.000 C 
BRANCH  19  20
ATOM     20  C   UNL     1       6.516   5.519  19.408  0.00  0.00    +0.000 C 
BRANCH  20  21
ATOM     21  N   UNL     1       7.751   5.470  20.190  0.00  0.00    +0.000 NA
ATOM     22  H   UNL     1       8.418   6.138  19.795  0.00  0.00    +0.000 HD
ATOM     23  H   UNL     1       8.196   4.557  20.076  0.00  0.00    +0.000 HD
ENDBRANCH  20  21
ENDBRANCH  19  20
ENDBRANCH   1  19
TORSDOF 5
ENDMDL
MODEL 7
REMARK VINA RESULT:      -6.3      1.575      1.957
REMARK  Name = 
REMARK  5 active torsions:
REMARK  status: ('A' for Active; 'I' for Inactive)
REMARK    1  A    between atoms: N_1  and  C_2
REMARK    2  A    between atoms: C_2  and  C_3
REMARK    3  A    between atoms: C_3  and  N_4
REMARK    4  A    between atoms: N_4  and  C_15
REMARK    5  A    between atoms: C_5  and  C_7
REMARK                            x       y       z     vdW  Elec       q    Type
REMARK                         _______ _______ _______ _____ _____    ______ ____
ROOT
ATOM      1  N   UNL     1       5.300   4.208  17.274  0.00  0.00    +0.000 N 
ATOM      2  C   UNL     1       3.879   4.094  17.342  0.00  0.00    +0.000 C 
ATOM      3  O   UNL     1       3.127   4.253  16.381  0.00  0.00    +0.000 OA
ENDROOT
BRANCH   2   4
ATOM      4  C   UNL     1       3.152   3.722  18.601  0.00  0.00    +0.000 A 
ATOM      5  C   UNL     1       2.418   4.680  19.319  0.00  0.00    +0.000 A 
ATOM      6  C   UNL     1       1.798   4.354  20.531  0.00  0.00    +0.000 A 
ATOM      7  C   UNL     1       1.801   3.039  20.982  0.00  0.00    +0.000 A 
ATOM      8 CL   UNL     1       1.061   2.644  22.482  0.00  0.00    +0.000 Cl
ATOM      9  C   UNL     1       2.398   2.044  20.222  0.00  0.00    +0.000 A 
ATOM     10  C   UNL     1       3.085   2.381  19.038  0.00  0.00    +0.000 A 
ATOM     11 CL   UNL     1       3.815   1.044  18.214  0.00  0.00    +0.000 Cl
ENDBRANCH   2   4
BRANCH   1  12
ATOM     12  C   UNL     1       5.969   4.424  15.983  0.00  0.00    +0.000 A 
ATOM     13  C   UNL     1       7.051   5.305  15.823  0.00  0.00    +0.000 A 
ATOM     14  C   UNL     1       7.672   5.512  14.581  0.00  0.00    +0.000 A 
ATOM     15  C   UNL     1       7.244   4.819  13.459  0.00  0.00    +0.000 A 
ATOM     16  C   UNL     1       6.193   3.924  13.588  0.00  0.00    +0.000 A 
ATOM     17 CL   UNL     1       5.663   3.026  12.217  0.00  0.00    +0.000 Cl
ATOM     18  C   UNL     1       5.560   3.735  14.823  0.00  0.00    +0.000 A 
ENDBRANCH   1  12
BRANCH   1  19
ATOM     19  C   UNL     1       6.204   4.106  18.454  0.00  0.00    +0.000 C 
BRANCH  19  20
ATOM     20  C   UNL     1       6.290   5.444  19.240  0.00  0.00    +0.000 C 
BRANCH  20  21
ATOM     21  N   UNL     1       7.534   5.581  19.996  0.00  0.00    +0.000 NA
ATOM     22  H   UNL     1       7.405   5.165  20.922  0.00  0.00    +0.000 HD
ATOM     23  H   UNL     1       7.721   6.570  20.178  0.00  0.00    +0.000 HD
ENDBRANCH  20  21
ENDBRANCH  19  20
ENDBRANCH   1  19
TORSDOF 5
ENDMDL
MODEL 8
REMARK VINA RESULT:      -6.3      6.035      8.429
REMARK  Name = 
REMARK  5 active torsions:
REMARK  status: ('A' for Active; 'I' for Inactive)
REMARK    1  A    between atoms: N_1  and  C_2
REMARK    2  A    between atoms: C_2  and  C_3
REMARK    3  A    between atoms: C_3  and  N_4
REMARK    4  A    between atoms: N_4  and  C_15
REMARK    5  A    between atoms: C_5  and  C_7
REMARK                            x       y       z     vdW  Elec       q    Type
REMARK                         _______ _______ _______ _____ _____    ______ ____
ROOT
ATOM      1  N   UNL     1       1.566   8.757  19.828  0.00  0.00    +0.000 N 
ATOM      2  C   UNL     1       1.516   9.581  18.663  0.00  0.00    +0.000 C 
ATOM      3  O   UNL     1       1.852   9.209  17.540  0.00  0.00    +0.000 OA
ENDROOT
BRANCH   2   4
ATOM      4  C   UNL     1       1.002  10.991  18.686  0.00  0.00    +0.000 A 
ATOM      5  C   UNL     1       1.885  12.079  18.755  0.00  0.00    +0.000 A 
ATOM      6  C   UNL     1       1.408  13.391  18.849  0.00  0.00    +0.000 A 
ATOM      7  C   UNL     1       0.044  13.643  18.753  0.00  0.00    +0.000 A 
ATOM      8 CL   UNL     1      -0.544  15.253  18.892  0.00  0.00    +0.000 Cl
ATOM      9  C   UNL     1      -0.844  12.598  18.542  0.00  0.00    +0.000 A 
ATOM     10  C   UNL     1      -0.373  11.270  18.520  0.00  0.00    +0.000 A 
ATOM     11 CL   UNL     1      -1.597  10.067  18.288  0.00  0.00    +0.000 Cl
ENDBRANCH   2   4
BRANCH   1  12
ATOM     12  C   UNL     1       1.935   7.338  19.720  0.00  0.00    +0.000 A 
ATOM     13  C   UNL     1       1.529   6.372  20.656  0.00  0.00    +0.000 A 
ATOM     14  C   UNL     1       1.899   5.022  20.548  0.00  0.00    +0.000 A 
ATOM     15  C   UNL     1       2.669   4.590  19.478  0.00  0.00    +0.000 A 
ATOM     16  C   UNL     1       3.066   5.513  18.524  0.00  0.00    +0.000 A 
ATOM     17 CL   UNL     1       3.996   4.997  17.170  0.00  0.00    +0.000 Cl
ATOM     18  C   UNL     1       2.715   6.864  18.645  0.00  0.00    +0.000 A 
ENDBRANCH   1  12
BRANCH   1  19
ATOM     19  C   UNL     1       1.246   9.232  21.203  0.00  0.00    +0.000 C 
BRANCH  19  20
ATOM     20  C   UNL     1      -0.261   9.064  21.542  0.00  0.00    +0.000 C 
BRANCH  20  21
ATOM     21  N   UNL     1      -0.544   9.215  22.968  0.00  0.00    +0.000 NA
ATOM     22  H   UNL     1       0.341   9.338  23.469  0.00  0.00    +0.000 HD
ATOM     23  H   UNL     1      -0.934   8.345  23.337  0.00  0.00    +0.000 HD
ENDBRANCH  20  21
ENDBRANCH  19  20
ENDBRANCH   1  19
TORSDOF 5
ENDMDL
MODEL 9
REMARK VINA RESULT:      -6.3      1.492      1.721
REMARK  Name = 
REMARK  5 active torsions:
REMARK  status: ('A' for Active; 'I' for Inactive)
REMARK    1  A    between atoms: N_1  and  C_2
REMARK    2  A    between atoms: C_2  and  C_3
REMARK    3  A    between atoms: C_3  and  N_4
REMARK    4  A    between atoms: N_4  and  C_15
REMARK    5  A    between atoms: C_5  and  C_7
REMARK                            x       y       z     vdW  Elec       q    Type
REMARK                         _______ _______ _______ _____ _____    ______ ____
ROOT
ATOM      1  N   UNL     1       4.709   4.454  17.111  0.00  0.00    +0.000 N 
ATOM      2  C   UNL     1       4.097   3.222  17.492  0.00  0.00    +0.000 C 
ATOM      3  O   UNL     1       4.170   2.183  16.838  0.00  0.00    +0.000 OA
ENDROOT
BRANCH   2   4
ATOM      4  C   UNL     1       3.324   3.059  18.769  0.00  0.00    +0.000 A 
ATOM      5  C   UNL     1       3.927   2.510  19.911  0.00  0.00    +0.000 A 
ATOM      6  C   UNL     1       3.190   2.291  21.081  0.00  0.00    +0.000 A 
ATOM      7  C   UNL     1       1.873   2.728  21.165  0.00  0.00    +0.000 A 
ATOM      8 CL   UNL     1       0.961   2.437  22.593  0.00  0.00    +0.000 Cl
ATOM      9  C   UNL     1       1.293   3.401  20.099  0.00  0.00    +0.000 A 
ATOM     10  C   UNL     1       2.009   3.558  18.895  0.00  0.00    +0.000 A 
ATOM     11 CL   UNL     1       1.147   4.382  17.639  0.00  0.00    +0.000 Cl
ENDBRANCH   2   4
BRANCH   1  12
ATOM     12  C   UNL     1       5.581   4.517  15.928  0.00  0.00    +0.000 A 
ATOM     13  C   UNL     1       6.850   5.117  15.948  0.00  0.00    +0.000 A 
ATOM     14  C   UNL     1       7.667   5.182  14.809  0.00  0.00    +0.000 A 
ATOM     15  C   UNL     1       7.246   4.621  13.612  0.00  0.00    +0.000 A 
ATOM     16  C   UNL     1       6.008   4.000  13.565  0.00  0.00    +0.000 A 
ATOM     17 CL   UNL     1       5.475   3.267  12.100  0.00  0.00    +0.000 Cl
ATOM     18  C   UNL     1       5.185   3.955  14.697  0.00  0.00    +0.000 A 
ENDBRANCH   1  12
BRANCH   1  19
ATOM     19  C   UNL     1       4.545   5.734  17.854  0.00  0.00    +0.000 C 
BRANCH  19  20
ATOM     20  C   UNL     1       5.108   5.645  19.301  0.00  0.00    +0.000 C 
BRANCH  20  21
ATOM     21  N   UNL     1       6.493   5.179  19.345  0.00  0.00    +0.000 NA
ATOM     22  H   UNL     1       7.092   5.884  18.907  0.00  0.00    +0.000 HD
ATOM     23  H   UNL     1       6.596   4.347  18.758  0.00  0.00    +0.000 HD
ENDBRANCH  20  21
ENDBRANCH  19  20
ENDBRANCH   1  19
TORSDOF 5
ENDMDL
