MODEL 1
REMARK VINA RESULT:      -7.7      0.000      0.000
REMARK  Name = 
REMARK  14 active torsions:
REMARK  status: ('A' for Active; 'I' for Inactive)
REMARK    1  A    between atoms: C_1  and  S_2
REMARK    2  A    between atoms: S_2  and  C_3
REMARK    3  A    between atoms: C_3  and  C_4
REMARK    4  A    between atoms: C_4  and  C_5
REMARK    5  A    between atoms: C_5  and  N_6
REMARK    6  A    between atoms: C_5  and  C_23
REMARK    7  A    between atoms: N_6  and  C_7
REMARK    8  A    between atoms: C_7  and  C_8
REMARK    9  A    between atoms: C_10  and  C_11
REMARK   10  A    between atoms: N_12  and  C_13
REMARK   11  A    between atoms: N_17  and  C_18
REMARK   12  A    between atoms: C_18  and  C_19
REMARK   13  A    between atoms: C_18  and  C_20
REMARK   14  A    between atoms: C_21  and  C_22
REMARK                            x       y       z     vdW  Elec       q    Type
REMARK                         _______ _______ _______ _____ _____    ______ ____
ROOT
ATOM      1  N   UNL     1       2.199   6.725  20.541  0.00  0.00    +0.000 NA
ATOM      2  H   UNL     1       3.090   6.890  21.002  0.00  0.00    +0.000 HD
ENDROOT
BRANCH   1   3
ATOM      3  C   UNL     1       2.264   5.400  19.906  0.00  0.00    +0.000 C 
BRANCH   3   4
ATOM      4  C   UNL     1       3.456   5.307  18.998  0.00  0.00    +0.000 A 
ATOM      5  N   UNL     1       3.424   5.128  17.695  0.00  0.00    +0.000 NA
ATOM      6  C   UNL     1       4.720   4.969  17.308  0.00  0.00    +0.000 A 
ATOM      7  C   UNL     1       5.227   4.696  16.039  0.00  0.00    +0.000 A 
ATOM      8  C   UNL     1       6.606   4.535  15.892  0.00  0.00    +0.000 A 
ATOM      9  C   UNL     1       7.461   4.658  16.996  0.00  0.00    +0.000 A 
ATOM     10  C   UNL     1       6.967   4.944  18.277  0.00  0.00    +0.000 A 
ATOM     11  C   UNL     1       5.576   5.082  18.396  0.00  0.00    +0.000 A 
ATOM     12  N   UNL     1       4.754   5.309  19.468  0.00  0.00    +0.000 N 
ATOM     13  H   UNL     1       5.017   5.375  20.436  0.00  0.00    +0.000 HD
ENDBRANCH   3   4
BRANCH   3  14
ATOM     14  C   UNL     1       2.266   4.216  20.901  0.00  0.00    +0.000 C 
BRANCH  14  15
ATOM     15  C   UNL     1       1.173   3.167  20.714  0.00  0.00    +0.000 C 
BRANCH  15  17
ATOM     16  C   UNL     1       2.609   1.781  18.785  0.00  0.00    +0.000 C 
ATOM     17  S   UNL     1       0.991   2.571  19.001  0.00  0.00    +0.000 S 
ENDBRANCH  15  17
ENDBRANCH  14  15
ENDBRANCH   3  14
ENDBRANCH   1   3
BRANCH   1  18
ATOM     18  C   UNL     1       1.954   7.818  19.588  0.00  0.00    +0.000 C 
BRANCH  18  19
ATOM     19  C   UNL     1       1.197   8.915  20.275  0.00  0.00    +0.000 A 
ATOM     20  C   UNL     1       0.583   8.831  21.523  0.00  0.00    +0.000 A 
ATOM     21  C   UNL     1      -0.008  10.031  21.830  0.00  0.00    +0.000 A 
ATOM     22  C   UNL     1      -0.749  10.160  23.106  0.00  0.00    +0.000 C 
ATOM     23  N   UNL     1       0.319  10.977  20.836  0.00  0.00    +0.000 N 
ATOM     24  C   UNL     1       0.975  10.213  19.825  0.00  0.00    +0.000 A 
ATOM     25  C   UNL     1       1.359  10.684  18.452  0.00  0.00    +0.000 C 
BRANCH  23  26
ATOM     26  C   UNL     1       0.145  12.395  20.783  0.00  0.00    +0.000 A 
ATOM     27  C   UNL     1       1.107  13.321  21.175  0.00  0.00    +0.000 A 
ATOM     28  C   UNL     1       0.582  14.589  20.903  0.00  0.00    +0.000 A 
ATOM     29  N   UNL     1      -0.633  14.509  20.382  0.00  0.00    +0.000 NA
ATOM     30  N   UNL     1      -0.939  13.187  20.418  0.00  0.00    +0.000 N 
BRANCH  30  31
ATOM     31  C   UNL     1      -2.316  12.867  20.090  0.00  0.00    +0.000 C 
ATOM     32  C   UNL     1      -2.498  11.772  19.032  0.00  0.00    +0.000 C 
ATOM     33  C   UNL     1      -3.201  12.647  21.313  0.00  0.00    +0.000 C 
ENDBRANCH  30  31
ENDBRANCH  23  26
ENDBRANCH  18  19
ENDBRANCH   1  18
TORSDOF 9
ENDMDL
MODEL 2
REMARK VINA RESULT:      -7.6      0.704      2.055
REMARK  Name = 
REMARK  14 active torsions:
REMARK  status: ('A' for Active; 'I' for Inactive)
REMARK    1  A    between atoms: C_1  and  S_2
REMARK    2  A    between atoms: S_2  and  C_3
REMARK    3  A    between atoms: C_3  and  C_4
REMARK    4  A    between atoms: C_4  and  C_5
REMARK    5  A    between atoms: C_5  and  N_6
REMARK    6  A    between atoms: C_5  and  C_23
REMARK    7  A    between atoms: N_6  and  C_7
REMARK    8  A    between atoms: C_7  and  C_8
REMARK    9  A    between atoms: C_10  and  C_11
REMARK   10  A    between atoms: N_12  and  C_13
REMARK   11  A    between atoms: N_17  and  C_18
REMARK   12  A    between atoms: C_18  and  C_19
REMARK   13  A    between atoms: C_18  and  C_20
REMARK   14  A    between atoms: C_21  and  C_22
REMARK                            x       y       z     vdW  Elec       q    Type
REMARK                         _______ _______ _______ _____ _____    ______ ____
ROOT
ATOM      1  N   UNL     1       2.509   6.547  20.464  0.00  0.00    +0.000 NA
ATOM      2  H   UNL     1       3.461   6.674  20.796  0.00  0.00    +0.000 HD
ENDROOT
BRANCH   1   3
ATOM      3  C   UNL     1       2.428   5.215  19.843  0.00  0.00    +0.000 C 
BRANCH   3   4
ATOM      4  C   UNL     1       3.607   4.979  18.945  0.00  0.00    +0.000 A 
ATOM      5  N   UNL     1       4.863   4.883  19.326  0.00  0.00    +0.000 NA
ATOM      6  C   UNL     1       5.595   4.810  18.180  0.00  0.00    +0.000 A 
ATOM      7  C   UNL     1       6.979   4.750  18.028  0.00  0.00    +0.000 A 
ATOM      8  C   UNL     1       7.509   4.720  16.737  0.00  0.00    +0.000 A 
ATOM      9  C   UNL     1       6.665   4.736  15.618  0.00  0.00    +0.000 A 
ATOM     10  C   UNL     1       5.270   4.784  15.755  0.00  0.00    +0.000 A 
ATOM     11  C   UNL     1       4.768   4.831  17.064  0.00  0.00    +0.000 A 
ATOM     12  N   UNL     1       3.499   4.930  17.570  0.00  0.00    +0.000 N 
ATOM     13  H   UNL     1       2.643   5.039  17.054  0.00  0.00    +0.000 HD
ENDBRANCH   3   4
BRANCH   3  14
ATOM     14  C   UNL     1       2.291   4.050  20.851  0.00  0.00    +0.000 C 
BRANCH  14  15
ATOM     15  C   UNL     1       1.131   3.084  20.621  0.00  0.00    +0.000 C 
BRANCH  15  17
ATOM     16  C   UNL     1       2.593   1.662  18.738  0.00  0.00    +0.000 C 
ATOM     17  S   UNL     1       0.985   2.483  18.906  0.00  0.00    +0.000 S 
ENDBRANCH  15  17
ENDBRANCH  14  15
ENDBRANCH   3  14
ENDBRANCH   1   3
BRANCH   1  18
ATOM     18  C   UNL     1       2.183   7.643  19.539  0.00  0.00    +0.000 C 
BRANCH  18  19
ATOM     19  C   UNL     1       1.316   8.644  20.241  0.00  0.00    +0.000 A 
ATOM     20  C   UNL     1       0.907   8.584  21.571  0.00  0.00    +0.000 A 
ATOM     21  C   UNL     1       0.127   9.675  21.866  0.00  0.00    +0.000 A 
ATOM     22  C   UNL     1      -0.446   9.801  23.225  0.00  0.00    +0.000 C 
ATOM     23  N   UNL     1       0.117  10.549  20.758  0.00  0.00    +0.000 N 
ATOM     24  C   UNL     1       0.774   9.817  19.726  0.00  0.00    +0.000 A 
ATOM     25  C   UNL     1       0.865  10.197  18.275  0.00  0.00    +0.000 C 
BRANCH  23  26
ATOM     26  C   UNL     1      -0.350  11.893  20.617  0.00  0.00    +0.000 A 
ATOM     27  C   UNL     1      -1.669  12.244  20.345  0.00  0.00    +0.000 A 
ATOM     28  C   UNL     1      -1.726  13.642  20.356  0.00  0.00    +0.000 A 
ATOM     29  N   UNL     1      -0.539  14.174  20.606  0.00  0.00    +0.000 NA
ATOM     30  N   UNL     1       0.312  13.117  20.649  0.00  0.00    +0.000 N 
BRANCH  30  31
ATOM     31  C   UNL     1       1.720  13.465  20.702  0.00  0.00    +0.000 C 
ATOM     32  C   UNL     1       2.438  13.488  19.348  0.00  0.00    +0.000 C 
ATOM     33  C   UNL     1       2.012  14.707  21.538  0.00  0.00    +0.000 C 
ENDBRANCH  30  31
ENDBRANCH  23  26
ENDBRANCH  18  19
ENDBRANCH   1  18
TORSDOF 9
ENDMDL
MODEL 3
REMARK VINA RESULT:      -7.5      1.656      2.200
REMARK  Name = 
REMARK  14 active torsions:
REMARK  status: ('A' for Active; 'I' for Inactive)
REMARK    1  A    between atoms: C_1  and  S_2
REMARK    2  A    between atoms: S_2  and  C_3
REMARK    3  A    between atoms: C_3  and  C_4
REMARK    4  A    between atoms: C_4  and  C_5
REMARK    5  A    between atoms: C_5  and  N_6
REMARK    6  A    between atoms: C_5  and  C_23
REMARK    7  A    between atoms: N_6  and  C_7
REMARK    8  A    between atoms: C_7  and  C_8
REMARK    9  A    between atoms: C_10  and  C_11
REMARK   10  A    between atoms: N_12  and  C_13
REMARK   11  A    between atoms: N_17  and  C_18
REMARK   12  A    between atoms: C_18  and  C_19
REMARK   13  A    between atoms: C_18  and  C_20
REMARK   14  A    between atoms: C_21  and  C_22
REMARK                            x       y       z     vdW  Elec       q    Type
REMARK                         _______ _______ _______ _____ _____    ______ ____
ROOT
ATOM      1  N   UNL     1       1.526   5.867  19.475  0.00  0.00    +0.000 NA
ATOM      2  H   UNL     1       1.463   5.057  20.085  0.00  0.00    +0.000 HD
ENDROOT
BRANCH   1   3
ATOM      3  C   UNL     1       2.099   5.418  18.196  0.00  0.00    +0.000 C 
BRANCH   3   4
ATOM      4  C   UNL     1       3.587   5.617  18.186  0.00  0.00    +0.000 A 
ATOM      5  N   UNL     1       4.449   5.049  19.002  0.00  0.00    +0.000 NA
ATOM      6  C   UNL     1       5.655   5.617  18.724  0.00  0.00    +0.000 A 
ATOM      7  C   UNL     1       6.886   5.405  19.343  0.00  0.00    +0.000 A 
ATOM      8  C   UNL     1       7.988   6.141  18.906  0.00  0.00    +0.000 A 
ATOM      9  C   UNL     1       7.862   7.064  17.859  0.00  0.00    +0.000 A 
ATOM     10  C   UNL     1       6.633   7.280  17.218  0.00  0.00    +0.000 A 
ATOM     11  C   UNL     1       5.539   6.539  17.691  0.00  0.00    +0.000 A 
ATOM     12  N   UNL     1       4.212   6.520  17.350  0.00  0.00    +0.000 N 
ATOM     13  H   UNL     1       3.745   7.110  16.684  0.00  0.00    +0.000 HD
ENDBRANCH   3   4
BRANCH   3  14
ATOM     14  C   UNL     1       1.760   3.955  17.824  0.00  0.00    +0.000 C 
BRANCH  14  15
ATOM     15  C   UNL     1       1.076   3.119  18.903  0.00  0.00    +0.000 C 
BRANCH  15  17
ATOM     16  C   UNL     1       1.765   2.955  21.586  0.00  0.00    +0.000 C 
ATOM     17  S   UNL     1       2.225   2.219  19.994  0.00  0.00    +0.000 S 
ENDBRANCH  15  17
ENDBRANCH  14  15
ENDBRANCH   3  14
ENDBRANCH   1   3
BRANCH   1  18
ATOM     18  C   UNL     1       2.330   6.899  20.145  0.00  0.00    +0.000 C 
BRANCH  18  19
ATOM     19  C   UNL     1       1.491   8.124  20.354  0.00  0.00    +0.000 A 
ATOM     20  C   UNL     1       0.883   8.508  21.547  0.00  0.00    +0.000 A 
ATOM     21  C   UNL     1       0.203   9.686  21.362  0.00  0.00    +0.000 A 
ATOM     22  C   UNL     1      -0.548  10.266  22.498  0.00  0.00    +0.000 C 
ATOM     23  N   UNL     1       0.461  10.171  20.062  0.00  0.00    +0.000 N 
ATOM     24  C   UNL     1       1.174   9.112  19.426  0.00  0.00    +0.000 A 
ATOM     25  C   UNL     1       1.525   9.015  17.969  0.00  0.00    +0.000 C 
BRANCH  23  26
ATOM     26  C   UNL     1       0.182  11.432  19.449  0.00  0.00    +0.000 A 
ATOM     27  C   UNL     1       0.978  12.565  19.581  0.00  0.00    +0.000 A 
ATOM     28  C   UNL     1       0.406  13.558  18.778  0.00  0.00    +0.000 A 
ATOM     29  N   UNL     1      -0.687  13.120  18.170  0.00  0.00    +0.000 NA
ATOM     30  N   UNL     1      -0.883  11.872  18.668  0.00  0.00    +0.000 N 
BRANCH  30  31
ATOM     31  C   UNL     1      -2.148  11.260  18.308  0.00  0.00    +0.000 C 
ATOM     32  C   UNL     1      -3.390  11.927  18.910  0.00  0.00    +0.000 C 
ATOM     33  C   UNL     1      -2.297  10.994  16.813  0.00  0.00    +0.000 C 
ENDBRANCH  30  31
ENDBRANCH  23  26
ENDBRANCH  18  19
ENDBRANCH   1  18
TORSDOF 9
ENDMDL
MODEL 4
REMARK VINA RESULT:      -7.2      1.091      1.606
REMARK  Name = 
REMARK  14 active torsions:
REMARK  status: ('A' for Active; 'I' for Inactive)
REMARK    1  A    between atoms: C_1  and  S_2
REMARK    2  A    between atoms: S_2  and  C_3
REMARK    3  A    between atoms: C_3  and  C_4
REMARK    4  A    between atoms: C_4  and  C_5
REMARK    5  A    between atoms: C_5  and  N_6
REMARK    6  A    between atoms: C_5  and  C_23
REMARK    7  A    between atoms: N_6  and  C_7
REMARK    8  A    between atoms: C_7  and  C_8
REMARK    9  A    between atoms: C_10  and  C_11
REMARK   10  A    between atoms: N_12  and  C_13
REMARK   11  A    between atoms: N_17  and  C_18
REMARK   12  A    between atoms: C_18  and  C_19
REMARK   13  A    between atoms: C_18  and  C_20
REMARK   14  A    between atoms: C_21  and  C_22
REMARK                            x       y       z     vdW  Elec       q    Type
REMARK                         _______ _______ _______ _____ _____    ______ ____
ROOT
ATOM      1  N   UNL     1       2.272   7.007  20.145  0.00  0.00    +0.000 NA
ATOM      2  H   UNL     1       1.939   7.601  19.390  0.00  0.00    +0.000 HD
ENDROOT
BRANCH   1   3
ATOM      3  C   UNL     1       2.237   5.616  19.667  0.00  0.00    +0.000 C 
BRANCH   3   4
ATOM      4  C   UNL     1       3.491   5.286  18.910  0.00  0.00    +0.000 A 
ATOM      5  N   UNL     1       4.714   5.297  19.397  0.00  0.00    +0.000 NA
ATOM      6  C   UNL     1       5.539   5.072  18.337  0.00  0.00    +0.000 A 
ATOM      7  C   UNL     1       6.932   5.041  18.304  0.00  0.00    +0.000 A 
ATOM      8  C   UNL     1       7.566   4.829  17.079  0.00  0.00    +0.000 A 
ATOM      9  C   UNL     1       6.816   4.640  15.910  0.00  0.00    +0.000 A 
ATOM     10  C   UNL     1       5.413   4.658  15.929  0.00  0.00    +0.000 A 
ATOM     11  C   UNL     1       4.805   4.890  17.172  0.00  0.00    +0.000 A 
ATOM     12  N   UNL     1       3.497   5.019  17.556  0.00  0.00    +0.000 N 
ATOM     13  H   UNL     1       2.684   5.016  16.965  0.00  0.00    +0.000 HD
ENDBRANCH   3   4
BRANCH   3  14
ATOM     14  C   UNL     1       1.999   4.566  20.777  0.00  0.00    +0.000 C 
BRANCH  14  15
ATOM     15  C   UNL     1       2.565   3.171  20.526  0.00  0.00    +0.000 C 
BRANCH  15  17
ATOM     16  C   UNL     1       3.146   1.593  18.318  0.00  0.00    +0.000 C 
ATOM     17  S   UNL     1       1.708   2.237  19.216  0.00  0.00    +0.000 S 
ENDBRANCH  15  17
ENDBRANCH  14  15
ENDBRANCH   3  14
ENDBRANCH   1   3
BRANCH   1  18
ATOM     18  C   UNL     1       1.433   7.239  21.330  0.00  0.00    +0.000 C 
BRANCH  18  19
ATOM     19  C   UNL     1       0.829   8.609  21.250  0.00  0.00    +0.000 A 
ATOM     20  C   UNL     1       0.168   9.274  22.281  0.00  0.00    +0.000 A 
ATOM     21  C   UNL     1      -0.245  10.509  21.845  0.00  0.00    +0.000 A 
ATOM     22  C   UNL     1      -0.999  11.381  22.773  0.00  0.00    +0.000 C 
ATOM     23  N   UNL     1       0.256  10.732  20.545  0.00  0.00    +0.000 N 
ATOM     24  C   UNL     1       0.822   9.479  20.165  0.00  0.00    +0.000 A 
ATOM     25  C   UNL     1       1.318   9.095  18.801  0.00  0.00    +0.000 C 
BRANCH  23  26
ATOM     26  C   UNL     1       0.301  11.911  19.736  0.00  0.00    +0.000 A 
ATOM     27  C   UNL     1       1.270  12.903  19.845  0.00  0.00    +0.000 A 
ATOM     28  C   UNL     1       1.006  13.839  18.840  0.00  0.00    +0.000 A 
ATOM     29  N   UNL     1      -0.058  13.498  18.128  0.00  0.00    +0.000 NA
ATOM     30  N   UNL     1      -0.548  12.393  18.746  0.00  0.00    +0.000 N 
BRANCH  30  31
ATOM     31  C   UNL     1      -1.846  11.950  18.271  0.00  0.00    +0.000 C 
ATOM     32  C   UNL     1      -1.852  10.593  17.557  0.00  0.00    +0.000 C 
ATOM     33  C   UNL     1      -2.952  12.062  19.316  0.00  0.00    +0.000 C 
ENDBRANCH  30  31
ENDBRANCH  23  26
ENDBRANCH  18  19
ENDBRANCH   1  18
TORSDOF 9
ENDMDL
MODEL 5
REMARK VINA RESULT:      -7.2      0.993      1.965
REMARK  Name = 
REMARK  14 active torsions:
REMARK  status: ('A' for Active; 'I' for Inactive)
REMARK    1  A    between atoms: C_1  and  S_2
REMARK    2  A    between atoms: S_2  and  C_3
REMARK    3  A    between atoms: C_3  and  C_4
REMARK    4  A    between atoms: C_4  and  C_5
REMARK    5  A    between atoms: C_5  and  N_6
REMARK    6  A    between atoms: C_5  and  C_23
REMARK    7  A    between atoms: N_6  and  C_7
REMARK    8  A    between atoms: C_7  and  C_8
REMARK    9  A    between atoms: C_10  and  C_11
REMARK   10  A    between atoms: N_12  and  C_13
REMARK   11  A    between atoms: N_17  and  C_18
REMARK   12  A    between atoms: C_18  and  C_19
REMARK   13  A    between atoms: C_18  and  C_20
REMARK   14  A    between atoms: C_21  and  C_22
REMARK                            x       y       z     vdW  Elec       q    Type
REMARK                         _______ _______ _______ _____ _____    ______ ____
ROOT
ATOM      1  N   UNL     1       2.297   7.090  20.516  0.00  0.00    +0.000 NA
ATOM      2  H   UNL     1       3.256   7.341  20.739  0.00  0.00    +0.000 HD
ENDROOT
BRANCH   1   3
ATOM      3  C   UNL     1       2.300   5.700  20.034  0.00  0.00    +0.000 C 
BRANCH   3   4
ATOM      4  C   UNL     1       3.430   5.478  19.071  0.00  0.00    +0.000 A 
ATOM      5  N   UNL     1       3.313   5.121  17.810  0.00  0.00    +0.000 NA
ATOM      6  C   UNL     1       4.582   4.904  17.365  0.00  0.00    +0.000 A 
ATOM      7  C   UNL     1       5.006   4.457  16.115  0.00  0.00    +0.000 A 
ATOM      8  C   UNL     1       6.372   4.270  15.901  0.00  0.00    +0.000 A 
ATOM      9  C   UNL     1       7.298   4.538  16.919  0.00  0.00    +0.000 A 
ATOM     10  C   UNL     1       6.887   5.000  18.178  0.00  0.00    +0.000 A 
ATOM     11  C   UNL     1       5.507   5.161  18.369  0.00  0.00    +0.000 A 
ATOM     12  N   UNL     1       4.755   5.537  19.451  0.00  0.00    +0.000 N 
ATOM     13  H   UNL     1       5.081   5.735  20.381  0.00  0.00    +0.000 HD
ENDBRANCH   3   4
BRANCH   3  14
ATOM     14  C   UNL     1       2.346   4.637  21.156  0.00  0.00    +0.000 C 
BRANCH  14  15
ATOM     15  C   UNL     1       1.363   3.475  21.034  0.00  0.00    +0.000 C 
BRANCH  15  17
ATOM     16  C   UNL     1       0.939   2.509  18.468  0.00  0.00    +0.000 C 
ATOM     17  S   UNL     1       1.925   2.129  19.941  0.00  0.00    +0.000 S 
ENDBRANCH  15  17
ENDBRANCH  14  15
ENDBRANCH   3  14
ENDBRANCH   1   3
BRANCH   1  18
ATOM     18  C   UNL     1       1.778   8.049  19.529  0.00  0.00    +0.000 C 
BRANCH  18  19
ATOM     19  C   UNL     1       1.033   9.139  20.240  0.00  0.00    +0.000 A 
ATOM     20  C   UNL     1       0.443   9.042  21.499  0.00  0.00    +0.000 A 
ATOM     21  C   UNL     1      -0.144  10.239  21.828  0.00  0.00    +0.000 A 
ATOM     22  C   UNL     1      -0.860  10.355  23.118  0.00  0.00    +0.000 C 
ATOM     23  N   UNL     1       0.164  11.195  20.837  0.00  0.00    +0.000 N 
ATOM     24  C   UNL     1       0.802  10.441  19.807  0.00  0.00    +0.000 A 
ATOM     25  C   UNL     1       1.159  10.925  18.431  0.00  0.00    +0.000 C 
BRANCH  23  26
ATOM     26  C   UNL     1      -0.011  12.613  20.801  0.00  0.00    +0.000 A 
ATOM     27  C   UNL     1      -1.243  13.252  20.701  0.00  0.00    +0.000 A 
ATOM     28  C   UNL     1      -0.994  14.626  20.770  0.00  0.00    +0.000 A 
ATOM     29  N   UNL     1       0.301  14.878  20.896  0.00  0.00    +0.000 NA
ATOM     30  N   UNL     1       0.901  13.664  20.799  0.00  0.00    +0.000 N 
BRANCH  30  31
ATOM     31  C   UNL     1       2.348  13.702  20.697  0.00  0.00    +0.000 C 
ATOM     32  C   UNL     1       2.897  13.922  19.283  0.00  0.00    +0.000 C 
ATOM     33  C   UNL     1       3.011  14.611  21.727  0.00  0.00    +0.000 C 
ENDBRANCH  30  31
ENDBRANCH  23  26
ENDBRANCH  18  19
ENDBRANCH   1  18
TORSDOF 9
ENDMDL
MODEL 6
REMARK VINA RESULT:      -7.1      1.582      2.071
REMARK  Name = 
REMARK  14 active torsions:
REMARK  status: ('A' for Active; 'I' for Inactive)
REMARK    1  A    between atoms: C_1  and  S_2
REMARK    2  A    between atoms: S_2  and  C_3
REMARK    3  A    between atoms: C_3  and  C_4
REMARK    4  A    between atoms: C_4  and  C_5
REMARK    5  A    between atoms: C_5  and  N_6
REMARK    6  A    between atoms: C_5  and  C_23
REMARK    7  A    between atoms: N_6  and  C_7
REMARK    8  A    between atoms: C_7  and  C_8
REMARK    9  A    between atoms: C_10  and  C_11
REMARK   10  A    between atoms: N_12  and  C_13
REMARK   11  A    between atoms: N_17  and  C_18
REMARK   12  A    between atoms: C_18  and  C_19
REMARK   13  A    between atoms: C_18  and  C_20
REMARK   14  A    between atoms: C_21  and  C_22
REMARK                            x       y       z     vdW  Elec       q    Type
REMARK                         _______ _______ _______ _____ _____    ______ ____
ROOT
ATOM      1  N   UNL     1       1.477   6.146  21.042  0.00  0.00    +0.000 NA
ATOM      2  H   UNL     1       1.840   5.575  21.800  0.00  0.00    +0.000 HD
ENDROOT
BRANCH   1   3
ATOM      3  C   UNL     1       1.570   5.354  19.805  0.00  0.00    +0.000 C 
BRANCH   3   4
ATOM      4  C   UNL     1       2.951   5.445  19.223  0.00  0.00    +0.000 A 
ATOM      5  N   UNL     1       4.068   5.086  19.820  0.00  0.00    +0.000 NA
ATOM      6  C   UNL     1       5.075   5.469  18.987  0.00  0.00    +0.000 A 
ATOM      7  C   UNL     1       6.452   5.369  19.176  0.00  0.00    +0.000 A 
ATOM      8  C   UNL     1       7.300   5.871  18.188  0.00  0.00    +0.000 A 
ATOM      9  C   UNL     1       6.776   6.453  17.026  0.00  0.00    +0.000 A 
ATOM     10  C   UNL     1       5.393   6.551  16.815  0.00  0.00    +0.000 A 
ATOM     11  C   UNL     1       4.566   6.053  17.834  0.00  0.00    +0.000 A 
ATOM     12  N   UNL     1       3.206   6.021  17.995  0.00  0.00    +0.000 N 
ATOM     13  H   UNL     1       2.510   6.419  17.388  0.00  0.00    +0.000 HD
ENDBRANCH   3   4
BRANCH   3  14
ATOM     14  C   UNL     1       1.162   3.871  19.964  0.00  0.00    +0.000 C 
BRANCH  14  15
ATOM     15  C   UNL     1       1.319   2.985  18.731  0.00  0.00    +0.000 C 
BRANCH  15  17
ATOM     16  C   UNL     1       3.710   2.332  17.483  0.00  0.00    +0.000 C 
ATOM     17  S   UNL     1       2.666   1.764  18.852  0.00  0.00    +0.000 S 
ENDBRANCH  15  17
ENDBRANCH  14  15
ENDBRANCH   3  14
ENDBRANCH   1   3
BRANCH   1  18
ATOM     18  C   UNL     1       2.241   7.401  20.991  0.00  0.00    +0.000 C 
BRANCH  18  19
ATOM     19  C   UNL     1       1.292   8.561  20.994  0.00  0.00    +0.000 A 
ATOM     20  C   UNL     1       0.610   9.060  22.102  0.00  0.00    +0.000 A 
ATOM     21  C   UNL     1      -0.164  10.129  21.726  0.00  0.00    +0.000 A 
ATOM     22  C   UNL     1      -1.003  10.800  22.745  0.00  0.00    +0.000 C 
ATOM     23  N   UNL     1       0.098  10.438  20.374  0.00  0.00    +0.000 N 
ATOM     24  C   UNL     1       0.923   9.367  19.921  0.00  0.00    +0.000 A 
ATOM     25  C   UNL     1       1.333   9.088  18.504  0.00  0.00    +0.000 C 
BRANCH  23  26
ATOM     26  C   UNL     1      -0.269  11.564  19.572  0.00  0.00    +0.000 A 
ATOM     27  C   UNL     1       0.302  12.828  19.681  0.00  0.00    +0.000 A 
ATOM     28  C   UNL     1      -0.273  13.619  18.682  0.00  0.00    +0.000 A 
ATOM     29  N   UNL     1      -1.161  12.937  17.973  0.00  0.00    +0.000 NA
ATOM     30  N   UNL     1      -1.238  11.728  18.587  0.00  0.00    +0.000 N 
BRANCH  30  31
ATOM     31  C   UNL     1      -2.308  10.869  18.116  0.00  0.00    +0.000 C 
ATOM     32  C   UNL     1      -3.658  11.564  17.902  0.00  0.00    +0.000 C 
ATOM     33  C   UNL     1      -1.913   9.990  16.934  0.00  0.00    +0.000 C 
ENDBRANCH  30  31
ENDBRANCH  23  26
ENDBRANCH  18  19
ENDBRANCH   1  18
TORSDOF 9
ENDMDL
MODEL 7
REMARK VINA RESULT:      -7.1      1.557      1.743
REMARK  Name = 
REMARK  14 active torsions:
REMARK  status: ('A' for Active; 'I' for Inactive)
REMARK    1  A    between atoms: C_1  and  S_2
REMARK    2  A    between atoms: S_2  and  C_3
REMARK    3  A    between atoms: C_3  and  C_4
REMARK    4  A    between atoms: C_4  and  C_5
REMARK    5  A    between atoms: C_5  and  N_6
REMARK    6  A    between atoms: C_5  and  C_23
REMARK    7  A    between atoms: N_6  and  C_7
REMARK    8  A    between atoms: C_7  and  C_8
REMARK    9  A    between atoms: C_10  and  C_11
REMARK   10  A    between atoms: N_12  and  C_13
REMARK   11  A    between atoms: N_17  and  C_18
REMARK   12  A    between atoms: C_18  and  C_19
REMARK   13  A    between atoms: C_18  and  C_20
REMARK   14  A    between atoms: C_21  and  C_22
REMARK                            x       y       z     vdW  Elec       q    Type
REMARK                         _______ _______ _______ _____ _____    ______ ____
ROOT
ATOM      1  N   UNL     1       1.306   5.975  20.509  0.00  0.00    +0.000 NA
ATOM      2  H   UNL     1       0.889   5.630  21.369  0.00  0.00    +0.000 HD
ENDROOT
BRANCH   1   3
ATOM      3  C   UNL     1       2.048   4.863  19.895  0.00  0.00    +0.000 C 
BRANCH   3   4
ATOM      4  C   UNL     1       3.356   5.345  19.339  0.00  0.00    +0.000 A 
ATOM      5  N   UNL     1       3.531   5.944  18.180  0.00  0.00    +0.000 NA
ATOM      6  C   UNL     1       4.878   6.076  18.028  0.00  0.00    +0.000 A 
ATOM      7  C   UNL     1       5.590   6.596  16.949  0.00  0.00    +0.000 A 
ATOM      8  C   UNL     1       6.984   6.590  17.004  0.00  0.00    +0.000 A 
ATOM      9  C   UNL     1       7.653   6.083  18.127  0.00  0.00    +0.000 A 
ATOM     10  C   UNL     1       6.950   5.567  19.226  0.00  0.00    +0.000 A 
ATOM     11  C   UNL     1       5.551   5.570  19.134  0.00  0.00    +0.000 A 
ATOM     12  N   UNL     1       4.563   5.116  19.968  0.00  0.00    +0.000 N 
ATOM     13  H   UNL     1       4.678   4.622  20.836  0.00  0.00    +0.000 HD
ENDBRANCH   3   4
BRANCH   3  14
ATOM     14  C   UNL     1       2.286   3.659  20.836  0.00  0.00    +0.000 C 
BRANCH  14  15
ATOM     15  C   UNL     1       1.530   2.375  20.504  0.00  0.00    +0.000 C 
BRANCH  15  17
ATOM     16  C   UNL     1       3.310   1.700  18.484  0.00  0.00    +0.000 C 
ATOM     17  S   UNL     1       1.531   1.941  18.733  0.00  0.00    +0.000 S 
ENDBRANCH  15  17
ENDBRANCH  14  15
ENDBRANCH   3  14
ENDBRANCH   1   3
BRANCH   1  18
ATOM     18  C   UNL     1       2.152   7.134  20.830  0.00  0.00    +0.000 C 
BRANCH  18  19
ATOM     19  C   UNL     1       1.303   8.370  20.879  0.00  0.00    +0.000 A 
ATOM     20  C   UNL     1       0.733   8.928  22.022  0.00  0.00    +0.000 A 
ATOM     21  C   UNL     1       0.029  10.057  21.683  0.00  0.00    +0.000 A 
ATOM     22  C   UNL     1      -0.688  10.799  22.744  0.00  0.00    +0.000 C 
ATOM     23  N   UNL     1       0.233  10.337  20.315  0.00  0.00    +0.000 N 
ATOM     24  C   UNL     1       0.938   9.200  19.824  0.00  0.00    +0.000 A 
ATOM     25  C   UNL     1       1.237   8.881  18.387  0.00  0.00    +0.000 C 
BRANCH  23  26
ATOM     26  C   UNL     1      -0.087  11.486  19.526  0.00  0.00    +0.000 A 
ATOM     27  C   UNL     1       0.580  12.704  19.603  0.00  0.00    +0.000 A 
ATOM     28  C   UNL     1       0.018  13.535  18.628  0.00  0.00    +0.000 A 
ATOM     29  N   UNL     1      -0.950  12.920  17.965  0.00  0.00    +0.000 NA
ATOM     30  N   UNL     1      -1.088  11.721  18.588  0.00  0.00    +0.000 N 
BRANCH  30  31
ATOM     31  C   UNL     1      -2.240  10.943  18.173  0.00  0.00    +0.000 C 
ATOM     32  C   UNL     1      -3.551  11.729  18.058  0.00  0.00    +0.000 C 
ATOM     33  C   UNL     1      -1.979  10.065  16.953  0.00  0.00    +0.000 C 
ENDBRANCH  30  31
ENDBRANCH  23  26
ENDBRANCH  18  19
ENDBRANCH   1  18
TORSDOF 9
ENDMDL
MODEL 8
REMARK VINA RESULT:      -7.0      1.135      1.240
REMARK  Name = 
REMARK  14 active torsions:
REMARK  status: ('A' for Active; 'I' for Inactive)
REMARK    1  A    between atoms: C_1  and  S_2
REMARK    2  A    between atoms: S_2  and  C_3
REMARK    3  A    between atoms: C_3  and  C_4
REMARK    4  A    between atoms: C_4  and  C_5
REMARK    5  A    between atoms: C_5  and  N_6
REMARK    6  A    between atoms: C_5  and  C_23
REMARK    7  A    between atoms: N_6  and  C_7
REMARK    8  A    between atoms: C_7  and  C_8
REMARK    9  A    between atoms: C_10  and  C_11
REMARK   10  A    between atoms: N_12  and  C_13
REMARK   11  A    between atoms: N_17  and  C_18
REMARK   12  A    between atoms: C_18  and  C_19
REMARK   13  A    between atoms: C_18  and  C_20
REMARK   14  A    between atoms: C_21  and  C_22
REMARK                            x       y       z     vdW  Elec       q    Type
REMARK                         _______ _______ _______ _____ _____    ______ ____
ROOT
ATOM      1  N   UNL     1       2.324   7.114  20.252  0.00  0.00    +0.000 NA
ATOM      2  H   UNL     1       2.237   7.909  19.626  0.00  0.00    +0.000 HD
ENDROOT
BRANCH   1   3
ATOM      3  C   UNL     1       2.218   5.892  19.440  0.00  0.00    +0.000 C 
BRANCH   3   4
ATOM      4  C   UNL     1       3.500   5.637  18.701  0.00  0.00    +0.000 A 
ATOM      5  N   UNL     1       3.608   5.291  17.435  0.00  0.00    +0.000 NA
ATOM      6  C   UNL     1       4.930   5.034  17.231  0.00  0.00    +0.000 A 
ATOM      7  C   UNL     1       5.565   4.580  16.077  0.00  0.00    +0.000 A 
ATOM      8  C   UNL     1       6.941   4.349  16.118  0.00  0.00    +0.000 A 
ATOM      9  C   UNL     1       7.669   4.581  17.293  0.00  0.00    +0.000 A 
ATOM     10  C   UNL     1       7.046   5.050  18.459  0.00  0.00    +0.000 A 
ATOM     11  C   UNL     1       5.661   5.256  18.392  0.00  0.00    +0.000 A 
ATOM     12  N   UNL     1       4.734   5.651  19.320  0.00  0.00    +0.000 N 
ATOM     13  H   UNL     1       4.887   5.832  20.297  0.00  0.00    +0.000 HD
ENDBRANCH   3   4
BRANCH   3  14
ATOM     14  C   UNL     1       1.809   4.631  20.235  0.00  0.00    +0.000 C 
BRANCH  14  15
ATOM     15  C   UNL     1       2.849   3.518  20.329  0.00  0.00    +0.000 C 
BRANCH  15  17
ATOM     16  C   UNL     1       0.857   2.388  18.762  0.00  0.00    +0.000 C 
ATOM     17  S   UNL     1       2.622   2.175  19.118  0.00  0.00    +0.000 S 
ENDBRANCH  15  17
ENDBRANCH  14  15
ENDBRANCH   3  14
ENDBRANCH   1   3
BRANCH   1  18
ATOM     18  C   UNL     1       1.288   7.217  21.290  0.00  0.00    +0.000 C 
BRANCH  18  19
ATOM     19  C   UNL     1       0.704   8.598  21.273  0.00  0.00    +0.000 A 
ATOM     20  C   UNL     1       0.044   9.222  22.329  0.00  0.00    +0.000 A 
ATOM     21  C   UNL     1      -0.348  10.482  21.951  0.00  0.00    +0.000 A 
ATOM     22  C   UNL     1      -1.098  11.319  22.914  0.00  0.00    +0.000 C 
ATOM     23  N   UNL     1       0.167  10.761  20.667  0.00  0.00    +0.000 N 
ATOM     24  C   UNL     1       0.718   9.520  20.231  0.00  0.00    +0.000 A 
ATOM     25  C   UNL     1       1.221   9.197  18.854  0.00  0.00    +0.000 C 
BRANCH  23  26
ATOM     26  C   UNL     1       0.236  11.977  19.918  0.00  0.00    +0.000 A 
ATOM     27  C   UNL     1       1.208  12.957  20.095  0.00  0.00    +0.000 A 
ATOM     28  C   UNL     1       0.970  13.942  19.131  0.00  0.00    +0.000 A 
ATOM     29  N   UNL     1      -0.081  13.643  18.381  0.00  0.00    +0.000 NA
ATOM     30  N   UNL     1      -0.590  12.512  18.934  0.00  0.00    +0.000 N 
BRANCH  30  31
ATOM     31  C   UNL     1      -1.880  12.101  18.412  0.00  0.00    +0.000 C 
ATOM     32  C   UNL     1      -1.875  10.790  17.618  0.00  0.00    +0.000 C 
ATOM     33  C   UNL     1      -3.003  12.153  19.443  0.00  0.00    +0.000 C 
ENDBRANCH  30  31
ENDBRANCH  23  26
ENDBRANCH  18  19
ENDBRANCH   1  18
TORSDOF 9
ENDMDL
MODEL 9
REMARK VINA RESULT:      -7.0      0.973      2.095
REMARK  Name = 
REMARK  14 active torsions:
REMARK  status: ('A' for Active; 'I' for Inactive)
REMARK    1  A    between atoms: C_1  and  S_2
REMARK    2  A    between atoms: S_2  and  C_3
REMARK    3  A    between atoms: C_3  and  C_4
REMARK    4  A    between atoms: C_4  and  C_5
REMARK    5  A    between atoms: C_5  and  N_6
REMARK    6  A    between atoms: C_5  and  C_23
REMARK    7  A    between atoms: N_6  and  C_7
REMARK    8  A    between atoms: C_7  and  C_8
REMARK    9  A    between atoms: C_10  and  C_11
REMARK   10  A    between atoms: N_12  and  C_13
REMARK   11  A    between atoms: N_17  and  C_18
REMARK   12  A    between atoms: C_18  and  C_19
REMARK   13  A    between atoms: C_18  and  C_20
REMARK   14  A    between atoms: C_21  and  C_22
REMARK                            x       y       z     vdW  Elec       q    Type
REMARK                         _______ _______ _______ _____ _____    ______ ____
ROOT
ATOM      1  N   UNL     1       2.268   7.148  20.510  0.00  0.00    +0.000 NA
ATOM      2  H   UNL     1       2.514   7.742  19.723  0.00  0.00    +0.000 HD
ENDROOT
BRANCH   1   3
ATOM      3  C   UNL     1       2.240   5.758  20.028  0.00  0.00    +0.000 C 
BRANCH   3   4
ATOM      4  C   UNL     1       3.401   5.493  19.114  0.00  0.00    +0.000 A 
ATOM      5  N   UNL     1       4.579   5.030  19.474  0.00  0.00    +0.000 NA
ATOM      6  C   UNL     1       5.356   5.078  18.356  0.00  0.00    +0.000 A 
ATOM      7  C   UNL     1       6.702   4.751  18.212  0.00  0.00    +0.000 A 
ATOM      8  C   UNL     1       7.301   4.922  16.962  0.00  0.00    +0.000 A 
ATOM      9  C   UNL     1       6.558   5.400  15.874  0.00  0.00    +0.000 A 
ATOM     10  C   UNL     1       5.199   5.722  16.000  0.00  0.00    +0.000 A 
ATOM     11  C   UNL     1       4.630   5.557  17.272  0.00  0.00    +0.000 A 
ATOM     12  N   UNL     1       3.379   5.808  17.770  0.00  0.00    +0.000 N 
ATOM     13  H   UNL     1       2.604   6.229  17.288  0.00  0.00    +0.000 HD
ENDBRANCH   3   4
BRANCH   3  14
ATOM     14  C   UNL     1       2.199   4.694  21.150  0.00  0.00    +0.000 C 
BRANCH  14  15
ATOM     15  C   UNL     1       1.621   3.332  20.776  0.00  0.00    +0.000 C 
BRANCH  15  17
ATOM     16  C   UNL     1       2.176   2.221  18.294  0.00  0.00    +0.000 C 
ATOM     17  S   UNL     1       0.918   3.251  19.096  0.00  0.00    +0.000 S 
ENDBRANCH  15  17
ENDBRANCH  14  15
ENDBRANCH   3  14
ENDBRANCH   1   3
BRANCH   1  18
ATOM     18  C   UNL     1       0.981   7.602  21.057  0.00  0.00    +0.000 C 
BRANCH  18  19
ATOM     19  C   UNL     1       0.805   9.062  20.766  0.00  0.00    +0.000 A 
ATOM     20  C   UNL     1       1.276   9.736  19.641  0.00  0.00    +0.000 A 
ATOM     21  C   UNL     1       0.922  11.061  19.714  0.00  0.00    +0.000 A 
ATOM     22  C   UNL     1       1.347  11.976  18.631  0.00  0.00    +0.000 C 
ATOM     23  N   UNL     1       0.092  11.258  20.837  0.00  0.00    +0.000 N 
ATOM     24  C   UNL     1       0.137  10.013  21.532  0.00  0.00    +0.000 A 
ATOM     25  C   UNL     1      -0.409   9.729  22.901  0.00  0.00    +0.000 C 
BRANCH  23  26
ATOM     26  C   UNL     1      -0.707  12.373  21.241  0.00  0.00    +0.000 A 
ATOM     27  C   UNL     1      -0.325  13.311  22.196  0.00  0.00    +0.000 A 
ATOM     28  C   UNL     1      -1.340  14.271  22.249  0.00  0.00    +0.000 A 
ATOM     29  N   UNL     1      -2.321  13.987  21.405  0.00  0.00    +0.000 NA
ATOM     30  N   UNL     1      -1.988  12.780  20.881  0.00  0.00    +0.000 N 
BRANCH  30  31
ATOM     31  C   UNL     1      -3.021  12.154  20.077  0.00  0.00    +0.000 C 
ATOM     32  C   UNL     1      -4.384  12.855  20.106  0.00  0.00    +0.000 C 
ATOM     33  C   UNL     1      -2.573  11.813  18.660  0.00  0.00    +0.000 C 
ENDBRANCH  30  31
ENDBRANCH  23  26
ENDBRANCH  18  19
ENDBRANCH   1  18
TORSDOF 9
ENDMDL
