MODEL 1
REMARK VINA RESULT:      -7.6      0.000      0.000
REMARK  Name = 
REMARK  6 active torsions:
REMARK  status: ('A' for Active; 'I' for Inactive)
REMARK    1  A    between atoms: N_1  and  C_2
REMARK    2  A    between atoms: C_2  and  C_3
REMARK    3  A    between atoms: C_2  and  C_29
REMARK    4  A    between atoms: C_3  and  N_4
REMARK    5  A    between atoms: C_7  and  C_8
REMARK    6  A    between atoms: C_19  and  C_20
REMARK                            x       y       z     vdW  Elec       q    Type
REMARK                         _______ _______ _______ _____ _____    ______ ____
ROOT
ATOM      1  N   UNL     1      -0.968  12.701  20.754  0.00  0.00    +0.000 N 
ATOM      2  C   UNL     1       0.025  11.750  20.554  0.00  0.00    +0.000 A 
ATOM      3  O   UNL     1       1.087  11.749  21.177  0.00  0.00    +0.000 OA
ATOM      4  C   UNL     1      -0.221  10.732  19.494  0.00  0.00    +0.000 A 
ATOM      5  C   UNL     1      -1.361  10.836  18.804  0.00  0.00    +0.000 A 
ATOM      6  N   UNL     1      -2.279  11.811  19.047  0.00  0.00    +0.000 N 
ATOM      7  C   UNL     1      -2.096  12.831  19.947  0.00  0.00    +0.000 A 
ATOM      8  O   UNL     1      -2.868  13.784  20.040  0.00  0.00    +0.000 OA
ATOM      9  C   UNL     1      -3.356  11.724  18.075  0.00  0.00    +0.000 C 
ATOM     10  C   UNL     1      -3.100  10.340  17.474  0.00  0.00    +0.000 C 
ATOM     11  O   UNL     1      -1.725  10.005  17.761  0.00  0.00    +0.000 OA
ENDROOT
BRANCH   4  12
ATOM     12  C   UNL     1       0.730   9.639  19.260  0.00  0.00    +0.000 A 
ATOM     13  C   UNL     1       1.458   9.544  18.068  0.00  0.00    +0.000 A 
ATOM     14  C   UNL     1       2.357   8.489  17.877  0.00  0.00    +0.000 A 
ATOM     15  C   UNL     1       2.529   7.524  18.871  0.00  0.00    +0.000 A 
ATOM     16  C   UNL     1       1.806   7.610  20.058  0.00  0.00    +0.000 A 
ATOM     17  C   UNL     1       0.913   8.662  20.245  0.00  0.00    +0.000 A 
ATOM     18  F   UNL     1       0.222   8.725  21.393  0.00  0.00    +0.000 F 
ENDBRANCH   4  12
BRANCH   9  19
ATOM     19  C   UNL     1      -4.747  11.858  18.645  0.00  0.00    +0.000 A 
ATOM     20  C   UNL     1      -5.056  11.497  19.967  0.00  0.00    +0.000 A 
ATOM     21  C   UNL     1      -6.361  11.626  20.452  0.00  0.00    +0.000 A 
ATOM     22  C   UNL     1      -7.370  12.129  19.631  0.00  0.00    +0.000 A 
ATOM     23  C   UNL     1      -7.074  12.503  18.323  0.00  0.00    +0.000 A 
ATOM     24  C   UNL     1      -5.775  12.362  17.842  0.00  0.00    +0.000 A 
ATOM     25  F   UNL     1      -5.521  12.710  16.571  0.00  0.00    +0.000 F 
ENDBRANCH   9  19
BRANCH   1  26
ATOM     26  C   UNL     1      -0.795  13.669  21.839  0.00  0.00    +0.000 C 
BRANCH  26  27
ATOM     27  C   UNL     1      -1.312  13.179  23.221  0.00  0.00    +0.000 C 
BRANCH  27  28
ATOM     28  C   UNL     1      -2.769  13.587  23.407  0.00  0.00    +0.000 A 
ATOM     29  C   UNL     1      -3.123  14.945  23.419  0.00  0.00    +0.000 A 
ATOM     30  C   UNL     1      -4.460  15.332  23.548  0.00  0.00    +0.000 A 
ATOM     31  C   UNL     1      -5.459  14.368  23.671  0.00  0.00    +0.000 A 
ATOM     32  C   UNL     1      -5.123  13.016  23.670  0.00  0.00    +0.000 A 
ATOM     33  C   UNL     1      -3.789  12.628  23.539  0.00  0.00    +0.000 A 
ENDBRANCH  27  28
BRANCH  27  34
ATOM     34  N   UNL     1      -1.159  11.730  23.433  0.00  0.00    +0.000 NA
ATOM     35  H   UNL     1      -1.605  11.232  22.665  0.00  0.00    +0.000 HD
ATOM     36  H   UNL     1      -1.707  11.456  24.250  0.00  0.00    +0.000 HD
ENDBRANCH  27  34
ENDBRANCH  26  27
ENDBRANCH   1  26
TORSDOF 6
ENDMDL
MODEL 2
REMARK VINA RESULT:      -7.3      0.902      1.223
REMARK  Name = 
REMARK  6 active torsions:
REMARK  status: ('A' for Active; 'I' for Inactive)
REMARK    1  A    between atoms: N_1  and  C_2
REMARK    2  A    between atoms: C_2  and  C_3
REMARK    3  A    between atoms: C_2  and  C_29
REMARK    4  A    between atoms: C_3  and  N_4
REMARK    5  A    between atoms: C_7  and  C_8
REMARK    6  A    between atoms: C_19  and  C_20
REMARK                            x       y       z     vdW  Elec       q    Type
REMARK                         _______ _______ _______ _____ _____    ______ ____
ROOT
ATOM      1  N   UNL     1      -0.702  12.426  20.747  0.00  0.00    +0.000 N 
ATOM      2  C   UNL     1       0.237  11.406  20.669  0.00  0.00    +0.000 A 
ATOM      3  O   UNL     1       1.248  11.370  21.371  0.00  0.00    +0.000 OA
ATOM      4  C   UNL     1       0.004  10.352  19.641  0.00  0.00    +0.000 A 
ATOM      5  C   UNL     1      -1.073  10.491  18.862  0.00  0.00    +0.000 A 
ATOM      6  N   UNL     1      -1.940  11.533  18.987  0.00  0.00    +0.000 N 
ATOM      7  C   UNL     1      -1.757  12.585  19.850  0.00  0.00    +0.000 A 
ATOM      8  O   UNL     1      -2.469  13.587  19.838  0.00  0.00    +0.000 OA
ATOM      9  C   UNL     1      -2.945  11.463  17.940  0.00  0.00    +0.000 C 
ATOM     10  C   UNL     1      -2.738  10.036  17.426  0.00  0.00    +0.000 C 
ATOM     11  O   UNL     1      -1.413   9.631  17.834  0.00  0.00    +0.000 OA
ENDROOT
BRANCH   4  12
ATOM     12  C   UNL     1       0.895   9.191  19.533  0.00  0.00    +0.000 A 
ATOM     13  C   UNL     1       0.940   8.207  20.529  0.00  0.00    +0.000 A 
ATOM     14  C   UNL     1       1.801   7.113  20.395  0.00  0.00    +0.000 A 
ATOM     15  C   UNL     1       2.622   6.997  19.272  0.00  0.00    +0.000 A 
ATOM     16  C   UNL     1       2.584   7.973  18.279  0.00  0.00    +0.000 A 
ATOM     17  C   UNL     1       1.725   9.060  18.415  0.00  0.00    +0.000 A 
ATOM     18  F   UNL     1       1.707   9.992  17.450  0.00  0.00    +0.000 F 
ENDBRANCH   4  12
BRANCH   9  19
ATOM     19  C   UNL     1      -4.363  11.713  18.394  0.00  0.00    +0.000 A 
ATOM     20  C   UNL     1      -4.741  11.654  19.746  0.00  0.00    +0.000 A 
ATOM     21  C   UNL     1      -6.068  11.880  20.123  0.00  0.00    +0.000 A 
ATOM     22  C   UNL     1      -7.030  12.181  19.159  0.00  0.00    +0.000 A 
ATOM     23  C   UNL     1      -6.667  12.255  17.818  0.00  0.00    +0.000 A 
ATOM     24  C   UNL     1      -5.346  12.019  17.448  0.00  0.00    +0.000 A 
ATOM     25  F   UNL     1      -5.025  12.076  16.146  0.00  0.00    +0.000 F 
ENDBRANCH   9  19
BRANCH   1  26
ATOM     26  C   UNL     1      -0.547  13.436  21.795  0.00  0.00    +0.000 C 
BRANCH  26  27
ATOM     27  C   UNL     1      -1.167  13.036  23.165  0.00  0.00    +0.000 C 
BRANCH  27  28
ATOM     28  C   UNL     1      -2.609  13.521  23.244  0.00  0.00    +0.000 A 
ATOM     29  C   UNL     1      -2.909  14.876  23.041  0.00  0.00    +0.000 A 
ATOM     30  C   UNL     1      -4.232  15.327  23.071  0.00  0.00    +0.000 A 
ATOM     31  C   UNL     1      -5.272  14.430  23.309  0.00  0.00    +0.000 A 
ATOM     32  C   UNL     1      -4.991  13.083  23.522  0.00  0.00    +0.000 A 
ATOM     33  C   UNL     1      -3.671  12.631  23.490  0.00  0.00    +0.000 A 
ENDBRANCH  27  28
BRANCH  27  34
ATOM     34  N   UNL     1      -1.099  11.593  23.450  0.00  0.00    +0.000 NA
ATOM     35  H   UNL     1      -0.130  11.334  23.624  0.00  0.00    +0.000 HD
ATOM     36  H   UNL     1      -1.340  11.078  22.603  0.00  0.00    +0.000 HD
ENDBRANCH  27  34
ENDBRANCH  26  27
ENDBRANCH   1  26
TORSDOF 6
ENDMDL
MODEL 3
REMARK VINA RESULT:      -7.1      0.701      1.110
REMARK  Name = 
REMARK  6 active torsions:
REMARK  status: ('A' for Active; 'I' for Inactive)
REMARK    1  A    between atoms: N_1  and  C_2
REMARK    2  A    between atoms: C_2  and  C_3
REMARK    3  A    between atoms: C_2  and  C_29
REMARK    4  A    between atoms: C_3  and  N_4
REMARK    5  A    between atoms: C_7  and  C_8
REMARK    6  A    between atoms: C_19  and  C_20
REMARK                            x       y       z     vdW  Elec       q    Type
REMARK                         _______ _______ _______ _____ _____    ______ ____
ROOT
ATOM      1  N   UNL     1      -1.176  12.774  21.036  0.00  0.00    +0.000 N 
ATOM      2  C   UNL     1      -0.195  11.800  20.901  0.00  0.00    +0.000 A 
ATOM      3  O   UNL     1       0.839  11.792  21.569  0.00  0.00    +0.000 OA
ATOM      4  C   UNL     1      -0.416  10.764  19.853  0.00  0.00    +0.000 A 
ATOM      5  C   UNL     1      -1.522  10.874  19.112  0.00  0.00    +0.000 A 
ATOM      6  N   UNL     1      -2.430  11.872  19.293  0.00  0.00    +0.000 N 
ATOM      7  C   UNL     1      -2.266  12.908  20.178  0.00  0.00    +0.000 A 
ATOM      8  O   UNL     1      -3.021  13.877  20.216  0.00  0.00    +0.000 OA
ATOM      9  C   UNL     1      -3.465  11.784  18.276  0.00  0.00    +0.000 C 
ATOM     10  C   UNL     1      -3.211  10.381  17.717  0.00  0.00    +0.000 C 
ATOM     11  O   UNL     1      -1.857  10.027  18.072  0.00  0.00    +0.000 OA
ENDROOT
BRANCH   4  12
ATOM     12  C   UNL     1       0.523   9.647  19.685  0.00  0.00    +0.000 A 
ATOM     13  C   UNL     1       1.317   9.525  18.538  0.00  0.00    +0.000 A 
ATOM     14  C   UNL     1       2.201   8.448  18.410  0.00  0.00    +0.000 A 
ATOM     15  C   UNL     1       2.293   7.489  19.420  0.00  0.00    +0.000 A 
ATOM     16  C   UNL     1       1.503   7.603  20.562  0.00  0.00    +0.000 A 
ATOM     17  C   UNL     1       0.626   8.676  20.687  0.00  0.00    +0.000 A 
ATOM     18  F   UNL     1      -0.130   8.766  21.792  0.00  0.00    +0.000 F 
ENDBRANCH   4  12
BRANCH   9  19
ATOM     19  C   UNL     1      -4.877  11.957  18.782  0.00  0.00    +0.000 A 
ATOM     20  C   UNL     1      -5.252  11.626  20.095  0.00  0.00    +0.000 A 
ATOM     21  C   UNL     1      -6.573  11.791  20.520  0.00  0.00    +0.000 A 
ATOM     22  C   UNL     1      -7.534  12.301  19.645  0.00  0.00    +0.000 A 
ATOM     23  C   UNL     1      -7.173  12.645  18.346  0.00  0.00    +0.000 A 
ATOM     24  C   UNL     1      -5.857  12.468  17.926  0.00  0.00    +0.000 A 
ATOM     25  F   UNL     1      -5.540  12.788  16.662  0.00  0.00    +0.000 F 
ENDBRANCH   9  19
BRANCH   1  26
ATOM     26  C   UNL     1      -1.032  13.763  22.107  0.00  0.00    +0.000 C 
BRANCH  26  27
ATOM     27  C   UNL     1      -1.728  13.367  23.440  0.00  0.00    +0.000 C 
BRANCH  27  28
ATOM     28  C   UNL     1      -2.757  14.424  23.823  0.00  0.00    +0.000 A 
ATOM     29  C   UNL     1      -4.097  14.276  23.434  0.00  0.00    +0.000 A 
ATOM     30  C   UNL     1      -5.059  15.217  23.812  0.00  0.00    +0.000 A 
ATOM     31  C   UNL     1      -4.693  16.321  24.579  0.00  0.00    +0.000 A 
ATOM     32  C   UNL     1      -3.366  16.489  24.966  0.00  0.00    +0.000 A 
ATOM     33  C   UNL     1      -2.405  15.549  24.591  0.00  0.00    +0.000 A 
ENDBRANCH  27  28
BRANCH  27  34
ATOM     34  N   UNL     1      -2.354  12.035  23.412  0.00  0.00    +0.000 NA
ATOM     35  H   UNL     1      -2.253  11.639  22.480  0.00  0.00    +0.000 HD
ATOM     36  H   UNL     1      -3.363  12.142  23.522  0.00  0.00    +0.000 HD
ENDBRANCH  27  34
ENDBRANCH  26  27
ENDBRANCH   1  26
TORSDOF 6
ENDMDL
MODEL 4
REMARK VINA RESULT:      -6.9      2.229      6.955
REMARK  Name = 
REMARK  6 active torsions:
REMARK  status: ('A' for Active; 'I' for Inactive)
REMARK    1  A    between atoms: N_1  and  C_2
REMARK    2  A    between atoms: C_2  and  C_3
REMARK    3  A    between atoms: C_2  and  C_29
REMARK    4  A    between atoms: C_3  and  N_4
REMARK    5  A    between atoms: C_7  and  C_8
REMARK    6  A    between atoms: C_19  and  C_20
REMARK                            x       y       z     vdW  Elec       q    Type
REMARK                         _______ _______ _______ _____ _____    ______ ____
ROOT
ATOM      1  N   UNL     1      -1.217  11.020  18.809  0.00  0.00    +0.000 N 
ATOM      2  C   UNL     1      -1.755  11.804  19.821  0.00  0.00    +0.000 A 
ATOM      3  O   UNL     1      -2.672  12.604  19.634  0.00  0.00    +0.000 OA
ATOM      4  C   UNL     1      -1.135  11.681  21.170  0.00  0.00    +0.000 A 
ATOM      5  C   UNL     1      -0.095  10.850  21.288  0.00  0.00    +0.000 A 
ATOM      6  N   UNL     1       0.389  10.127  20.241  0.00  0.00    +0.000 N 
ATOM      7  C   UNL     1      -0.071  10.240  18.953  0.00  0.00    +0.000 A 
ATOM      8  O   UNL     1       0.480   9.694  17.999  0.00  0.00    +0.000 OA
ATOM      9  C   UNL     1       1.578   9.400  20.655  0.00  0.00    +0.000 C 
ATOM     10  C   UNL     1       1.488   9.529  22.177  0.00  0.00    +0.000 C 
ATOM     11  O   UNL     1       0.622  10.652  22.454  0.00  0.00    +0.000 OA
ENDROOT
BRANCH   4  12
ATOM     12  C   UNL     1      -1.682  12.407  22.323  0.00  0.00    +0.000 A 
ATOM     13  C   UNL     1      -2.850  11.982  22.968  0.00  0.00    +0.000 A 
ATOM     14  C   UNL     1      -3.345  12.697  24.065  0.00  0.00    +0.000 A 
ATOM     15  C   UNL     1      -2.681  13.838  24.518  0.00  0.00    +0.000 A 
ATOM     16  C   UNL     1      -1.520  14.268  23.879  0.00  0.00    +0.000 A 
ATOM     17  C   UNL     1      -1.030  13.553  22.789  0.00  0.00    +0.000 A 
ATOM     18  F   UNL     1       0.087  13.986  22.184  0.00  0.00    +0.000 F 
ENDBRANCH   4  12
BRANCH   9  19
ATOM     19  C   UNL     1       1.640   7.963  20.199  0.00  0.00    +0.000 A 
ATOM     20  C   UNL     1       1.015   6.922  20.906  0.00  0.00    +0.000 A 
ATOM     21  C   UNL     1       1.108   5.601  20.456  0.00  0.00    +0.000 A 
ATOM     22  C   UNL     1       1.814   5.305  19.289  0.00  0.00    +0.000 A 
ATOM     23  C   UNL     1       2.427   6.329  18.573  0.00  0.00    +0.000 A 
ATOM     24  C   UNL     1       2.340   7.640  19.032  0.00  0.00    +0.000 A 
ATOM     25  F   UNL     1       2.957   8.606  18.334  0.00  0.00    +0.000 F 
ENDBRANCH   9  19
BRANCH   1  26
ATOM     26  C   UNL     1      -1.850  11.056  17.489  0.00  0.00    +0.000 C 
BRANCH  26  27
ATOM     27  C   UNL     1      -2.988  10.014  17.298  0.00  0.00    +0.000 C 
BRANCH  27  28
ATOM     28  C   UNL     1      -4.340  10.667  17.558  0.00  0.00    +0.000 A 
ATOM     29  C   UNL     1      -4.699  11.839  16.876  0.00  0.00    +0.000 A 
ATOM     30  C   UNL     1      -5.952  12.426  17.076  0.00  0.00    +0.000 A 
ATOM     31  C   UNL     1      -6.860  11.852  17.963  0.00  0.00    +0.000 A 
ATOM     32  C   UNL     1      -6.516  10.694  18.656  0.00  0.00    +0.000 A 
ATOM     33  C   UNL     1      -5.267  10.105  18.455  0.00  0.00    +0.000 A 
ENDBRANCH  27  28
BRANCH  27  34
ATOM     34  N   UNL     1      -2.984   9.364  15.976  0.00  0.00    +0.000 NA
ATOM     35  H   UNL     1      -3.535   9.923  15.328  0.00  0.00    +0.000 HD
ATOM     36  H   UNL     1      -3.500   8.486  16.039  0.00  0.00    +0.000 HD
ENDBRANCH  27  34
ENDBRANCH  26  27
ENDBRANCH   1  26
TORSDOF 6
ENDMDL
MODEL 5
REMARK VINA RESULT:      -6.9      1.046      1.453
REMARK  Name = 
REMARK  6 active torsions:
REMARK  status: ('A' for Active; 'I' for Inactive)
REMARK    1  A    between atoms: N_1  and  C_2
REMARK    2  A    between atoms: C_2  and  C_3
REMARK    3  A    between atoms: C_2  and  C_29
REMARK    4  A    between atoms: C_3  and  N_4
REMARK    5  A    between atoms: C_7  and  C_8
REMARK    6  A    between atoms: C_19  and  C_20
REMARK                            x       y       z     vdW  Elec       q    Type
REMARK                         _______ _______ _______ _____ _____    ______ ____
ROOT
ATOM      1  N   UNL     1      -1.285  12.687  21.150  0.00  0.00    +0.000 N 
ATOM      2  C   UNL     1      -0.309  11.702  21.075  0.00  0.00    +0.000 A 
ATOM      3  O   UNL     1       0.688  11.688  21.799  0.00  0.00    +0.000 OA
ATOM      4  C   UNL     1      -0.483  10.660  20.025  0.00  0.00    +0.000 A 
ATOM      5  C   UNL     1      -1.547  10.776  19.224  0.00  0.00    +0.000 A 
ATOM      6  N   UNL     1      -2.452  11.784  19.348  0.00  0.00    +0.000 N 
ATOM      7  C   UNL     1      -2.324  12.826  20.234  0.00  0.00    +0.000 A 
ATOM      8  O   UNL     1      -3.070  13.803  20.223  0.00  0.00    +0.000 OA
ATOM      9  C   UNL     1      -3.432  11.699  18.278  0.00  0.00    +0.000 C 
ATOM     10  C   UNL     1      -3.163  10.290  17.744  0.00  0.00    +0.000 C 
ATOM     11  O   UNL     1      -1.834   9.924  18.174  0.00  0.00    +0.000 OA
ENDROOT
BRANCH   4  12
ATOM     12  C   UNL     1       0.450   9.532  19.916  0.00  0.00    +0.000 A 
ATOM     13  C   UNL     1       0.528   8.547  20.910  0.00  0.00    +0.000 A 
ATOM     14  C   UNL     1       1.428   7.485  20.775  0.00  0.00    +0.000 A 
ATOM     15  C   UNL     1       2.256   7.403  19.654  0.00  0.00    +0.000 A 
ATOM     16  C   UNL     1       2.187   8.380  18.664  0.00  0.00    +0.000 A 
ATOM     17  C   UNL     1       1.288   9.435  18.801  0.00  0.00    +0.000 A 
ATOM     18  F   UNL     1       1.239  10.369  17.838  0.00  0.00    +0.000 F 
ENDBRANCH   4  12
BRANCH   9  19
ATOM     19  C   UNL     1      -4.866  11.892  18.705  0.00  0.00    +0.000 A 
ATOM     20  C   UNL     1      -5.315  11.577  19.998  0.00  0.00    +0.000 A 
ATOM     21  C   UNL     1      -6.656  11.759  20.349  0.00  0.00    +0.000 A 
ATOM     22  C   UNL     1      -7.562  12.270  19.420  0.00  0.00    +0.000 A 
ATOM     23  C   UNL     1      -7.128  12.598  18.139  0.00  0.00    +0.000 A 
ATOM     24  C   UNL     1      -5.794  12.404  17.792  0.00  0.00    +0.000 A 
ATOM     25  F   UNL     1      -5.405  12.709  16.545  0.00  0.00    +0.000 F 
ENDBRANCH   9  19
BRANCH   1  26
ATOM     26  C   UNL     1      -1.188  13.683  22.220  0.00  0.00    +0.000 C 
BRANCH  26  27
ATOM     27  C   UNL     1      -1.931  13.290  23.528  0.00  0.00    +0.000 C 
BRANCH  27  28
ATOM     28  C   UNL     1      -2.915  14.387  23.917  0.00  0.00    +0.000 A 
ATOM     29  C   UNL     1      -2.485  15.477  24.690  0.00  0.00    +0.000 A 
ATOM     30  C   UNL     1      -3.367  16.510  25.020  0.00  0.00    +0.000 A 
ATOM     31  C   UNL     1      -4.690  16.465  24.585  0.00  0.00    +0.000 A 
ATOM     32  C   UNL     1      -5.135  15.387  23.825  0.00  0.00    +0.000 A 
ATOM     33  C   UNL     1      -4.256  14.356  23.493  0.00  0.00    +0.000 A 
ENDBRANCH  27  28
BRANCH  27  34
ATOM     34  N   UNL     1      -2.621  11.992  23.453  0.00  0.00    +0.000 NA
ATOM     35  H   UNL     1      -3.372  12.052  22.768  0.00  0.00    +0.000 HD
ATOM     36  H   UNL     1      -3.109  11.826  24.334  0.00  0.00    +0.000 HD
ENDBRANCH  27  34
ENDBRANCH  26  27
ENDBRANCH   1  26
TORSDOF 6
ENDMDL
MODEL 6
REMARK VINA RESULT:      -6.9      2.922      6.622
REMARK  Name = 
REMARK  6 active torsions:
REMARK  status: ('A' for Active; 'I' for Inactive)
REMARK    1  A    between atoms: N_1  and  C_2
REMARK    2  A    between atoms: C_2  and  C_3
REMARK    3  A    between atoms: C_2  and  C_29
REMARK    4  A    between atoms: C_3  and  N_4
REMARK    5  A    between atoms: C_7  and  C_8
REMARK    6  A    between atoms: C_19  and  C_20
REMARK                            x       y       z     vdW  Elec       q    Type
REMARK                         _______ _______ _______ _____ _____    ______ ____
ROOT
ATOM      1  N   UNL     1      -0.052  11.363  20.893  0.00  0.00    +0.000 N 
ATOM      2  C   UNL     1       0.866  12.208  20.285  0.00  0.00    +0.000 A 
ATOM      3  O   UNL     1       1.650  11.832  19.412  0.00  0.00    +0.000 OA
ATOM      4  C   UNL     1       0.912  13.616  20.771  0.00  0.00    +0.000 A 
ATOM      5  C   UNL     1       0.087  13.941  21.771  0.00  0.00    +0.000 A 
ATOM      6  N   UNL     1      -0.774  13.048  22.331  0.00  0.00    +0.000 N 
ATOM      7  C   UNL     1      -0.824  11.717  21.998  0.00  0.00    +0.000 A 
ATOM      8  O   UNL     1      -1.499  10.900  22.621  0.00  0.00    +0.000 OA
ATOM      9  C   UNL     1      -1.459  13.665  23.454  0.00  0.00    +0.000 C 
ATOM     10  C   UNL     1      -1.131  15.142  23.225  0.00  0.00    +0.000 C 
ATOM     11  O   UNL     1       0.032  15.186  22.370  0.00  0.00    +0.000 OA
ENDROOT
BRANCH   4  12
ATOM     12  C   UNL     1       1.791  14.607  20.138  0.00  0.00    +0.000 A 
ATOM     13  C   UNL     1       3.097  14.825  20.595  0.00  0.00    +0.000 A 
ATOM     14  C   UNL     1       3.909  15.777  19.969  0.00  0.00    +0.000 A 
ATOM     15  C   UNL     1       3.422  16.517  18.890  0.00  0.00    +0.000 A 
ATOM     16  C   UNL     1       2.123  16.308  18.433  0.00  0.00    +0.000 A 
ATOM     17  C   UNL     1       1.318  15.359  19.057  0.00  0.00    +0.000 A 
ATOM     18  F   UNL     1       0.068  15.175  18.605  0.00  0.00    +0.000 F 
ENDBRANCH   4  12
BRANCH   9  19
ATOM     19  C   UNL     1      -2.945  13.407  23.519  0.00  0.00    +0.000 A 
ATOM     20  C   UNL     1      -3.556  12.803  24.631  0.00  0.00    +0.000 A 
ATOM     21  C   UNL     1      -4.935  12.571  24.645  0.00  0.00    +0.000 A 
ATOM     22  C   UNL     1      -5.722  12.949  23.558  0.00  0.00    +0.000 A 
ATOM     23  C   UNL     1      -5.131  13.559  22.455  0.00  0.00    +0.000 A 
ATOM     24  C   UNL     1      -3.757  13.779  22.443  0.00  0.00    +0.000 A 
ATOM     25  F   UNL     1      -3.209  14.350  21.359  0.00  0.00    +0.000 F 
ENDBRANCH   9  19
BRANCH   1  26
ATOM     26  C   UNL     1      -0.179   9.994  20.389  0.00  0.00    +0.000 C 
BRANCH  26  27
ATOM     27  C   UNL     1       0.654   8.943  21.176  0.00  0.00    +0.000 C 
BRANCH  27  28
ATOM     28  C   UNL     1       1.487   8.110  20.209  0.00  0.00    +0.000 A 
ATOM     29  C   UNL     1       1.898   6.817  20.567  0.00  0.00    +0.000 A 
ATOM     30  C   UNL     1       2.629   6.028  19.675  0.00  0.00    +0.000 A 
ATOM     31  C   UNL     1       2.962   6.521  18.415  0.00  0.00    +0.000 A 
ATOM     32  C   UNL     1       2.570   7.806  18.047  0.00  0.00    +0.000 A 
ATOM     33  C   UNL     1       1.839   8.595  18.936  0.00  0.00    +0.000 A 
ENDBRANCH  27  28
BRANCH  27  34
ATOM     34  N   UNL     1       1.516   9.526  22.218  0.00  0.00    +0.000 NA
ATOM     35  H   UNL     1       2.478   9.234  22.056  0.00  0.00    +0.000 HD
ATOM     36  H   UNL     1       1.281   9.102  23.116  0.00  0.00    +0.000 HD
ENDBRANCH  27  34
ENDBRANCH  26  27
ENDBRANCH   1  26
TORSDOF 6
ENDMDL
MODEL 7
REMARK VINA RESULT:      -6.8      1.007      1.397
REMARK  Name = 
REMARK  6 active torsions:
REMARK  status: ('A' for Active; 'I' for Inactive)
REMARK    1  A    between atoms: N_1  and  C_2
REMARK    2  A    between atoms: C_2  and  C_3
REMARK    3  A    between atoms: C_2  and  C_29
REMARK    4  A    between atoms: C_3  and  N_4
REMARK    5  A    between atoms: C_7  and  C_8
REMARK    6  A    between atoms: C_19  and  C_20
REMARK                            x       y       z     vdW  Elec       q    Type
REMARK                         _______ _______ _______ _____ _____    ______ ____
ROOT
ATOM      1  N   UNL     1      -0.855  12.283  20.597  0.00  0.00    +0.000 N 
ATOM      2  C   UNL     1       0.174  11.366  20.421  0.00  0.00    +0.000 A 
ATOM      3  O   UNL     1       1.178  11.339  21.132  0.00  0.00    +0.000 OA
ATOM      4  C   UNL     1       0.044  10.421  19.276  0.00  0.00    +0.000 A 
ATOM      5  C   UNL     1      -1.035  10.553  18.498  0.00  0.00    +0.000 A 
ATOM      6  N   UNL     1      -1.993  11.492  18.725  0.00  0.00    +0.000 N 
ATOM      7  C   UNL     1      -1.912  12.450  19.706  0.00  0.00    +0.000 A 
ATOM      8  O   UNL     1      -2.711  13.379  19.796  0.00  0.00    +0.000 OA
ATOM      9  C   UNL     1      -2.980  11.455  17.659  0.00  0.00    +0.000 C 
ATOM     10  C   UNL     1      -2.641  10.121  16.990  0.00  0.00    +0.000 C 
ATOM     11  O   UNL     1      -1.288   9.791  17.372  0.00  0.00    +0.000 OA
ENDROOT
BRANCH   4  12
ATOM     12  C   UNL     1       1.037   9.363  19.052  0.00  0.00    +0.000 A 
ATOM     13  C   UNL     1       1.848   9.350  17.910  0.00  0.00    +0.000 A 
ATOM     14  C   UNL     1       2.785   8.328  17.728  0.00  0.00    +0.000 A 
ATOM     15  C   UNL     1       2.913   7.313  18.678  0.00  0.00    +0.000 A 
ATOM     16  C   UNL     1       2.108   7.318  19.814  0.00  0.00    +0.000 A 
ATOM     17  C   UNL     1       1.177   8.338  19.993  0.00  0.00    +0.000 A 
ATOM     18  F   UNL     1       0.407   8.323  21.092  0.00  0.00    +0.000 F 
ENDBRANCH   4  12
BRANCH   9  19
ATOM     19  C   UNL     1      -4.418  11.524  18.114  0.00  0.00    +0.000 A 
ATOM     20  C   UNL     1      -5.131  12.733  18.170  0.00  0.00    +0.000 A 
ATOM     21  C   UNL     1      -6.459  12.755  18.609  0.00  0.00    +0.000 A 
ATOM     22  C   UNL     1      -7.094  11.571  18.984  0.00  0.00    +0.000 A 
ATOM     23  C   UNL     1      -6.402  10.365  18.921  0.00  0.00    +0.000 A 
ATOM     24  C   UNL     1      -5.078  10.351  18.493  0.00  0.00    +0.000 A 
ATOM     25  F   UNL     1      -4.427   9.178  18.460  0.00  0.00    +0.000 F 
ENDBRANCH   9  19
BRANCH   1  26
ATOM     26  C   UNL     1      -0.799  13.175  21.757  0.00  0.00    +0.000 C 
BRANCH  26  27
ATOM     27  C   UNL     1      -1.445  12.590  23.045  0.00  0.00    +0.000 C 
BRANCH  27  28
ATOM     28  C   UNL     1      -2.826  13.198  23.257  0.00  0.00    +0.000 A 
ATOM     29  C   UNL     1      -3.969  12.525  22.801  0.00  0.00    +0.000 A 
ATOM     30  C   UNL     1      -5.244  13.053  23.024  0.00  0.00    +0.000 A 
ATOM     31  C   UNL     1      -5.393  14.260  23.702  0.00  0.00    +0.000 A 
ATOM     32  C   UNL     1      -4.268  14.946  24.154  0.00  0.00    +0.000 A 
ATOM     33  C   UNL     1      -2.995  14.420  23.933  0.00  0.00    +0.000 A 
ENDBRANCH  27  28
BRANCH  27  34
ATOM     34  N   UNL     1      -1.530  11.120  23.053  0.00  0.00    +0.000 NA
ATOM     35  H   UNL     1      -1.076  10.755  22.218  0.00  0.00    +0.000 HD
ATOM     36  H   UNL     1      -2.506  10.845  22.939  0.00  0.00    +0.000 HD
ENDBRANCH  27  34
ENDBRANCH  26  27
ENDBRANCH   1  26
TORSDOF 6
ENDMDL
MODEL 8
REMARK VINA RESULT:      -6.8      3.494      8.094
REMARK  Name = 
REMARK  6 active torsions:
REMARK  status: ('A' for Active; 'I' for Inactive)
REMARK    1  A    between atoms: N_1  and  C_2
REMARK    2  A    between atoms: C_2  and  C_3
REMARK    3  A    between atoms: C_2  and  C_29
REMARK    4  A    between atoms: C_3  and  N_4
REMARK    5  A    between atoms: C_7  and  C_8
REMARK    6  A    between atoms: C_19  and  C_20
REMARK                            x       y       z     vdW  Elec       q    Type
REMARK                         _______ _______ _______ _____ _____    ______ ____
ROOT
ATOM      1  N   UNL     1       0.910  10.895  19.284  0.00  0.00    +0.000 N 
ATOM      2  C   UNL     1      -0.308  10.942  19.949  0.00  0.00    +0.000 A 
ATOM      3  O   UNL     1      -0.973   9.937  20.203  0.00  0.00    +0.000 OA
ATOM      4  C   UNL     1      -0.826  12.291  20.312  0.00  0.00    +0.000 A 
ATOM      5  C   UNL     1      -0.092  13.344  19.941  0.00  0.00    +0.000 A 
ATOM      6  N   UNL     1       1.086  13.218  19.272  0.00  0.00    +0.000 N 
ATOM      7  C   UNL     1       1.594  12.021  18.831  0.00  0.00    +0.000 A 
ATOM      8  O   UNL     1       2.578  11.946  18.098  0.00  0.00    +0.000 OA
ATOM      9  C   UNL     1       1.595  14.533  18.921  0.00  0.00    +0.000 C 
ATOM     10  C   UNL     1       0.723  15.431  19.802  0.00  0.00    +0.000 C 
ATOM     11  O   UNL     1      -0.447  14.663  20.158  0.00  0.00    +0.000 OA
ENDROOT
BRANCH   4  12
ATOM     12  C   UNL     1      -2.065  12.443  21.086  0.00  0.00    +0.000 A 
ATOM     13  C   UNL     1      -3.291  12.705  20.463  0.00  0.00    +0.000 A 
ATOM     14  C   UNL     1      -4.452  12.843  21.230  0.00  0.00    +0.000 A 
ATOM     15  C   UNL     1      -4.395  12.726  22.620  0.00  0.00    +0.000 A 
ATOM     16  C   UNL     1      -3.178  12.469  23.247  0.00  0.00    +0.000 A 
ATOM     17  C   UNL     1      -2.024  12.330  22.480  0.00  0.00    +0.000 A 
ATOM     18  F   UNL     1      -0.861  12.088  23.103  0.00  0.00    +0.000 F 
ENDBRANCH   4  12
BRANCH   9  19
ATOM     19  C   UNL     1       3.070  14.737  19.168  0.00  0.00    +0.000 A 
ATOM     20  C   UNL     1       3.650  14.572  20.437  0.00  0.00    +0.000 A 
ATOM     21  C   UNL     1       5.019  14.783  20.626  0.00  0.00    +0.000 A 
ATOM     22  C   UNL     1       5.828  15.148  19.550  0.00  0.00    +0.000 A 
ATOM     23  C   UNL     1       5.268  15.303  18.285  0.00  0.00    +0.000 A 
ATOM     24  C   UNL     1       3.903  15.101  18.106  0.00  0.00    +0.000 A 
ATOM     25  F   UNL     1       3.385  15.277  16.880  0.00  0.00    +0.000 F 
ENDBRANCH   9  19
BRANCH   1  26
ATOM     26  C   UNL     1       1.487   9.584  18.981  0.00  0.00    +0.000 C 
BRANCH  26  27
ATOM     27  C   UNL     1       1.336   8.540  20.123  0.00  0.00    +0.000 C 
BRANCH  27  28
ATOM     28  C   UNL     1       1.984   7.223  19.713  0.00  0.00    +0.000 A 
ATOM     29  C   UNL     1       2.713   7.139  18.517  0.00  0.00    +0.000 A 
ATOM     30  C   UNL     1       3.346   5.948  18.149  0.00  0.00    +0.000 A 
ATOM     31  C   UNL     1       3.255   4.825  18.969  0.00  0.00    +0.000 A 
ATOM     32  C   UNL     1       2.528   4.888  20.155  0.00  0.00    +0.000 A 
ATOM     33  C   UNL     1       1.897   6.077  20.525  0.00  0.00    +0.000 A 
ENDBRANCH  27  28
BRANCH  27  34
ATOM     34  N   UNL     1       1.875   8.990  21.417  0.00  0.00    +0.000 NA
ATOM     35  H   UNL     1       2.056   8.178  22.004  0.00  0.00    +0.000 HD
ATOM     36  H   UNL     1       1.146   9.496  21.920  0.00  0.00    +0.000 HD
ENDBRANCH  27  34
ENDBRANCH  26  27
ENDBRANCH   1  26
TORSDOF 6
ENDMDL
MODEL 9
REMARK VINA RESULT:      -6.8      3.513      8.228
REMARK  Name = 
REMARK  6 active torsions:
REMARK  status: ('A' for Active; 'I' for Inactive)
REMARK    1  A    between atoms: N_1  and  C_2
REMARK    2  A    between atoms: C_2  and  C_3
REMARK    3  A    between atoms: C_2  and  C_29
REMARK    4  A    between atoms: C_3  and  N_4
REMARK    5  A    between atoms: C_7  and  C_8
REMARK    6  A    between atoms: C_19  and  C_20
REMARK                            x       y       z     vdW  Elec       q    Type
REMARK                         _______ _______ _______ _____ _____    ______ ____
ROOT
ATOM      1  N   UNL     1       0.776  11.258  18.904  0.00  0.00    +0.000 N 
ATOM      2  C   UNL     1      -0.433  11.261  19.586  0.00  0.00    +0.000 A 
ATOM      3  O   UNL     1      -1.150  10.264  19.685  0.00  0.00    +0.000 OA
ATOM      4  C   UNL     1      -0.875  12.559  20.168  0.00  0.00    +0.000 A 
ATOM      5  C   UNL     1      -0.088  13.619  19.960  0.00  0.00    +0.000 A 
ATOM      6  N   UNL     1       1.078  13.540  19.262  0.00  0.00    +0.000 N 
ATOM      7  C   UNL     1       1.518  12.404  18.627  0.00  0.00    +0.000 A 
ATOM      8  O   UNL     1       2.491  12.397  17.877  0.00  0.00    +0.000 OA
ATOM      9  C   UNL     1       1.655  14.866  19.119  0.00  0.00    +0.000 C 
ATOM     10  C   UNL     1       0.838  15.655  20.145  0.00  0.00    +0.000 C 
ATOM     11  O   UNL     1      -0.369  14.902  20.391  0.00  0.00    +0.000 OA
ENDROOT
BRANCH   4  12
ATOM     12  C   UNL     1      -2.099  12.649  20.975  0.00  0.00    +0.000 A 
ATOM     13  C   UNL     1      -3.331  12.986  20.402  0.00  0.00    +0.000 A 
ATOM     14  C   UNL     1      -4.477  13.062  21.200  0.00  0.00    +0.000 A 
ATOM     15  C   UNL     1      -4.399  12.808  22.570  0.00  0.00    +0.000 A 
ATOM     16  C   UNL     1      -3.176  12.476  23.148  0.00  0.00    +0.000 A 
ATOM     17  C   UNL     1      -2.037  12.399  22.350  0.00  0.00    +0.000 A 
ATOM     18  F   UNL     1      -0.867  12.081  22.926  0.00  0.00    +0.000 F 
ENDBRANCH   4  12
BRANCH   9  19
ATOM     19  C   UNL     1       3.140  14.950  19.374  0.00  0.00    +0.000 A 
ATOM     20  C   UNL     1       3.702  14.701  20.637  0.00  0.00    +0.000 A 
ATOM     21  C   UNL     1       5.083  14.801  20.833  0.00  0.00    +0.000 A 
ATOM     22  C   UNL     1       5.920  15.139  19.770  0.00  0.00    +0.000 A 
ATOM     23  C   UNL     1       5.378  15.377  18.510  0.00  0.00    +0.000 A 
ATOM     24  C   UNL     1       4.001  15.285  18.324  0.00  0.00    +0.000 A 
ATOM     25  F   UNL     1       3.502  15.539  17.105  0.00  0.00    +0.000 F 
ENDBRANCH   9  19
BRANCH   1  26
ATOM     26  C   UNL     1       1.280   9.984  18.386  0.00  0.00    +0.000 C 
BRANCH  26  27
ATOM     27  C   UNL     1       1.280   8.827  19.425  0.00  0.00    +0.000 C 
BRANCH  27  28
ATOM     28  C   UNL     1       2.279   7.754  19.008  0.00  0.00    +0.000 A 
ATOM     29  C   UNL     1       2.443   6.602  19.793  0.00  0.00    +0.000 A 
ATOM     30  C   UNL     1       3.326   5.592  19.401  0.00  0.00    +0.000 A 
ATOM     31  C   UNL     1       4.060   5.722  18.224  0.00  0.00    +0.000 A 
ATOM     32  C   UNL     1       3.917   6.863  17.439  0.00  0.00    +0.000 A 
ATOM     33  C   UNL     1       3.034   7.872  17.827  0.00  0.00    +0.000 A 
ENDBRANCH  27  28
BRANCH  27  34
ATOM     34  N   UNL     1       1.551   9.266  20.804  0.00  0.00    +0.000 NA
ATOM     35  H   UNL     1       0.741   9.060  21.385  0.00  0.00    +0.000 HD
ATOM     36  H   UNL     1       1.609  10.285  20.821  0.00  0.00    +0.000 HD
ENDBRANCH  27  34
ENDBRANCH  26  27
ENDBRANCH   1  26
TORSDOF 6
ENDMDL
