MODEL 1
REMARK VINA RESULT:      -6.4      0.000      0.000
REMARK  Name = 
REMARK  20 active torsions:
REMARK  status: ('A' for Active; 'I' for Inactive)
REMARK    1  A    between atoms: CB_1  and  CA_2
REMARK    2  A    between atoms: CA_2  and  N_3
REMARK    3  A    between atoms: CA_2  and  C_19
REMARK    4  A    between atoms: C_4  and  CA_6
REMARK    5  A    between atoms: CA_6  and  N_7
REMARK    6  A    between atoms: C_8  and  CA_10
REMARK    7  A    between atoms: CA_10  and  CB_11
REMARK    8  A    between atoms: CA_10  and  N_12
REMARK    9  A    between atoms: C_13  and  CA_15
REMARK   10  A    between atoms: CA_15  and  N_16
REMARK   11  A    between atoms: CA_15  and  CB_17
REMARK   12  A    between atoms: CB_17  and  SG_18
REMARK   13  A    between atoms: N_21  and  CA_22
REMARK   14  A    between atoms: CA_22  and  CB_23
REMARK   15  A    between atoms: CA_22  and  C_28
REMARK   16  A    between atoms: CB_23  and  CG_24
REMARK   17  A    between atoms: CG_24  and  CD_25
REMARK   18  A    between atoms: CD_25  and  CE_26
REMARK   19  A    between atoms: CE_26  and  NZ_27
REMARK   20  A    between atoms: C_28  and  OXT_30
REMARK                            x       y       z     vdW  Elec       q    Type
REMARK                         _______ _______ _______ _____ _____    ______ ____
ROOT
ATOM      1  N   ALA A   4       7.550   6.395  18.147  0.00  0.00    +0.000 N 
ATOM      2  C   GLY A   3       7.659   7.722  17.781  0.00  0.00    +0.000 C 
ATOM      3  O   GLY A   3       6.988   8.246  16.897  0.00  0.00    +0.000 OA
ATOM      4  H   ALA A   4       7.752   6.221  19.132  0.00  0.00    +0.000 HD
ENDROOT
BRANCH   1   6
ATOM      5  CB  ALA A   4       7.372   4.324  16.783  0.00  0.00    +0.000 C 
ATOM      6  CA  ALA A   4       6.628   5.470  17.475  0.00  0.00    +0.000 C 
BRANCH   6   7
ATOM      7  C   ALA A   4       5.650   4.862  18.506  0.00  0.00    +0.000 C 
ATOM      8  O   ALA A   4       5.453   5.365  19.608  0.00  0.00    +0.000 OA
ATOM      9  N   LYS A   5       4.895   3.812  18.030  0.00  0.00    +0.000 N 
ATOM     10  H   LYS A   5       5.048   3.484  17.077  0.00  0.00    +0.000 HD
BRANCH   9  11
ATOM     11  CA  LYS A   5       3.854   3.129  18.803  0.00  0.00    +0.000 C 
BRANCH  11  12
ATOM     12  C   LYS A   5       4.472   1.845  19.390  0.00  0.00    +0.000 C 
ATOM     13  O   LYS A   5       5.015   1.796  20.488  0.00  0.00    +0.000 OA
BRANCH  12  14
ATOM     14  OXT LYS A   5       4.390   0.760  18.586  0.00  0.00    +0.000 OA
ATOM     15  HXT LYS A   5       5.208   0.233  18.518  0.00  0.00    +0.000 HD
ENDBRANCH  12  14
ENDBRANCH  11  12
BRANCH  11  16
ATOM     16  CB  LYS A   5       2.608   2.802  17.958  0.00  0.00    +0.000 C 
BRANCH  16  17
ATOM     17  CG  LYS A   5       1.382   2.546  18.836  0.00  0.00    +0.000 C 
BRANCH  17  18
ATOM     18  CD  LYS A   5       1.252   3.517  20.006  0.00  0.00    +0.000 C 
BRANCH  18  19
ATOM     19  CE  LYS A   5       1.243   2.711  21.306  0.00  0.00    +0.000 C 
BRANCH  19  20
ATOM     20  NZ  LYS A   5       2.453   2.939  22.078  0.00  0.00    +0.000 NA
ATOM     21  HZ1 LYS A   5       2.569   2.194  22.763  0.00  0.00    +0.000 HD
ATOM     22  HZ2 LYS A   5       2.343   3.800  22.613  0.00  0.00    +0.000 HD
ENDBRANCH  19  20
ENDBRANCH  18  19
ENDBRANCH  17  18
ENDBRANCH  16  17
ENDBRANCH  11  16
ENDBRANCH   9  11
ENDBRANCH   6   7
ENDBRANCH   1   6
BRANCH   2  23
ATOM     23  CA  GLY A   3       8.691   8.504  18.606  0.00  0.00    +0.000 C 
BRANCH  23  24
ATOM     24  N   GLY A   3       8.888   9.875  18.160  0.00  0.00    +0.000 N 
ATOM     25  C   ALA A   2       9.226  10.895  19.026  0.00  0.00    +0.000 C 
ATOM     26  O   ALA A   2       9.319  10.701  20.239  0.00  0.00    +0.000 OA
ATOM     27  H   GLY A   3       8.856  10.036  17.161  0.00  0.00    +0.000 HD
BRANCH  25  28
ATOM     28  CA  ALA A   2       9.366  12.303  18.379  0.00  0.00    +0.000 C 
ATOM     29  CB  ALA A   2      10.646  12.476  17.575  0.00  0.00    +0.000 C 
BRANCH  28  30
ATOM     30  N   ALA A   2       9.266  13.400  19.352  0.00  0.00    +0.000 N 
ATOM     31  C   CYS A   1       8.254  14.335  19.250  0.00  0.00    +0.000 C 
ATOM     32  O   CYS A   1       7.467  14.341  18.315  0.00  0.00    +0.000 OA
ATOM     33  H   ALA A   2      10.021  13.535  20.015  0.00  0.00    +0.000 HD
BRANCH  31  34
ATOM     34  CA  CYS A   1       8.214  15.394  20.377  0.00  0.00    +0.000 C 
BRANCH  34  35
ATOM     35  N   CYS A   1       7.325  16.507  19.967  0.00  0.00    +0.000 NA
ATOM     36  H1  CYS A   1       7.167  16.451  18.957  0.00  0.00    +0.000 HD
ATOM     37  H2  CYS A   1       7.783  17.401  20.130  0.00  0.00    +0.000 HD
ENDBRANCH  34  35
BRANCH  34  38
ATOM     38  CB  CYS A   1       7.693  14.761  21.681  0.00  0.00    +0.000 C 
BRANCH  38  39
ATOM     39  SG  CYS A   1       7.432  16.000  22.999  0.00  0.00    +0.000 S 
ATOM     40  HG  CYS A   1       6.874  15.155  23.883  0.00  0.00    +0.000 HD
ENDBRANCH  38  39
ENDBRANCH  34  38
ENDBRANCH  31  34
ENDBRANCH  28  30
ENDBRANCH  25  28
ENDBRANCH  23  24
ENDBRANCH   2  23
TORSDOF 18
ENDMDL
MODEL 2
REMARK VINA RESULT:      -6.4      1.142      1.216
REMARK  Name = 
REMARK  20 active torsions:
REMARK  status: ('A' for Active; 'I' for Inactive)
REMARK    1  A    between atoms: CB_1  and  CA_2
REMARK    2  A    between atoms: CA_2  and  N_3
REMARK    3  A    between atoms: CA_2  and  C_19
REMARK    4  A    between atoms: C_4  and  CA_6
REMARK    5  A    between atoms: CA_6  and  N_7
REMARK    6  A    between atoms: C_8  and  CA_10
REMARK    7  A    between atoms: CA_10  and  CB_11
REMARK    8  A    between atoms: CA_10  and  N_12
REMARK    9  A    between atoms: C_13  and  CA_15
REMARK   10  A    between atoms: CA_15  and  N_16
REMARK   11  A    between atoms: CA_15  and  CB_17
REMARK   12  A    between atoms: CB_17  and  SG_18
REMARK   13  A    between atoms: N_21  and  CA_22
REMARK   14  A    between atoms: CA_22  and  CB_23
REMARK   15  A    between atoms: CA_22  and  C_28
REMARK   16  A    between atoms: CB_23  and  CG_24
REMARK   17  A    between atoms: CG_24  and  CD_25
REMARK   18  A    between atoms: CD_25  and  CE_26
REMARK   19  A    between atoms: CE_26  and  NZ_27
REMARK   20  A    between atoms: C_28  and  OXT_30
REMARK                            x       y       z     vdW  Elec       q    Type
REMARK                         _______ _______ _______ _____ _____    ______ ____
ROOT
ATOM      1  N   ALA A   4       7.357   6.370  17.814  0.00  0.00    +0.000 N 
ATOM      2  C   GLY A   3       7.433   7.736  17.624  0.00  0.00    +0.000 C 
ATOM      3  O   GLY A   3       6.729   8.358  16.835  0.00  0.00    +0.000 OA
ATOM      4  H   ALA A   4       7.590   6.072  18.761  0.00  0.00    +0.000 HD
ENDROOT
BRANCH   1   6
ATOM      5  CB  ALA A   4       7.113   4.250  16.539  0.00  0.00    +0.000 C 
ATOM      6  CA  ALA A   4       6.433   5.523  17.048  0.00  0.00    +0.000 C 
BRANCH   6   7
ATOM      7  C   ALA A   4       5.238   5.112  17.939  0.00  0.00    +0.000 C 
ATOM      8  O   ALA A   4       4.450   5.929  18.408  0.00  0.00    +0.000 OA
ATOM      9  N   LYS A   5       5.030   3.753  18.027  0.00  0.00    +0.000 N 
ATOM     10  H   LYS A   5       5.673   3.122  17.552  0.00  0.00    +0.000 HD
BRANCH   9  11
ATOM     11  CA  LYS A   5       3.916   3.136  18.754  0.00  0.00    +0.000 C 
BRANCH  11  12
ATOM     12  C   LYS A   5       4.440   1.838  19.398  0.00  0.00    +0.000 C 
ATOM     13  O   LYS A   5       4.955   1.795  20.510  0.00  0.00    +0.000 OA
BRANCH  12  14
ATOM     14  OXT LYS A   5       4.307   0.731  18.632  0.00  0.00    +0.000 OA
ATOM     15  HXT LYS A   5       4.662   0.810  17.727  0.00  0.00    +0.000 HD
ENDBRANCH  12  14
ENDBRANCH  11  12
BRANCH  11  16
ATOM     16  CB  LYS A   5       2.705   2.848  17.846  0.00  0.00    +0.000 C 
BRANCH  16  17
ATOM     17  CG  LYS A   5       1.384   3.109  18.570  0.00  0.00    +0.000 C 
BRANCH  17  18
ATOM     18  CD  LYS A   5       1.541   3.892  19.871  0.00  0.00    +0.000 C 
BRANCH  18  19
ATOM     19  CE  LYS A   5       1.213   2.961  21.039  0.00  0.00    +0.000 C 
BRANCH  19  20
ATOM     20  NZ  LYS A   5       2.278   2.958  22.028  0.00  0.00    +0.000 NA
ATOM     21  HZ1 LYS A   5       3.181   2.897  21.561  0.00  0.00    +0.000 HD
ATOM     22  HZ2 LYS A   5       2.196   2.116  22.597  0.00  0.00    +0.000 HD
ENDBRANCH  19  20
ENDBRANCH  18  19
ENDBRANCH  17  18
ENDBRANCH  16  17
ENDBRANCH  11  16
ENDBRANCH   9  11
ENDBRANCH   6   7
ENDBRANCH   1   6
BRANCH   2  23
ATOM     23  CA  GLY A   3       8.475   8.423  18.518  0.00  0.00    +0.000 C 
BRANCH  23  24
ATOM     24  N   GLY A   3       8.844   9.759  18.076  0.00  0.00    +0.000 N 
ATOM     25  C   ALA A   2       9.317  10.723  18.944  0.00  0.00    +0.000 C 
ATOM     26  O   ALA A   2       9.392  10.512  20.156  0.00  0.00    +0.000 OA
ATOM     27  H   GLY A   3       8.826   9.928  17.079  0.00  0.00    +0.000 HD
BRANCH  25  28
ATOM     28  CA  ALA A   2       9.633  12.104  18.301  0.00  0.00    +0.000 C 
ATOM     29  CB  ALA A   2      11.062  12.224  17.794  0.00  0.00    +0.000 C 
BRANCH  28  30
ATOM     30  N   ALA A   2       9.351  13.236  19.195  0.00  0.00    +0.000 N 
ATOM     31  C   CYS A   1       8.282  14.076  18.945  0.00  0.00    +0.000 C 
ATOM     32  O   CYS A   1       7.592  13.968  17.943  0.00  0.00    +0.000 OA
ATOM     33  H   ALA A   2      10.025  13.469  19.916  0.00  0.00    +0.000 HD
BRANCH  31  34
ATOM     34  CA  CYS A   1       8.049  15.183  20.000  0.00  0.00    +0.000 C 
BRANCH  34  35
ATOM     35  N   CYS A   1       9.340  15.515  20.649  0.00  0.00    +0.000 NA
ATOM     36  H1  CYS A   1       9.959  14.702  20.591  0.00  0.00    +0.000 HD
ATOM     37  H2  CYS A   1       9.199  15.692  21.642  0.00  0.00    +0.000 HD
ENDBRANCH  34  35
BRANCH  34  38
ATOM     38  CB  CYS A   1       7.463  16.440  19.329  0.00  0.00    +0.000 C 
BRANCH  38  39
ATOM     39  SG  CYS A   1       8.736  17.421  18.460  0.00  0.00    +0.000 S 
ATOM     40  HG  CYS A   1       8.282  17.180  17.218  0.00  0.00    +0.000 HD
ENDBRANCH  38  39
ENDBRANCH  34  38
ENDBRANCH  31  34
ENDBRANCH  28  30
ENDBRANCH  25  28
ENDBRANCH  23  24
ENDBRANCH   2  23
TORSDOF 18
ENDMDL
MODEL 3
REMARK VINA RESULT:      -6.3      4.874      7.054
REMARK  Name = 
REMARK  20 active torsions:
REMARK  status: ('A' for Active; 'I' for Inactive)
REMARK    1  A    between atoms: CB_1  and  CA_2
REMARK    2  A    between atoms: CA_2  and  N_3
REMARK    3  A    between atoms: CA_2  and  C_19
REMARK    4  A    between atoms: C_4  and  CA_6
REMARK    5  A    between atoms: CA_6  and  N_7
REMARK    6  A    between atoms: C_8  and  CA_10
REMARK    7  A    between atoms: CA_10  and  CB_11
REMARK    8  A    between atoms: CA_10  and  N_12
REMARK    9  A    between atoms: C_13  and  CA_15
REMARK   10  A    between atoms: CA_15  and  N_16
REMARK   11  A    between atoms: CA_15  and  CB_17
REMARK   12  A    between atoms: CB_17  and  SG_18
REMARK   13  A    between atoms: N_21  and  CA_22
REMARK   14  A    between atoms: CA_22  and  CB_23
REMARK   15  A    between atoms: CA_22  and  C_28
REMARK   16  A    between atoms: CB_23  and  CG_24
REMARK   17  A    between atoms: CG_24  and  CD_25
REMARK   18  A    between atoms: CD_25  and  CE_26
REMARK   19  A    between atoms: CE_26  and  NZ_27
REMARK   20  A    between atoms: C_28  and  OXT_30
REMARK                            x       y       z     vdW  Elec       q    Type
REMARK                         _______ _______ _______ _____ _____    ______ ____
ROOT
ATOM      1  N   ALA A   4       2.723   5.177  19.589  0.00  0.00    +0.000 N 
ATOM      2  C   GLY A   3       2.619   6.431  19.023  0.00  0.00    +0.000 C 
ATOM      3  O   GLY A   3       2.829   6.668  17.837  0.00  0.00    +0.000 OA
ATOM      4  H   ALA A   4       2.086   5.022  20.370  0.00  0.00    +0.000 HD
ENDROOT
BRANCH   1   6
ATOM      5  CB  ALA A   4       2.206   3.739  17.627  0.00  0.00    +0.000 C 
ATOM      6  CA  ALA A   4       3.138   3.999  18.814  0.00  0.00    +0.000 C 
BRANCH   6   7
ATOM      7  C   ALA A   4       4.570   4.207  18.270  0.00  0.00    +0.000 C 
ATOM      8  O   ALA A   4       5.567   4.120  18.981  0.00  0.00    +0.000 OA
ATOM      9  N   LYS A   5       4.650   4.330  16.899  0.00  0.00    +0.000 N 
ATOM     10  H   LYS A   5       3.792   4.318  16.350  0.00  0.00    +0.000 HD
BRANCH   9  11
ATOM     11  CA  LYS A   5       5.907   4.462  16.157  0.00  0.00    +0.000 C 
BRANCH  11  12
ATOM     12  C   LYS A   5       6.305   5.950  16.169  0.00  0.00    +0.000 C 
ATOM     13  O   LYS A   5       7.436   6.346  16.430  0.00  0.00    +0.000 OA
BRANCH  12  14
ATOM     14  OXT LYS A   5       5.298   6.808  15.885  0.00  0.00    +0.000 OA
ATOM     15  HXT LYS A   5       5.219   7.568  16.492  0.00  0.00    +0.000 HD
ENDBRANCH  12  14
ENDBRANCH  11  12
BRANCH  11  16
ATOM     16  CB  LYS A   5       5.799   3.934  14.713  0.00  0.00    +0.000 C 
BRANCH  16  17
ATOM     17  CG  LYS A   5       6.834   4.585  13.796  0.00  0.00    +0.000 C 
BRANCH  17  18
ATOM     18  CD  LYS A   5       6.934   3.932  12.420  0.00  0.00    +0.000 C 
BRANCH  18  19
ATOM     19  CE  LYS A   5       5.656   3.129  12.172  0.00  0.00    +0.000 C 
BRANCH  19  20
ATOM     20  NZ  LYS A   5       5.952   1.824  11.605  0.00  0.00    +0.000 NA
ATOM     21  HZ1 LYS A   5       5.087   1.367  11.322  0.00  0.00    +0.000 HD
ATOM     22  HZ2 LYS A   5       6.359   1.235  12.331  0.00  0.00    +0.000 HD
ENDBRANCH  19  20
ENDBRANCH  18  19
ENDBRANCH  17  18
ENDBRANCH  16  17
ENDBRANCH  11  16
ENDBRANCH   9  11
ENDBRANCH   6   7
ENDBRANCH   1   6
BRANCH   2  23
ATOM     23  CA  GLY A   3       2.184   7.519  20.015  0.00  0.00    +0.000 C 
BRANCH  23  24
ATOM     24  N   GLY A   3       1.527   8.658  19.393  0.00  0.00    +0.000 N 
ATOM     25  C   ALA A   2       0.474   9.323  19.991  0.00  0.00    +0.000 C 
ATOM     26  O   ALA A   2       0.000   8.941  21.062  0.00  0.00    +0.000 OA
ATOM     27  H   GLY A   3       1.935   9.005  18.535  0.00  0.00    +0.000 HD
BRANCH  25  28
ATOM     28  CA  ALA A   2      -0.127  10.498  19.167  0.00  0.00    +0.000 C 
ATOM     29  CB  ALA A   2      -0.984  10.041  17.996  0.00  0.00    +0.000 C 
BRANCH  28  30
ATOM     30  N   ALA A   2       0.890  11.437  18.671  0.00  0.00    +0.000 N 
ATOM     31  C   CYS A   1       1.291  12.508  19.448  0.00  0.00    +0.000 C 
ATOM     32  O   CYS A   1       0.765  12.765  20.521  0.00  0.00    +0.000 OA
ATOM     33  H   ALA A   2       1.194  11.364  17.707  0.00  0.00    +0.000 HD
BRANCH  31  34
ATOM     34  CA  CYS A   1       2.419  13.378  18.845  0.00  0.00    +0.000 C 
BRANCH  34  35
ATOM     35  N   CYS A   1       2.721  12.899  17.474  0.00  0.00    +0.000 NA
ATOM     36  H1  CYS A   1       2.031  12.191  17.211  0.00  0.00    +0.000 HD
ATOM     37  H2  CYS A   1       3.625  12.432  17.457  0.00  0.00    +0.000 HD
ENDBRANCH  34  35
BRANCH  34  38
ATOM     38  CB  CYS A   1       1.983  14.855  18.800  0.00  0.00    +0.000 C 
BRANCH  38  39
ATOM     39  SG  CYS A   1       2.749  15.846  20.130  0.00  0.00    +0.000 S 
ATOM     40  HG  CYS A   1       2.272  15.111  21.150  0.00  0.00    +0.000 HD
ENDBRANCH  38  39
ENDBRANCH  34  38
ENDBRANCH  31  34
ENDBRANCH  28  30
ENDBRANCH  25  28
ENDBRANCH  23  24
ENDBRANCH   2  23
TORSDOF 18
ENDMDL
MODEL 4
REMARK VINA RESULT:      -6.0      4.884      7.026
REMARK  Name = 
REMARK  20 active torsions:
REMARK  status: ('A' for Active; 'I' for Inactive)
REMARK    1  A    between atoms: CB_1  and  CA_2
REMARK    2  A    between atoms: CA_2  and  N_3
REMARK    3  A    between atoms: CA_2  and  C_19
REMARK    4  A    between atoms: C_4  and  CA_6
REMARK    5  A    between atoms: CA_6  and  N_7
REMARK    6  A    between atoms: C_8  and  CA_10
REMARK    7  A    between atoms: CA_10  and  CB_11
REMARK    8  A    between atoms: CA_10  and  N_12
REMARK    9  A    between atoms: C_13  and  CA_15
REMARK   10  A    between atoms: CA_15  and  N_16
REMARK   11  A    between atoms: CA_15  and  CB_17
REMARK   12  A    between atoms: CB_17  and  SG_18
REMARK   13  A    between atoms: N_21  and  CA_22
REMARK   14  A    between atoms: CA_22  and  CB_23
REMARK   15  A    between atoms: CA_22  and  C_28
REMARK   16  A    between atoms: CB_23  and  CG_24
REMARK   17  A    between atoms: CG_24  and  CD_25
REMARK   18  A    between atoms: CD_25  and  CE_26
REMARK   19  A    between atoms: CE_26  and  NZ_27
REMARK   20  A    between atoms: C_28  and  OXT_30
REMARK                            x       y       z     vdW  Elec       q    Type
REMARK                         _______ _______ _______ _____ _____    ______ ____
ROOT
ATOM      1  N   ALA A   4       2.884   5.060  19.637  0.00  0.00    +0.000 N 
ATOM      2  C   GLY A   3       2.829   6.390  19.269  0.00  0.00    +0.000 C 
ATOM      3  O   GLY A   3       3.255   6.825  18.204  0.00  0.00    +0.000 OA
ATOM      4  H   ALA A   4       2.116   4.766  20.239  0.00  0.00    +0.000 HD
ENDROOT
BRANCH   1   6
ATOM      5  CB  ALA A   4       2.862   3.991  17.391  0.00  0.00    +0.000 C 
ATOM      6  CA  ALA A   4       3.501   4.036  18.782  0.00  0.00    +0.000 C 
BRANCH   6   7
ATOM      7  C   ALA A   4       5.009   4.332  18.613  0.00  0.00    +0.000 C 
ATOM      8  O   ALA A   4       5.831   4.106  19.497  0.00  0.00    +0.000 OA
ATOM      9  N   LYS A   5       5.380   4.711  17.341  0.00  0.00    +0.000 N 
ATOM     10  H   LYS A   5       4.662   4.808  16.625  0.00  0.00    +0.000 HD
BRANCH   9  11
ATOM     11  CA  LYS A   5       6.763   4.971  16.930  0.00  0.00    +0.000 C 
BRANCH  11  12
ATOM     12  C   LYS A   5       7.133   6.390  17.401  0.00  0.00    +0.000 C 
ATOM     13  O   LYS A   5       6.862   7.405  16.768  0.00  0.00    +0.000 OA
BRANCH  12  14
ATOM     14  OXT LYS A   5       7.807   6.441  18.573  0.00  0.00    +0.000 OA
ATOM     15  HXT LYS A   5       8.649   5.949  18.587  0.00  0.00    +0.000 HD
ENDBRANCH  12  14
ENDBRANCH  11  12
BRANCH  11  16
ATOM     16  CB  LYS A   5       6.965   4.827  15.409  0.00  0.00    +0.000 C 
BRANCH  16  17
ATOM     17  CG  LYS A   5       6.136   3.676  14.837  0.00  0.00    +0.000 C 
BRANCH  17  18
ATOM     18  CD  LYS A   5       5.504   3.989  13.483  0.00  0.00    +0.000 C 
BRANCH  18  19
ATOM     19  CE  LYS A   5       6.475   3.555  12.384  0.00  0.00    +0.000 C 
BRANCH  19  20
ATOM     20  NZ  LYS A   5       6.115   2.256  11.841  0.00  0.00    +0.000 NA
ATOM     21  HZ1 LYS A   5       5.222   2.322  11.355  0.00  0.00    +0.000 HD
ATOM     22  HZ2 LYS A   5       5.969   1.606  12.614  0.00  0.00    +0.000 HD
ENDBRANCH  19  20
ENDBRANCH  18  19
ENDBRANCH  17  18
ENDBRANCH  16  17
ENDBRANCH  11  16
ENDBRANCH   9  11
ENDBRANCH   6   7
ENDBRANCH   1   6
BRANCH   2  23
ATOM     23  CA  GLY A   3       2.155   7.288  20.316  0.00  0.00    +0.000 C 
BRANCH  23  24
ATOM     24  N   GLY A   3       1.485   8.450  19.753  0.00  0.00    +0.000 N 
ATOM     25  C   ALA A   2       0.615   9.232  20.486  0.00  0.00    +0.000 C 
ATOM     26  O   ALA A   2       0.316   8.943  21.646  0.00  0.00    +0.000 OA
ATOM     27  H   GLY A   3       1.755   8.721  18.816  0.00  0.00    +0.000 HD
BRANCH  25  28
ATOM     28  CA  ALA A   2      -0.034  10.416  19.713  0.00  0.00    +0.000 C 
ATOM     29  CB  ALA A   2      -0.259  10.125  18.237  0.00  0.00    +0.000 C 
BRANCH  28  30
ATOM     30  N   ALA A   2       0.721  11.671  19.838  0.00  0.00    +0.000 N 
ATOM     31  C   CYS A   1       0.295  12.660  20.704  0.00  0.00    +0.000 C 
ATOM     32  O   CYS A   1      -0.753  12.572  21.326  0.00  0.00    +0.000 OA
ATOM     33  H   ALA A   2       1.477  11.853  19.188  0.00  0.00    +0.000 HD
BRANCH  31  34
ATOM     34  CA  CYS A   1       1.217  13.900  20.798  0.00  0.00    +0.000 C 
BRANCH  34  35
ATOM     35  N   CYS A   1       1.202  14.410  22.190  0.00  0.00    +0.000 NA
ATOM     36  H1  CYS A   1       0.889  13.663  22.815  0.00  0.00    +0.000 HD
ATOM     37  H2  CYS A   1       0.519  15.159  22.283  0.00  0.00    +0.000 HD
ENDBRANCH  34  35
BRANCH  34  38
ATOM     38  CB  CYS A   1       2.655  13.523  20.394  0.00  0.00    +0.000 C 
BRANCH  38  39
ATOM     39  SG  CYS A   1       3.315  14.614  19.085  0.00  0.00    +0.000 S 
ATOM     40  HG  CYS A   1       3.787  13.629  18.300  0.00  0.00    +0.000 HD
ENDBRANCH  38  39
ENDBRANCH  34  38
ENDBRANCH  31  34
ENDBRANCH  28  30
ENDBRANCH  25  28
ENDBRANCH  23  24
ENDBRANCH   2  23
TORSDOF 18
ENDMDL
MODEL 5
REMARK VINA RESULT:      -6.0      5.342      7.392
REMARK  Name = 
REMARK  20 active torsions:
REMARK  status: ('A' for Active; 'I' for Inactive)
REMARK    1  A    between atoms: CB_1  and  CA_2
REMARK    2  A    between atoms: CA_2  and  N_3
REMARK    3  A    between atoms: CA_2  and  C_19
REMARK    4  A    between atoms: C_4  and  CA_6
REMARK    5  A    between atoms: CA_6  and  N_7
REMARK    6  A    between atoms: C_8  and  CA_10
REMARK    7  A    between atoms: CA_10  and  CB_11
REMARK    8  A    between atoms: CA_10  and  N_12
REMARK    9  A    between atoms: C_13  and  CA_15
REMARK   10  A    between atoms: CA_15  and  N_16
REMARK   11  A    between atoms: CA_15  and  CB_17
REMARK   12  A    between atoms: CB_17  and  SG_18
REMARK   13  A    between atoms: N_21  and  CA_22
REMARK   14  A    between atoms: CA_22  and  CB_23
REMARK   15  A    between atoms: CA_22  and  C_28
REMARK   16  A    between atoms: CB_23  and  CG_24
REMARK   17  A    between atoms: CG_24  and  CD_25
REMARK   18  A    between atoms: CD_25  and  CE_26
REMARK   19  A    between atoms: CE_26  and  NZ_27
REMARK   20  A    between atoms: C_28  and  OXT_30
REMARK                            x       y       z     vdW  Elec       q    Type
REMARK                         _______ _______ _______ _____ _____    ______ ____
ROOT
ATOM      1  N   ALA A   4       2.142   5.431  19.233  0.00  0.00    +0.000 N 
ATOM      2  C   GLY A   3       2.015   5.598  20.598  0.00  0.00    +0.000 C 
ATOM      3  O   GLY A   3       2.211   4.706  21.419  0.00  0.00    +0.000 OA
ATOM      4  H   ALA A   4       2.439   6.273  18.740  0.00  0.00    +0.000 HD
ENDROOT
BRANCH   1   6
ATOM      5  CB  ALA A   4       1.773   3.911  17.300  0.00  0.00    +0.000 C 
ATOM      6  CA  ALA A   4       2.494   4.138  18.632  0.00  0.00    +0.000 C 
BRANCH   6   7
ATOM      7  C   ALA A   4       4.018   4.077  18.375  0.00  0.00    +0.000 C 
ATOM      8  O   ALA A   4       4.793   3.491  19.125  0.00  0.00    +0.000 OA
ATOM      9  N   LYS A   5       4.414   4.584  17.156  0.00  0.00    +0.000 N 
ATOM     10  H   LYS A   5       3.714   4.990  16.538  0.00  0.00    +0.000 HD
BRANCH   9  11
ATOM     11  CA  LYS A   5       5.796   4.565  16.667  0.00  0.00    +0.000 C 
BRANCH  11  12
ATOM     12  C   LYS A   5       6.173   6.006  16.273  0.00  0.00    +0.000 C 
ATOM     13  O   LYS A   5       5.348   6.866  15.983  0.00  0.00    +0.000 OA
BRANCH  12  14
ATOM     14  OXT LYS A   5       7.502   6.258  16.250  0.00  0.00    +0.000 OA
ATOM     15  HXT LYS A   5       7.795   6.988  16.826  0.00  0.00    +0.000 HD
ENDBRANCH  12  14
ENDBRANCH  11  12
BRANCH  11  16
ATOM     16  CB  LYS A   5       5.989   3.603  15.479  0.00  0.00    +0.000 C 
BRANCH  16  17
ATOM     17  CG  LYS A   5       5.654   4.276  14.148  0.00  0.00    +0.000 C 
BRANCH  17  18
ATOM     18  CD  LYS A   5       6.428   3.709  12.961  0.00  0.00    +0.000 C 
BRANCH  18  19
ATOM     19  CE  LYS A   5       5.450   2.949  12.063  0.00  0.00    +0.000 C 
BRANCH  19  20
ATOM     20  NZ  LYS A   5       6.026   1.703  11.588  0.00  0.00    +0.000 NA
ATOM     21  HZ1 LYS A   5       5.588   1.435  10.708  0.00  0.00    +0.000 HD
ATOM     22  HZ2 LYS A   5       5.803   0.962  12.252  0.00  0.00    +0.000 HD
ENDBRANCH  19  20
ENDBRANCH  18  19
ENDBRANCH  17  18
ENDBRANCH  16  17
ENDBRANCH  11  16
ENDBRANCH   9  11
ENDBRANCH   6   7
ENDBRANCH   1   6
BRANCH   2  23
ATOM     23  CA  GLY A   3       1.627   7.025  21.009  0.00  0.00    +0.000 C 
BRANCH  23  24
ATOM     24  N   GLY A   3       1.550   7.960  19.896  0.00  0.00    +0.000 N 
ATOM     25  C   ALA A   2       0.820   9.130  19.960  0.00  0.00    +0.000 C 
ATOM     26  O   ALA A   2       0.145   9.410  20.952  0.00  0.00    +0.000 OA
ATOM     27  H   GLY A   3       2.135   7.760  19.095  0.00  0.00    +0.000 HD
BRANCH  25  28
ATOM     28  CA  ALA A   2       0.826   9.993  18.666  0.00  0.00    +0.000 C 
ATOM     29  CB  ALA A   2       2.041   9.750  17.781  0.00  0.00    +0.000 C 
BRANCH  28  30
ATOM     30  N   ALA A   2       0.715  11.434  18.931  0.00  0.00    +0.000 N 
ATOM     31  C   CYS A   1      -0.419  12.129  18.553  0.00  0.00    +0.000 C 
ATOM     32  O   CYS A   1      -1.321  11.603  17.917  0.00  0.00    +0.000 OA
ATOM     33  H   ALA A   2       1.528  11.933  19.272  0.00  0.00    +0.000 HD
BRANCH  31  34
ATOM     34  CA  CYS A   1      -0.445  13.623  18.954  0.00  0.00    +0.000 C 
BRANCH  34  35
ATOM     35  N   CYS A   1      -1.672  13.892  19.741  0.00  0.00    +0.000 NA
ATOM     36  H1  CYS A   1      -1.635  14.851  20.097  0.00  0.00    +0.000 HD
ATOM     37  H2  CYS A   1      -1.702  13.289  20.562  0.00  0.00    +0.000 HD
ENDBRANCH  34  35
BRANCH  34  38
ATOM     38  CB  CYS A   1       0.801  13.968  19.792  0.00  0.00    +0.000 C 
BRANCH  38  39
ATOM     39  SG  CYS A   1       1.865  15.208  18.975  0.00  0.00    +0.000 S 
ATOM     40  HG  CYS A   1       2.244  15.838  20.101  0.00  0.00    +0.000 HD
ENDBRANCH  38  39
ENDBRANCH  34  38
ENDBRANCH  31  34
ENDBRANCH  28  30
ENDBRANCH  25  28
ENDBRANCH  23  24
ENDBRANCH   2  23
TORSDOF 18
ENDMDL
MODEL 6
REMARK VINA RESULT:      -6.0      7.227     10.190
REMARK  Name = 
REMARK  20 active torsions:
REMARK  status: ('A' for Active; 'I' for Inactive)
REMARK    1  A    between atoms: CB_1  and  CA_2
REMARK    2  A    between atoms: CA_2  and  N_3
REMARK    3  A    between atoms: CA_2  and  C_19
REMARK    4  A    between atoms: C_4  and  CA_6
REMARK    5  A    between atoms: CA_6  and  N_7
REMARK    6  A    between atoms: C_8  and  CA_10
REMARK    7  A    between atoms: CA_10  and  CB_11
REMARK    8  A    between atoms: CA_10  and  N_12
REMARK    9  A    between atoms: C_13  and  CA_15
REMARK   10  A    between atoms: CA_15  and  N_16
REMARK   11  A    between atoms: CA_15  and  CB_17
REMARK   12  A    between atoms: CB_17  and  SG_18
REMARK   13  A    between atoms: N_21  and  CA_22
REMARK   14  A    between atoms: CA_22  and  CB_23
REMARK   15  A    between atoms: CA_22  and  C_28
REMARK   16  A    between atoms: CB_23  and  CG_24
REMARK   17  A    between atoms: CG_24  and  CD_25
REMARK   18  A    between atoms: CD_25  and  CE_26
REMARK   19  A    between atoms: CE_26  and  NZ_27
REMARK   20  A    between atoms: C_28  and  OXT_30
REMARK                            x       y       z     vdW  Elec       q    Type
REMARK                         _______ _______ _______ _____ _____    ______ ____
ROOT
ATOM      1  N   ALA A   4       1.177   9.096  19.219  0.00  0.00    +0.000 N 
ATOM      2  C   GLY A   3       2.037   8.279  18.513  0.00  0.00    +0.000 C 
ATOM      3  O   GLY A   3       2.449   8.531  17.385  0.00  0.00    +0.000 OA
ATOM      4  H   ALA A   4       1.306   9.057  20.230  0.00  0.00    +0.000 HD
ENDROOT
BRANCH   1   6
ATOM      5  CB  ALA A   4      -0.731  10.139  18.013  0.00  0.00    +0.000 C 
ATOM      6  CA  ALA A   4       0.643  10.344  18.657  0.00  0.00    +0.000 C 
BRANCH   6   7
ATOM      7  C   ALA A   4       0.502  11.405  19.773  0.00  0.00    +0.000 C 
ATOM      8  O   ALA A   4       1.320  12.305  19.937  0.00  0.00    +0.000 OA
ATOM      9  N   LYS A   5      -0.693  11.361  20.458  0.00  0.00    +0.000 N 
ATOM     10  H   LYS A   5      -1.370  10.636  20.226  0.00  0.00    +0.000 HD
BRANCH   9  11
ATOM     11  CA  LYS A   5      -1.077  12.311  21.505  0.00  0.00    +0.000 C 
BRANCH  11  12
ATOM     12  C   LYS A   5      -1.236  11.522  22.819  0.00  0.00    +0.000 C 
ATOM     13  O   LYS A   5      -0.359  10.805  23.288  0.00  0.00    +0.000 OA
BRANCH  12  14
ATOM     14  OXT LYS A   5      -2.439  11.662  23.421  0.00  0.00    +0.000 OA
ATOM     15  HXT LYS A   5      -2.421  11.625  24.396  0.00  0.00    +0.000 HD
ENDBRANCH  12  14
ENDBRANCH  11  12
BRANCH  11  16
ATOM     16  CB  LYS A   5      -2.371  13.076  21.164  0.00  0.00    +0.000 C 
BRANCH  16  17
ATOM     17  CG  LYS A   5      -3.064  12.490  19.935  0.00  0.00    +0.000 C 
BRANCH  17  18
ATOM     18  CD  LYS A   5      -4.575  12.710  19.919  0.00  0.00    +0.000 C 
BRANCH  18  19
ATOM     19  CE  LYS A   5      -5.096  12.598  21.353  0.00  0.00    +0.000 C 
BRANCH  19  20
ATOM     20  NZ  LYS A   5      -6.538  12.768  21.406  0.00  0.00    +0.000 NA
ATOM     21  HZ1 LYS A   5      -6.944  12.066  22.023  0.00  0.00    +0.000 HD
ATOM     22  HZ2 LYS A   5      -6.925  12.589  20.480  0.00  0.00    +0.000 HD
ENDBRANCH  19  20
ENDBRANCH  18  19
ENDBRANCH  17  18
ENDBRANCH  16  17
ENDBRANCH  11  16
ENDBRANCH   9  11
ENDBRANCH   6   7
ENDBRANCH   1   6
BRANCH   2  23
ATOM     23  CA  GLY A   3       2.461   7.021  19.284  0.00  0.00    +0.000 C 
BRANCH  23  24
ATOM     24  N   GLY A   3       3.157   6.037  18.471  0.00  0.00    +0.000 N 
ATOM     25  C   ALA A   2       2.598   4.819  18.139  0.00  0.00    +0.000 C 
ATOM     26  O   ALA A   2       1.494   4.482  18.572  0.00  0.00    +0.000 OA
ATOM     27  H   GLY A   3       4.045   6.320  18.076  0.00  0.00    +0.000 HD
BRANCH  25  28
ATOM     28  CA  ALA A   2       3.498   3.878  17.289  0.00  0.00    +0.000 C 
ATOM     29  CB  ALA A   2       3.387   2.413  17.682  0.00  0.00    +0.000 C 
BRANCH  28  30
ATOM     30  N   ALA A   2       4.917   4.265  17.305  0.00  0.00    +0.000 N 
ATOM     31  C   CYS A   1       5.593   4.490  16.121  0.00  0.00    +0.000 C 
ATOM     32  O   CYS A   1       5.077   4.296  15.030  0.00  0.00    +0.000 OA
ATOM     33  H   ALA A   2       5.421   4.236  18.183  0.00  0.00    +0.000 HD
BRANCH  31  34
ATOM     34  CA  CYS A   1       7.058   4.963  16.275  0.00  0.00    +0.000 C 
BRANCH  34  35
ATOM     35  N   CYS A   1       7.610   5.277  14.935  0.00  0.00    +0.000 NA
ATOM     36  H1  CYS A   1       8.339   4.595  14.709  0.00  0.00    +0.000 HD
ATOM     37  H2  CYS A   1       8.069   6.186  14.948  0.00  0.00    +0.000 HD
ENDBRANCH  34  35
BRANCH  34  38
ATOM     38  CB  CYS A   1       7.119   6.215  17.172  0.00  0.00    +0.000 C 
BRANCH  38  39
ATOM     39  SG  CYS A   1       7.706   5.831  18.859  0.00  0.00    +0.000 S 
ATOM     40  HG  CYS A   1       8.977   5.564  18.513  0.00  0.00    +0.000 HD
ENDBRANCH  38  39
ENDBRANCH  34  38
ENDBRANCH  31  34
ENDBRANCH  28  30
ENDBRANCH  25  28
ENDBRANCH  23  24
ENDBRANCH   2  23
TORSDOF 18
ENDMDL
MODEL 7
REMARK VINA RESULT:      -5.9      6.537      9.767
REMARK  Name = 
REMARK  20 active torsions:
REMARK  status: ('A' for Active; 'I' for Inactive)
REMARK    1  A    between atoms: CB_1  and  CA_2
REMARK    2  A    between atoms: CA_2  and  N_3
REMARK    3  A    between atoms: CA_2  and  C_19
REMARK    4  A    between atoms: C_4  and  CA_6
REMARK    5  A    between atoms: CA_6  and  N_7
REMARK    6  A    between atoms: C_8  and  CA_10
REMARK    7  A    between atoms: CA_10  and  CB_11
REMARK    8  A    between atoms: CA_10  and  N_12
REMARK    9  A    between atoms: C_13  and  CA_15
REMARK   10  A    between atoms: CA_15  and  N_16
REMARK   11  A    between atoms: CA_15  and  CB_17
REMARK   12  A    between atoms: CB_17  and  SG_18
REMARK   13  A    between atoms: N_21  and  CA_22
REMARK   14  A    between atoms: CA_22  and  CB_23
REMARK   15  A    between atoms: CA_22  and  C_28
REMARK   16  A    between atoms: CB_23  and  CG_24
REMARK   17  A    between atoms: CG_24  and  CD_25
REMARK   18  A    between atoms: CD_25  and  CE_26
REMARK   19  A    between atoms: CE_26  and  NZ_27
REMARK   20  A    between atoms: C_28  and  OXT_30
REMARK                            x       y       z     vdW  Elec       q    Type
REMARK                         _______ _______ _______ _____ _____    ______ ____
ROOT
ATOM      1  N   ALA A   4       1.538   8.279  19.159  0.00  0.00    +0.000 N 
ATOM      2  C   GLY A   3       2.531   7.439  18.696  0.00  0.00    +0.000 C 
ATOM      3  O   GLY A   3       3.356   7.758  17.845  0.00  0.00    +0.000 OA
ATOM      4  H   ALA A   4       1.274   8.110  20.130  0.00  0.00    +0.000 HD
ENDROOT
BRANCH   1   6
ATOM      5  CB  ALA A   4       0.218   9.719  17.620  0.00  0.00    +0.000 C 
ATOM      6  CA  ALA A   4       1.358   9.642  18.639  0.00  0.00    +0.000 C 
BRANCH   6   7
ATOM      7  C   ALA A   4       1.037  10.608  19.802  0.00  0.00    +0.000 C 
ATOM      8  O   ALA A   4       1.142  11.827  19.698  0.00  0.00    +0.000 OA
ATOM      9  N   LYS A   5       0.465  10.009  20.904  0.00  0.00    +0.000 N 
ATOM     10  H   LYS A   5       0.331   8.999  20.904  0.00  0.00    +0.000 HD
BRANCH   9  11
ATOM     11  CA  LYS A   5       0.011  10.736  22.093  0.00  0.00    +0.000 C 
BRANCH  11  12
ATOM     12  C   LYS A   5      -0.159   9.712  23.232  0.00  0.00    +0.000 C 
ATOM     13  O   LYS A   5       0.575   9.662  24.212  0.00  0.00    +0.000 OA
BRANCH  12  14
ATOM     14  OXT LYS A   5      -1.182   8.843  23.063  0.00  0.00    +0.000 OA
ATOM     15  HXT LYS A   5      -0.926   7.961  22.734  0.00  0.00    +0.000 HD
ENDBRANCH  12  14
ENDBRANCH  11  12
BRANCH  11  16
ATOM     16  CB  LYS A   5      -1.301  11.508  21.849  0.00  0.00    +0.000 C 
BRANCH  16  17
ATOM     17  CG  LYS A   5      -1.699  12.342  23.066  0.00  0.00    +0.000 C 
BRANCH  17  18
ATOM     18  CD  LYS A   5      -3.180  12.244  23.420  0.00  0.00    +0.000 C 
BRANCH  18  19
ATOM     19  CE  LYS A   5      -3.967  13.146  22.467  0.00  0.00    +0.000 C 
BRANCH  19  20
ATOM     20  NZ  LYS A   5      -5.134  12.463  21.935  0.00  0.00    +0.000 NA
ATOM     21  HZ1 LYS A   5      -5.008  12.291  20.939  0.00  0.00    +0.000 HD
ATOM     22  HZ2 LYS A   5      -5.941  13.081  22.016  0.00  0.00    +0.000 HD
ENDBRANCH  19  20
ENDBRANCH  18  19
ENDBRANCH  17  18
ENDBRANCH  16  17
ENDBRANCH  11  16
ENDBRANCH   9  11
ENDBRANCH   6   7
ENDBRANCH   1   6
BRANCH   2  23
ATOM     23  CA  GLY A   3       2.529   6.058  19.365  0.00  0.00    +0.000 C 
BRANCH  23  24
ATOM     24  N   GLY A   3       3.286   5.049  18.640  0.00  0.00    +0.000 N 
ATOM     25  C   ALA A   2       2.691   4.166  17.761  0.00  0.00    +0.000 C 
ATOM     26  O   ALA A   2       1.470   4.153  17.594  0.00  0.00    +0.000 OA
ATOM     27  H   GLY A   3       4.292   5.079  18.737  0.00  0.00    +0.000 HD
BRANCH  25  28
ATOM     28  CA  ALA A   2       3.649   3.135  17.098  0.00  0.00    +0.000 C 
ATOM     29  CB  ALA A   2       3.493   1.724  17.645  0.00  0.00    +0.000 C 
BRANCH  28  30
ATOM     30  N   ALA A   2       5.064   3.522  17.184  0.00  0.00    +0.000 N 
ATOM     31  C   CYS A   1       5.719   4.029  16.077  0.00  0.00    +0.000 C 
ATOM     32  O   CYS A   1       5.185   4.094  14.980  0.00  0.00    +0.000 OA
ATOM     33  H   ALA A   2       5.584   3.291  18.023  0.00  0.00    +0.000 HD
BRANCH  31  34
ATOM     34  CA  CYS A   1       7.183   4.468  16.317  0.00  0.00    +0.000 C 
BRANCH  34  35
ATOM     35  N   CYS A   1       7.631   5.305  15.179  0.00  0.00    +0.000 NA
ATOM     36  H1  CYS A   1       8.165   4.723  14.528  0.00  0.00    +0.000 HD
ATOM     37  H2  CYS A   1       8.273   6.025  15.504  0.00  0.00    +0.000 HD
ENDBRANCH  34  35
BRANCH  34  38
ATOM     38  CB  CYS A   1       7.288   5.269  17.629  0.00  0.00    +0.000 C 
BRANCH  38  39
ATOM     39  SG  CYS A   1       7.028   7.059  17.372  0.00  0.00    +0.000 S 
ATOM     40  HG  CYS A   1       6.080   6.933  16.427  0.00  0.00    +0.000 HD
ENDBRANCH  38  39
ENDBRANCH  34  38
ENDBRANCH  31  34
ENDBRANCH  28  30
ENDBRANCH  25  28
ENDBRANCH  23  24
ENDBRANCH   2  23
TORSDOF 18
ENDMDL
MODEL 8
REMARK VINA RESULT:      -5.9      6.762      8.438
REMARK  Name = 
REMARK  20 active torsions:
REMARK  status: ('A' for Active; 'I' for Inactive)
REMARK    1  A    between atoms: CB_1  and  CA_2
REMARK    2  A    between atoms: CA_2  and  N_3
REMARK    3  A    between atoms: CA_2  and  C_19
REMARK    4  A    between atoms: C_4  and  CA_6
REMARK    5  A    between atoms: CA_6  and  N_7
REMARK    6  A    between atoms: C_8  and  CA_10
REMARK    7  A    between atoms: CA_10  and  CB_11
REMARK    8  A    between atoms: CA_10  and  N_12
REMARK    9  A    between atoms: C_13  and  CA_15
REMARK   10  A    between atoms: CA_15  and  N_16
REMARK   11  A    between atoms: CA_15  and  CB_17
REMARK   12  A    between atoms: CB_17  and  SG_18
REMARK   13  A    between atoms: N_21  and  CA_22
REMARK   14  A    between atoms: CA_22  and  CB_23
REMARK   15  A    between atoms: CA_22  and  C_28
REMARK   16  A    between atoms: CB_23  and  CG_24
REMARK   17  A    between atoms: CG_24  and  CD_25
REMARK   18  A    between atoms: CD_25  and  CE_26
REMARK   19  A    between atoms: CE_26  and  NZ_27
REMARK   20  A    between atoms: C_28  and  OXT_30
REMARK                            x       y       z     vdW  Elec       q    Type
REMARK                         _______ _______ _______ _____ _____    ______ ____
ROOT
ATOM      1  N   ALA A   4       1.710   6.571  20.882  0.00  0.00    +0.000 N 
ATOM      2  C   GLY A   3       1.758   7.754  20.172  0.00  0.00    +0.000 C 
ATOM      3  O   GLY A   3       2.539   7.969  19.250  0.00  0.00    +0.000 OA
ATOM      4  H   ALA A   4       0.781   6.336  21.230  0.00  0.00    +0.000 HD
ENDROOT
BRANCH   1   6
ATOM      5  CB  ALA A   4       2.240   4.194  21.383  0.00  0.00    +0.000 C 
ATOM      6  CA  ALA A   4       2.631   5.458  20.613  0.00  0.00    +0.000 C 
BRANCH   6   7
ATOM      7  C   ALA A   4       2.627   5.128  19.103  0.00  0.00    +0.000 C 
ATOM      8  O   ALA A   4       1.595   4.909  18.476  0.00  0.00    +0.000 OA
ATOM      9  N   LYS A   5       3.851   5.262  18.483  0.00  0.00    +0.000 N 
ATOM     10  H   LYS A   5       4.662   5.522  19.042  0.00  0.00    +0.000 HD
BRANCH   9  11
ATOM     11  CA  LYS A   5       4.072   5.073  17.047  0.00  0.00    +0.000 C 
BRANCH  11  12
ATOM     12  C   LYS A   5       4.572   3.631  16.836  0.00  0.00    +0.000 C 
ATOM     13  O   LYS A   5       4.007   2.645  17.295  0.00  0.00    +0.000 OA
BRANCH  12  14
ATOM     14  OXT LYS A   5       5.710   3.527  16.111  0.00  0.00    +0.000 OA
ATOM     15  HXT LYS A   5       6.117   4.376  15.856  0.00  0.00    +0.000 HD
ENDBRANCH  12  14
ENDBRANCH  11  12
BRANCH  11  16
ATOM     16  CB  LYS A   5       5.070   6.092  16.463  0.00  0.00    +0.000 C 
BRANCH  16  17
ATOM     17  CG  LYS A   5       5.774   6.886  17.563  0.00  0.00    +0.000 C 
BRANCH  17  18
ATOM     18  CD  LYS A   5       7.283   6.660  17.614  0.00  0.00    +0.000 C 
BRANCH  18  19
ATOM     19  CE  LYS A   5       7.554   5.374  18.397  0.00  0.00    +0.000 C 
BRANCH  19  20
ATOM     20  NZ  LYS A   5       6.834   5.361  19.659  0.00  0.00    +0.000 NA
ATOM     21  HZ1 LYS A   5       6.460   6.289  19.851  0.00  0.00    +0.000 HD
ATOM     22  HZ2 LYS A   5       7.493   5.160  20.411  0.00  0.00    +0.000 HD
ENDBRANCH  19  20
ENDBRANCH  18  19
ENDBRANCH  17  18
ENDBRANCH  16  17
ENDBRANCH  11  16
ENDBRANCH   9  11
ENDBRANCH   6   7
ENDBRANCH   1   6
BRANCH   2  23
ATOM     23  CA  GLY A   3       0.715   8.786  20.626  0.00  0.00    +0.000 C 
BRANCH  23  24
ATOM     24  N   GLY A   3       0.293   9.700  19.576  0.00  0.00    +0.000 N 
ATOM     25  C   ALA A   2      -0.149  10.981  19.842  0.00  0.00    +0.000 C 
ATOM     26  O   ALA A   2      -0.264  11.392  20.998  0.00  0.00    +0.000 OA
ATOM     27  H   GLY A   3       0.423   9.388  18.623  0.00  0.00    +0.000 HD
BRANCH  25  28
ATOM     28  CA  ALA A   2      -0.590  11.807  18.600  0.00  0.00    +0.000 C 
ATOM     29  CB  ALA A   2       0.207  13.089  18.410  0.00  0.00    +0.000 C 
BRANCH  28  30
ATOM     30  N   ALA A   2      -2.023  12.138  18.604  0.00  0.00    +0.000 N 
ATOM     31  C   CYS A   1      -2.964  11.169  18.311  0.00  0.00    +0.000 C 
ATOM     32  O   CYS A   1      -2.650  10.042  17.959  0.00  0.00    +0.000 OA
ATOM     33  H   ALA A   2      -2.300  13.108  18.693  0.00  0.00    +0.000 HD
BRANCH  31  34
ATOM     34  CA  CYS A   1      -4.439  11.625  18.422  0.00  0.00    +0.000 C 
BRANCH  34  35
ATOM     35  N   CYS A   1      -4.507  12.849  19.256  0.00  0.00    +0.000 NA
ATOM     36  H1  CYS A   1      -4.088  12.653  20.168  0.00  0.00    +0.000 HD
ATOM     37  H2  CYS A   1      -5.478  13.095  19.440  0.00  0.00    +0.000 HD
ENDBRANCH  34  35
BRANCH  34  38
ATOM     38  CB  CYS A   1      -5.011  11.913  17.021  0.00  0.00    +0.000 C 
BRANCH  38  39
ATOM     39  SG  CYS A   1      -6.527  12.930  17.086  0.00  0.00    +0.000 S 
ATOM     40  HG  CYS A   1      -6.039  13.865  17.921  0.00  0.00    +0.000 HD
ENDBRANCH  38  39
ENDBRANCH  34  38
ENDBRANCH  31  34
ENDBRANCH  28  30
ENDBRANCH  25  28
ENDBRANCH  23  24
ENDBRANCH   2  23
TORSDOF 18
ENDMDL
MODEL 9
REMARK VINA RESULT:      -5.9      5.614      8.613
REMARK  Name = 
REMARK  20 active torsions:
REMARK  status: ('A' for Active; 'I' for Inactive)
REMARK    1  A    between atoms: CB_1  and  CA_2
REMARK    2  A    between atoms: CA_2  and  N_3
REMARK    3  A    between atoms: CA_2  and  C_19
REMARK    4  A    between atoms: C_4  and  CA_6
REMARK    5  A    between atoms: CA_6  and  N_7
REMARK    6  A    between atoms: C_8  and  CA_10
REMARK    7  A    between atoms: CA_10  and  CB_11
REMARK    8  A    between atoms: CA_10  and  N_12
REMARK    9  A    between atoms: C_13  and  CA_15
REMARK   10  A    between atoms: CA_15  and  N_16
REMARK   11  A    between atoms: CA_15  and  CB_17
REMARK   12  A    between atoms: CB_17  and  SG_18
REMARK   13  A    between atoms: N_21  and  CA_22
REMARK   14  A    between atoms: CA_22  and  CB_23
REMARK   15  A    between atoms: CA_22  and  C_28
REMARK   16  A    between atoms: CB_23  and  CG_24
REMARK   17  A    between atoms: CG_24  and  CD_25
REMARK   18  A    between atoms: CD_25  and  CE_26
REMARK   19  A    between atoms: CE_26  and  NZ_27
REMARK   20  A    between atoms: C_28  and  OXT_30
REMARK                            x       y       z     vdW  Elec       q    Type
REMARK                         _______ _______ _______ _____ _____    ______ ____
ROOT
ATOM      1  N   ALA A   4       3.104   4.667  19.719  0.00  0.00    +0.000 N 
ATOM      2  C   GLY A   3       3.492   3.649  18.871  0.00  0.00    +0.000 C 
ATOM      3  O   GLY A   3       2.829   3.266  17.912  0.00  0.00    +0.000 OA
ATOM      4  H   ALA A   4       3.883   5.194  20.114  0.00  0.00    +0.000 HD
ENDROOT
BRANCH   1   6
ATOM      5  CB  ALA A   4       0.777   4.881  20.568  0.00  0.00    +0.000 C 
ATOM      6  CA  ALA A   4       1.824   5.371  19.564  0.00  0.00    +0.000 C 
BRANCH   6   7
ATOM      7  C   ALA A   4       2.030   6.888  19.779  0.00  0.00    +0.000 C 
ATOM      8  O   ALA A   4       2.748   7.568  19.052  0.00  0.00    +0.000 OA
ATOM      9  N   LYS A   5       1.218   7.446  20.744  0.00  0.00    +0.000 N 
ATOM     10  H   LYS A   5       0.584   6.843  21.265  0.00  0.00    +0.000 HD
BRANCH   9  11
ATOM     11  CA  LYS A   5       1.187   8.875  21.067  0.00  0.00    +0.000 C 
BRANCH  11  12
ATOM     12  C   LYS A   5       0.535   9.027  22.455  0.00  0.00    +0.000 C 
ATOM     13  O   LYS A   5       1.088   9.568  23.406  0.00  0.00    +0.000 OA
BRANCH  12  14
ATOM     14  OXT LYS A   5      -0.705   8.495  22.560  0.00  0.00    +0.000 OA
ATOM     15  HXT LYS A   5      -0.902   7.778  21.928  0.00  0.00    +0.000 HD
ENDBRANCH  12  14
ENDBRANCH  11  12
BRANCH  11  16
ATOM     16  CB  LYS A   5       0.429   9.704  20.012  0.00  0.00    +0.000 C 
BRANCH  16  17
ATOM     17  CG  LYS A   5       0.519  11.202  20.301  0.00  0.00    +0.000 C 
BRANCH  17  18
ATOM     18  CD  LYS A   5      -0.799  11.818  20.763  0.00  0.00    +0.000 C 
BRANCH  18  19
ATOM     19  CE  LYS A   5      -0.570  12.492  22.117  0.00  0.00    +0.000 C 
BRANCH  19  20
ATOM     20  NZ  LYS A   5      -1.168  11.725  23.197  0.00  0.00    +0.000 NA
ATOM     21  HZ1 LYS A   5      -0.854  10.757  23.146  0.00  0.00    +0.000 HD
ATOM     22  HZ2 LYS A   5      -2.178  11.703  23.064  0.00  0.00    +0.000 HD
ENDBRANCH  19  20
ENDBRANCH  18  19
ENDBRANCH  17  18
ENDBRANCH  16  17
ENDBRANCH  11  16
ENDBRANCH   9  11
ENDBRANCH   6   7
ENDBRANCH   1   6
BRANCH   2  23
ATOM     23  CA  GLY A   3       4.858   3.044  19.223  0.00  0.00    +0.000 C 
BRANCH  23  24
ATOM     24  N   GLY A   3       5.980   3.696  18.564  0.00  0.00    +0.000 N 
ATOM     25  C   ALA A   2       6.393   4.971  18.894  0.00  0.00    +0.000 C 
ATOM     26  O   ALA A   2       5.786   5.646  19.728  0.00  0.00    +0.000 OA
ATOM     27  H   GLY A   3       6.510   3.136  17.910  0.00  0.00    +0.000 HD
BRANCH  25  28
ATOM     28  CA  ALA A   2       7.589   5.521  18.065  0.00  0.00    +0.000 C 
ATOM     29  CB  ALA A   2       7.803   7.019  18.229  0.00  0.00    +0.000 C 
BRANCH  28  30
ATOM     30  N   ALA A   2       7.491   5.212  16.631  0.00  0.00    +0.000 N 
ATOM     31  C   CYS A   1       6.349   5.535  15.924  0.00  0.00    +0.000 C 
ATOM     32  O   CYS A   1       5.358   6.002  16.466  0.00  0.00    +0.000 OA
ATOM     33  H   ALA A   2       8.213   4.645  16.203  0.00  0.00    +0.000 HD
BRANCH  31  34
ATOM     34  CA  CYS A   1       6.399   5.225  14.408  0.00  0.00    +0.000 C 
BRANCH  34  35
ATOM     35  N   CYS A   1       7.765   5.500  13.902  0.00  0.00    +0.000 NA
ATOM     36  H1  CYS A   1       7.701   6.124  13.093  0.00  0.00    +0.000 HD
ATOM     37  H2  CYS A   1       8.193   4.641  13.562  0.00  0.00    +0.000 HD
ENDBRANCH  34  35
BRANCH  34  38
ATOM     38  CB  CYS A   1       6.034   3.750  14.156  0.00  0.00    +0.000 C 
BRANCH  38  39
ATOM     39  SG  CYS A   1       6.126   3.305  12.387  0.00  0.00    +0.000 S 
ATOM     40  HG  CYS A   1       5.175   2.356  12.426  0.00  0.00    +0.000 HD
ENDBRANCH  38  39
ENDBRANCH  34  38
ENDBRANCH  31  34
ENDBRANCH  28  30
ENDBRANCH  25  28
ENDBRANCH  23  24
ENDBRANCH   2  23
TORSDOF 18
ENDMDL
