MODEL 1
REMARK VINA RESULT:      -8.9      0.000      0.000
REMARK  Name = 
REMARK  5 active torsions:
REMARK  status: ('A' for Active; 'I' for Inactive)
REMARK    1  A    between atoms: C_1  and  C_2
REMARK    2  A    between atoms: C_5  and  C_6
REMARK    3  A    between atoms: C_12  and  C_13
REMARK    4  A    between atoms: C_19  and  S_20
REMARK    5  A    between atoms: S_20  and  N_23
REMARK                            x       y       z     vdW  Elec       q    Type
REMARK                         _______ _______ _______ _____ _____    ______ ____
ROOT
ATOM      1  C   UNL     1       2.802   3.189  21.218  0.00  0.00    +0.000 C 
ATOM      2  C   UNL     1       2.487   4.415  20.409  0.00  0.00    +0.000 A 
ATOM      3  C   UNL     1       1.390   5.206  20.783  0.00  0.00    +0.000 A 
ATOM      4  C   UNL     1       1.216   6.484  20.246  0.00  0.00    +0.000 A 
ATOM      5  C   UNL     1       2.173   7.018  19.378  0.00  0.00    +0.000 A 
ATOM      6  C   UNL     1       3.267   6.230  19.003  0.00  0.00    +0.000 A 
ATOM      7  C   UNL     1       3.362   4.901  19.425  0.00  0.00    +0.000 A 
ENDROOT
BRANCH   5   8
ATOM      8  C   UNL     1       1.998   8.431  18.939  0.00  0.00    +0.000 C 
ATOM      9  O   UNL     1       2.554   8.755  17.889  0.00  0.00    +0.000 OA
ATOM     10  N   UNL     1       1.260   9.338  19.706  0.00  0.00    +0.000 N 
ATOM     11  C   UNL     1       0.940  10.637  19.108  0.00  0.00    +0.000 C 
ATOM     12  C   UNL     1       1.025  11.754  20.140  0.00  0.00    +0.000 C 
ATOM     13  C   UNL     1       0.146  11.456  21.355  0.00  0.00    +0.000 C 
ATOM     14  C   UNL     1       0.513  10.107  21.969  0.00  0.00    +0.000 C 
ATOM     15  C   UNL     1       0.521   9.007  20.922  0.00  0.00    +0.000 C 
BRANCH  14  16
ATOM     16  C   UNL     1      -0.403   9.682  23.116  0.00  0.00    +0.000 C 
ATOM     17  F   UNL     1       0.287   9.389  24.236  0.00  0.00    +0.000 F 
ATOM     18  F   UNL     1      -1.302  10.637  23.436  0.00  0.00    +0.000 F 
ATOM     19  F   UNL     1      -1.103   8.579  22.769  0.00  0.00    +0.000 F 
ENDBRANCH  14  16
ENDBRANCH   5   8
BRANCH   7  20
ATOM     20  S   UNL     1       4.481   3.808  18.534  0.00  0.00    +0.000 S 
ATOM     21  O   UNL     1       5.432   3.311  19.508  0.00  0.00    +0.000 OA
ATOM     22  O   UNL     1       3.670   2.892  17.757  0.00  0.00    +0.000 OA
BRANCH  20  23
ATOM     23  N   UNL     1       5.245   4.852  17.470  0.00  0.00    +0.000 NA
ATOM     24  C   UNL     1       5.064   4.603  16.016  0.00  0.00    +0.000 C 
ATOM     25  C   UNL     1       6.215   3.749  15.472  0.00  0.00    +0.000 C 
ATOM     26  O   UNL     1       7.466   4.414  15.689  0.00  0.00    +0.000 OA
ATOM     27  C   UNL     1       7.721   4.580  17.088  0.00  0.00    +0.000 C 
ATOM     28  C   UNL     1       6.600   5.348  17.808  0.00  0.00    +0.000 C 
ENDBRANCH  20  23
ENDBRANCH   7  20
TORSDOF 4
ENDMDL
MODEL 2
REMARK VINA RESULT:      -7.8      3.924      7.936
REMARK  Name = 
REMARK  5 active torsions:
REMARK  status: ('A' for Active; 'I' for Inactive)
REMARK    1  A    between atoms: C_1  and  C_2
REMARK    2  A    between atoms: C_5  and  C_6
REMARK    3  A    between atoms: C_12  and  C_13
REMARK    4  A    between atoms: C_19  and  S_20
REMARK    5  A    between atoms: S_20  and  N_23
REMARK                            x       y       z     vdW  Elec       q    Type
REMARK                         _______ _______ _______ _____ _____    ______ ____
ROOT
ATOM      1  C   UNL     1      -0.936  10.267  23.008  0.00  0.00    +0.000 C 
ATOM      2  C   UNL     1       0.084   9.832  21.994  0.00  0.00    +0.000 A 
ATOM      3  C   UNL     1       0.654   8.556  22.115  0.00  0.00    +0.000 A 
ATOM      4  C   UNL     1       1.391   8.002  21.066  0.00  0.00    +0.000 A 
ATOM      5  C   UNL     1       1.510   8.685  19.853  0.00  0.00    +0.000 A 
ATOM      6  C   UNL     1       0.942   9.958  19.730  0.00  0.00    +0.000 A 
ATOM      7  C   UNL     1       0.334  10.572  20.828  0.00  0.00    +0.000 A 
ENDROOT
BRANCH   5   8
ATOM      8  C   UNL     1       2.197   7.989  18.729  0.00  0.00    +0.000 C 
ATOM      9  O   UNL     1       2.409   8.654  17.714  0.00  0.00    +0.000 OA
ATOM     10  N   UNL     1       2.553   6.640  18.827  0.00  0.00    +0.000 N 
ATOM     11  C   UNL     1       3.421   6.085  17.786  0.00  0.00    +0.000 C 
ATOM     12  C   UNL     1       3.014   4.660  17.431  0.00  0.00    +0.000 C 
ATOM     13  C   UNL     1       2.975   3.768  18.673  0.00  0.00    +0.000 C 
ATOM     14  C   UNL     1       2.048   4.360  19.733  0.00  0.00    +0.000 C 
ATOM     15  C   UNL     1       2.394   5.812  20.020  0.00  0.00    +0.000 C 
BRANCH  14  16
ATOM     16  C   UNL     1       2.050   3.590  21.053  0.00  0.00    +0.000 C 
ATOM     17  F   UNL     1       0.843   3.059  21.333  0.00  0.00    +0.000 F 
ATOM     18  F   UNL     1       2.943   2.577  21.055  0.00  0.00    +0.000 F 
ATOM     19  F   UNL     1       2.380   4.412  22.073  0.00  0.00    +0.000 F 
ENDBRANCH  14  16
ENDBRANCH   5   8
BRANCH   7  20
ATOM     20  S   UNL     1       0.079  12.354  20.768  0.00  0.00    +0.000 S 
ATOM     21  O   UNL     1      -1.153  12.568  20.036  0.00  0.00    +0.000 OA
ATOM     22  O   UNL     1       0.238  12.863  22.115  0.00  0.00    +0.000 OA
BRANCH  20  23
ATOM     23  N   UNL     1       1.383  12.881  19.859  0.00  0.00    +0.000 NA
ATOM     24  C   UNL     1       2.568  13.398  20.593  0.00  0.00    +0.000 C 
ATOM     25  C   UNL     1       2.485  14.922  20.736  0.00  0.00    +0.000 C 
ATOM     26  O   UNL     1       2.423  15.535  19.441  0.00  0.00    +0.000 OA
ATOM     27  C   UNL     1       1.238  15.136  18.743  0.00  0.00    +0.000 C 
ATOM     28  C   UNL     1       1.123  13.610  18.595  0.00  0.00    +0.000 C 
ENDBRANCH  20  23
ENDBRANCH   7  20
TORSDOF 4
ENDMDL
MODEL 3
REMARK VINA RESULT:      -7.7      3.884      8.008
REMARK  Name = 
REMARK  5 active torsions:
REMARK  status: ('A' for Active; 'I' for Inactive)
REMARK    1  A    between atoms: C_1  and  C_2
REMARK    2  A    between atoms: C_5  and  C_6
REMARK    3  A    between atoms: C_12  and  C_13
REMARK    4  A    between atoms: C_19  and  S_20
REMARK    5  A    between atoms: S_20  and  N_23
REMARK                            x       y       z     vdW  Elec       q    Type
REMARK                         _______ _______ _______ _____ _____    ______ ____
ROOT
ATOM      1  C   UNL     1      -0.786  10.225  22.822  0.00  0.00    +0.000 C 
ATOM      2  C   UNL     1       0.176   9.823  21.740  0.00  0.00    +0.000 A 
ATOM      3  C   UNL     1       1.046   8.749  21.977  0.00  0.00    +0.000 A 
ATOM      4  C   UNL     1       1.760   8.165  20.927  0.00  0.00    +0.000 A 
ATOM      5  C   UNL     1       1.561   8.601  19.615  0.00  0.00    +0.000 A 
ATOM      6  C   UNL     1       0.694   9.673  19.377  0.00  0.00    +0.000 A 
ATOM      7  C   UNL     1       0.096  10.351  20.442  0.00  0.00    +0.000 A 
ENDROOT
BRANCH   5   8
ATOM      8  C   UNL     1       2.253   7.856  18.525  0.00  0.00    +0.000 C 
ATOM      9  O   UNL     1       2.473   8.478  17.485  0.00  0.00    +0.000 OA
ATOM     10  N   UNL     1       2.603   6.511  18.681  0.00  0.00    +0.000 N 
ATOM     11  C   UNL     1       3.476   5.911  17.668  0.00  0.00    +0.000 C 
ATOM     12  C   UNL     1       3.066   4.474  17.371  0.00  0.00    +0.000 C 
ATOM     13  C   UNL     1       3.016   3.635  18.649  0.00  0.00    +0.000 C 
ATOM     14  C   UNL     1       2.086   4.273  19.678  0.00  0.00    +0.000 C 
ATOM     15  C   UNL     1       2.434   5.734  19.906  0.00  0.00    +0.000 C 
BRANCH  14  16
ATOM     16  C   UNL     1       2.077   3.558  21.028  0.00  0.00    +0.000 C 
ATOM     17  F   UNL     1       2.958   2.539  21.070  0.00  0.00    +0.000 F 
ATOM     18  F   UNL     1       2.374   4.388  22.050  0.00  0.00    +0.000 F 
ATOM     19  F   UNL     1       0.851   3.046  21.277  0.00  0.00    +0.000 F 
ENDBRANCH  14  16
ENDBRANCH   5   8
BRANCH   7  20
ATOM     20  S   UNL     1      -0.584  11.989  20.130  0.00  0.00    +0.000 S 
ATOM     21  O   UNL     1      -0.432  12.232  18.710  0.00  0.00    +0.000 OA
ATOM     22  O   UNL     1      -1.889  12.047  20.755  0.00  0.00    +0.000 OA
BRANCH  20  23
ATOM     23  N   UNL     1       0.448  12.986  20.994  0.00  0.00    +0.000 NA
ATOM     24  C   UNL     1      -0.059  14.328  21.382  0.00  0.00    +0.000 C 
ATOM     25  C   UNL     1       0.348  15.376  20.340  0.00  0.00    +0.000 C 
ATOM     26  O   UNL     1       1.777  15.423  20.224  0.00  0.00    +0.000 OA
ATOM     27  C   UNL     1       2.292  14.173  19.753  0.00  0.00    +0.000 C 
ATOM     28  C   UNL     1       1.890  12.991  20.649  0.00  0.00    +0.000 C 
ENDBRANCH  20  23
ENDBRANCH   7  20
TORSDOF 4
ENDMDL
MODEL 4
REMARK VINA RESULT:      -7.7      1.293      1.795
REMARK  Name = 
REMARK  5 active torsions:
REMARK  status: ('A' for Active; 'I' for Inactive)
REMARK    1  A    between atoms: C_1  and  C_2
REMARK    2  A    between atoms: C_5  and  C_6
REMARK    3  A    between atoms: C_12  and  C_13
REMARK    4  A    between atoms: C_19  and  S_20
REMARK    5  A    between atoms: S_20  and  N_23
REMARK                            x       y       z     vdW  Elec       q    Type
REMARK                         _______ _______ _______ _____ _____    ______ ____
ROOT
ATOM      1  C   UNL     1       2.600   2.886  19.581  0.00  0.00    +0.000 C 
ATOM      2  C   UNL     1       2.656   4.240  18.934  0.00  0.00    +0.000 A 
ATOM      3  C   UNL     1       1.475   4.785  18.408  0.00  0.00    +0.000 A 
ATOM      4  C   UNL     1       1.411   6.133  18.047  0.00  0.00    +0.000 A 
ATOM      5  C   UNL     1       2.505   6.974  18.271  0.00  0.00    +0.000 A 
ATOM      6  C   UNL     1       3.684   6.432  18.796  0.00  0.00    +0.000 A 
ATOM      7  C   UNL     1       3.794   5.056  19.017  0.00  0.00    +0.000 A 
ENDROOT
BRANCH   5   8
ATOM      8  C   UNL     1       2.334   8.426  17.985  0.00  0.00    +0.000 C 
ATOM      9  O   UNL     1       2.892   8.859  16.977  0.00  0.00    +0.000 OA
ATOM     10  N   UNL     1       1.596   9.248  18.844  0.00  0.00    +0.000 N 
ATOM     11  C   UNL     1       1.279  10.603  18.387  0.00  0.00    +0.000 C 
ATOM     12  C   UNL     1       1.365  11.604  19.533  0.00  0.00    +0.000 C 
ATOM     13  C   UNL     1       0.483  11.179  20.708  0.00  0.00    +0.000 C 
ATOM     14  C   UNL     1       0.847   9.772  21.175  0.00  0.00    +0.000 C 
ATOM     15  C   UNL     1       0.854   8.789  20.016  0.00  0.00    +0.000 C 
BRANCH  14  16
ATOM     16  C   UNL     1      -0.072   9.228  22.268  0.00  0.00    +0.000 C 
ATOM     17  F   UNL     1      -0.686   8.087  21.895  0.00  0.00    +0.000 F 
ATOM     18  F   UNL     1       0.591   8.969  23.415  0.00  0.00    +0.000 F 
ATOM     19  F   UNL     1      -1.034  10.131  22.561  0.00  0.00    +0.000 F 
ENDBRANCH  14  16
ENDBRANCH   5   8
BRANCH   7  20
ATOM     20  S   UNL     1       5.444   4.358  19.202  0.00  0.00    +0.000 S 
ATOM     21  O   UNL     1       6.250   5.374  19.848  0.00  0.00    +0.000 OA
ATOM     22  O   UNL     1       5.299   3.044  19.792  0.00  0.00    +0.000 OA
BRANCH  20  23
ATOM     23  N   UNL     1       5.940   4.160  17.614  0.00  0.00    +0.000 NA
ATOM     24  C   UNL     1       7.314   4.604  17.264  0.00  0.00    +0.000 C 
ATOM     25  C   UNL     1       7.291   6.038  16.721  0.00  0.00    +0.000 C 
ATOM     26  O   UNL     1       6.457   6.109  15.557  0.00  0.00    +0.000 OA
ATOM     27  C   UNL     1       5.100   5.785  15.880  0.00  0.00    +0.000 C 
ATOM     28  C   UNL     1       4.961   4.397  16.527  0.00  0.00    +0.000 C 
ENDBRANCH  20  23
ENDBRANCH   7  20
TORSDOF 4
ENDMDL
MODEL 5
REMARK VINA RESULT:      -7.6      0.967      1.363
REMARK  Name = 
REMARK  5 active torsions:
REMARK  status: ('A' for Active; 'I' for Inactive)
REMARK    1  A    between atoms: C_1  and  C_2
REMARK    2  A    between atoms: C_5  and  C_6
REMARK    3  A    between atoms: C_12  and  C_13
REMARK    4  A    between atoms: C_19  and  S_20
REMARK    5  A    between atoms: S_20  and  N_23
REMARK                            x       y       z     vdW  Elec       q    Type
REMARK                         _______ _______ _______ _____ _____    ______ ____
ROOT
ATOM      1  C   UNL     1       3.626   3.583  20.517  0.00  0.00    +0.000 C 
ATOM      2  C   UNL     1       3.011   4.771  19.834  0.00  0.00    +0.000 A 
ATOM      3  C   UNL     1       2.085   5.551  20.543  0.00  0.00    +0.000 A 
ATOM      4  C   UNL     1       1.693   6.804  20.064  0.00  0.00    +0.000 A 
ATOM      5  C   UNL     1       2.273   7.326  18.906  0.00  0.00    +0.000 A 
ATOM      6  C   UNL     1       3.197   6.550  18.197  0.00  0.00    +0.000 A 
ATOM      7  C   UNL     1       3.475   5.240  18.596  0.00  0.00    +0.000 A 
ENDROOT
BRANCH   5   8
ATOM      8  C   UNL     1       1.911   8.718  18.516  0.00  0.00    +0.000 C 
ATOM      9  O   UNL     1       2.347   9.120  17.436  0.00  0.00    +0.000 OA
ATOM     10  N   UNL     1       1.136   9.524  19.356  0.00  0.00    +0.000 N 
ATOM     11  C   UNL     1       0.630  10.788  18.815  0.00  0.00    +0.000 C 
ATOM     12  C   UNL     1       0.667  11.890  19.866  0.00  0.00    +0.000 C 
ATOM     13  C   UNL     1      -0.080  11.474  21.134  0.00  0.00    +0.000 C 
ATOM     14  C   UNL     1       0.479  10.166  21.686  0.00  0.00    +0.000 C 
ATOM     15  C   UNL     1       0.531   9.090  20.614  0.00  0.00    +0.000 C 
BRANCH  14  16
ATOM     16  C   UNL     1      -0.296   9.620  22.885  0.00  0.00    +0.000 C 
ATOM     17  F   UNL     1       0.510   9.349  23.931  0.00  0.00    +0.000 F 
ATOM     18  F   UNL     1      -1.241  10.481  23.320  0.00  0.00    +0.000 F 
ATOM     19  F   UNL     1      -0.929   8.474  22.549  0.00  0.00    +0.000 F 
ENDBRANCH  14  16
ENDBRANCH   5   8
BRANCH   7  20
ATOM     20  S   UNL     1       4.254   4.139  17.403  0.00  0.00    +0.000 S 
ATOM     21  O   UNL     1       3.942   2.788  17.825  0.00  0.00    +0.000 OA
ATOM     22  O   UNL     1       3.892   4.602  16.079  0.00  0.00    +0.000 OA
BRANCH  20  23
ATOM     23  N   UNL     1       5.885   4.446  17.629  0.00  0.00    +0.000 NA
ATOM     24  C   UNL     1       6.255   5.688  18.356  0.00  0.00    +0.000 C 
ATOM     25  C   UNL     1       6.526   6.827  17.366  0.00  0.00    +0.000 C 
ATOM     26  O   UNL     1       7.589   6.461  16.476  0.00  0.00    +0.000 OA
ATOM     27  C   UNL     1       7.226   5.324  15.685  0.00  0.00    +0.000 C 
ATOM     28  C   UNL     1       6.833   4.109  16.540  0.00  0.00    +0.000 C 
ENDBRANCH  20  23
ENDBRANCH   7  20
TORSDOF 4
ENDMDL
MODEL 6
REMARK VINA RESULT:      -7.6      1.523      2.242
REMARK  Name = 
REMARK  5 active torsions:
REMARK  status: ('A' for Active; 'I' for Inactive)
REMARK    1  A    between atoms: C_1  and  C_2
REMARK    2  A    between atoms: C_5  and  C_6
REMARK    3  A    between atoms: C_12  and  C_13
REMARK    4  A    between atoms: C_19  and  S_20
REMARK    5  A    between atoms: S_20  and  N_23
REMARK                            x       y       z     vdW  Elec       q    Type
REMARK                         _______ _______ _______ _____ _____    ______ ____
ROOT
ATOM      1  C   UNL     1       2.601   2.882  21.633  0.00  0.00    +0.000 C 
ATOM      2  C   UNL     1       2.464   4.058  20.708  0.00  0.00    +0.000 A 
ATOM      3  C   UNL     1       1.255   4.768  20.695  0.00  0.00    +0.000 A 
ATOM      4  C   UNL     1       1.166   6.013  20.068  0.00  0.00    +0.000 A 
ATOM      5  C   UNL     1       2.303   6.599  19.505  0.00  0.00    +0.000 A 
ATOM      6  C   UNL     1       3.510   5.892  19.517  0.00  0.00    +0.000 A 
ATOM      7  C   UNL     1       3.562   4.586  20.012  0.00  0.00    +0.000 A 
ENDROOT
BRANCH   5   8
ATOM      8  C   UNL     1       2.175   7.982  18.965  0.00  0.00    +0.000 C 
ATOM      9  O   UNL     1       2.761   8.219  17.908  0.00  0.00    +0.000 OA
ATOM     10  N   UNL     1       1.444   8.959  19.650  0.00  0.00    +0.000 N 
ATOM     11  C   UNL     1       1.172  10.220  18.957  0.00  0.00    +0.000 C 
ATOM     12  C   UNL     1       1.264  11.404  19.911  0.00  0.00    +0.000 C 
ATOM     13  C   UNL     1       0.351  11.213  21.123  0.00  0.00    +0.000 C 
ATOM     14  C   UNL     1       0.670   9.902  21.837  0.00  0.00    +0.000 C 
ATOM     15  C   UNL     1       0.671   8.731  20.869  0.00  0.00    +0.000 C 
BRANCH  14  16
ATOM     16  C   UNL     1      -0.282   9.580  22.989  0.00  0.00    +0.000 C 
ATOM     17  F   UNL     1       0.377   9.330  24.138  0.00  0.00    +0.000 F 
ATOM     18  F   UNL     1      -1.149  10.586  23.235  0.00  0.00    +0.000 F 
ATOM     19  F   UNL     1      -1.018   8.485  22.694  0.00  0.00    +0.000 F 
ENDBRANCH  14  16
ENDBRANCH   5   8
BRANCH   7  20
ATOM     20  S   UNL     1       4.971   3.562  19.554  0.00  0.00    +0.000 S 
ATOM     21  O   UNL     1       6.056   4.472  19.244  0.00  0.00    +0.000 OA
ATOM     22  O   UNL     1       5.125   2.549  20.577  0.00  0.00    +0.000 OA
BRANCH  20  23
ATOM     23  N   UNL     1       4.439   2.809  18.156  0.00  0.00    +0.000 NA
ATOM     24  C   UNL     1       4.060   3.678  17.010  0.00  0.00    +0.000 C 
ATOM     25  C   UNL     1       2.553   3.958  17.028  0.00  0.00    +0.000 C 
ATOM     26  O   UNL     1       1.823   2.725  16.953  0.00  0.00    +0.000 OA
ATOM     27  C   UNL     1       2.088   1.904  18.096  0.00  0.00    +0.000 C 
ATOM     28  C   UNL     1       3.585   1.604  18.275  0.00  0.00    +0.000 C 
ENDBRANCH  20  23
ENDBRANCH   7  20
TORSDOF 4
ENDMDL
MODEL 7
REMARK VINA RESULT:      -7.5      3.783      7.769
REMARK  Name = 
REMARK  5 active torsions:
REMARK  status: ('A' for Active; 'I' for Inactive)
REMARK    1  A    between atoms: C_1  and  C_2
REMARK    2  A    between atoms: C_5  and  C_6
REMARK    3  A    between atoms: C_12  and  C_13
REMARK    4  A    between atoms: C_19  and  S_20
REMARK    5  A    between atoms: S_20  and  N_23
REMARK                            x       y       z     vdW  Elec       q    Type
REMARK                         _______ _______ _______ _____ _____    ______ ____
ROOT
ATOM      1  C   UNL     1      -0.553  10.372  22.376  0.00  0.00    +0.000 C 
ATOM      2  C   UNL     1       0.440   9.812  21.398  0.00  0.00    +0.000 A 
ATOM      3  C   UNL     1       1.003   8.553  21.655  0.00  0.00    +0.000 A 
ATOM      4  C   UNL     1       1.711   7.872  20.662  0.00  0.00    +0.000 A 
ATOM      5  C   UNL     1       1.808   8.409  19.375  0.00  0.00    +0.000 A 
ATOM      6  C   UNL     1       1.247   9.665  19.117  0.00  0.00    +0.000 A 
ATOM      7  C   UNL     1       0.670  10.409  20.149  0.00  0.00    +0.000 A 
ENDROOT
BRANCH   5   8
ATOM      8  C   UNL     1       2.464   7.579  18.325  0.00  0.00    +0.000 C 
ATOM      9  O   UNL     1       2.716   8.139  17.257  0.00  0.00    +0.000 OA
ATOM     10  N   UNL     1       2.748   6.228  18.548  0.00  0.00    +0.000 N 
ATOM     11  C   UNL     1       3.591   5.537  17.569  0.00  0.00    +0.000 C 
ATOM     12  C   UNL     1       3.112   4.109  17.340  0.00  0.00    +0.000 C 
ATOM     13  C   UNL     1       3.020   3.337  18.657  0.00  0.00    +0.000 C 
ATOM     14  C   UNL     1       2.120   4.068  19.650  0.00  0.00    +0.000 C 
ATOM     15  C   UNL     1       2.539   5.521  19.809  0.00  0.00    +0.000 C 
BRANCH  14  16
ATOM     16  C   UNL     1       2.074   3.421  21.033  0.00  0.00    +0.000 C 
ATOM     17  F   UNL     1       2.375   4.296  22.014  0.00  0.00    +0.000 F 
ATOM     18  F   UNL     1       0.860   2.903  21.317  0.00  0.00    +0.000 F 
ATOM     19  F   UNL     1       2.965   2.407  21.104  0.00  0.00    +0.000 F 
ENDBRANCH  14  16
ENDBRANCH   5   8
BRANCH   7  20
ATOM     20  S   UNL     1       0.428  12.174  19.889  0.00  0.00    +0.000 S 
ATOM     21  O   UNL     1      -0.204  12.315  18.592  0.00  0.00    +0.000 OA
ATOM     22  O   UNL     1      -0.197  12.710  21.079  0.00  0.00    +0.000 OA
BRANCH  20  23
ATOM     23  N   UNL     1       1.999  12.754  19.824  0.00  0.00    +0.000 NA
ATOM     24  C   UNL     1       2.432  13.681  20.902  0.00  0.00    +0.000 C 
ATOM     25  C   UNL     1       2.237  15.138  20.465  0.00  0.00    +0.000 C 
ATOM     26  O   UNL     1       2.996  15.400  19.277  0.00  0.00    +0.000 OA
ATOM     27  C   UNL     1       2.536  14.593  18.188  0.00  0.00    +0.000 C 
ATOM     28  C   UNL     1       2.581  13.090  18.504  0.00  0.00    +0.000 C 
ENDBRANCH  20  23
ENDBRANCH   7  20
TORSDOF 4
ENDMDL
MODEL 8
REMARK VINA RESULT:      -7.5      4.104      8.040
REMARK  Name = 
REMARK  5 active torsions:
REMARK  status: ('A' for Active; 'I' for Inactive)
REMARK    1  A    between atoms: C_1  and  C_2
REMARK    2  A    between atoms: C_5  and  C_6
REMARK    3  A    between atoms: C_12  and  C_13
REMARK    4  A    between atoms: C_19  and  S_20
REMARK    5  A    between atoms: S_20  and  N_23
REMARK                            x       y       z     vdW  Elec       q    Type
REMARK                         _______ _______ _______ _____ _____    ______ ____
ROOT
ATOM      1  C   UNL     1       0.551   8.640  21.663  0.00  0.00    +0.000 C 
ATOM      2  C   UNL     1       1.427   7.952  20.656  0.00  0.00    +0.000 A 
ATOM      3  C   UNL     1       2.078   6.766  21.026  0.00  0.00    +0.000 A 
ATOM      4  C   UNL     1       2.676   5.950  20.063  0.00  0.00    +0.000 A 
ATOM      5  C   UNL     1       2.572   6.271  18.707  0.00  0.00    +0.000 A 
ATOM      6  C   UNL     1       1.923   7.454  18.335  0.00  0.00    +0.000 A 
ATOM      7  C   UNL     1       1.457   8.342  19.308  0.00  0.00    +0.000 A 
ENDROOT
BRANCH   5   8
ATOM      8  C   UNL     1       3.118   5.297  17.720  0.00  0.00    +0.000 C 
ATOM      9  O   UNL     1       2.384   4.359  17.407  0.00  0.00    +0.000 OA
ATOM     10  N   UNL     1       4.410   5.440  17.206  0.00  0.00    +0.000 N 
ATOM     11  C   UNL     1       4.796   4.587  16.079  0.00  0.00    +0.000 C 
ATOM     12  C   UNL     1       6.244   4.131  16.205  0.00  0.00    +0.000 C 
ATOM     13  C   UNL     1       7.190   5.323  16.364  0.00  0.00    +0.000 C 
ATOM     14  C   UNL     1       6.776   6.184  17.555  0.00  0.00    +0.000 C 
ATOM     15  C   UNL     1       5.306   6.561  17.481  0.00  0.00    +0.000 C 
BRANCH  14  16
ATOM     16  C   UNL     1       7.600   7.462  17.708  0.00  0.00    +0.000 C 
ATOM     17  F   UNL     1       8.445   7.400  18.756  0.00  0.00    +0.000 F 
ATOM     18  F   UNL     1       8.340   7.729  16.610  0.00  0.00    +0.000 F 
ATOM     19  F   UNL     1       6.784   8.522  17.904  0.00  0.00    +0.000 F 
ENDBRANCH  14  16
ENDBRANCH   5   8
BRANCH   7  20
ATOM     20  S   UNL     1       1.099  10.035  18.808  0.00  0.00    +0.000 S 
ATOM     21  O   UNL     1       1.722  10.895  19.793  0.00  0.00    +0.000 OA
ATOM     22  O   UNL     1       1.433  10.155  17.404  0.00  0.00    +0.000 OA
BRANCH  20  23
ATOM     23  N   UNL     1      -0.568  10.116  18.951  0.00  0.00    +0.000 NA
ATOM     24  C   UNL     1      -1.373   9.930  17.716  0.00  0.00    +0.000 C 
ATOM     25  C   UNL     1      -1.701  11.287  17.082  0.00  0.00    +0.000 C 
ATOM     26  O   UNL     1      -2.433  12.099  18.010  0.00  0.00    +0.000 OA
ATOM     27  C   UNL     1      -1.647  12.382  19.172  0.00  0.00    +0.000 C 
ATOM     28  C   UNL     1      -1.156  11.110  19.881  0.00  0.00    +0.000 C 
ENDBRANCH  20  23
ENDBRANCH   7  20
TORSDOF 4
ENDMDL
MODEL 9
REMARK VINA RESULT:      -7.4      2.978      4.186
REMARK  Name = 
REMARK  5 active torsions:
REMARK  status: ('A' for Active; 'I' for Inactive)
REMARK    1  A    between atoms: C_1  and  C_2
REMARK    2  A    between atoms: C_5  and  C_6
REMARK    3  A    between atoms: C_12  and  C_13
REMARK    4  A    between atoms: C_19  and  S_20
REMARK    5  A    between atoms: S_20  and  N_23
REMARK                            x       y       z     vdW  Elec       q    Type
REMARK                         _______ _______ _______ _____ _____    ______ ____
ROOT
ATOM      1  C   UNL     1       3.362   7.199  17.051  0.00  0.00    +0.000 C 
ATOM      2  C   UNL     1       2.724   7.665  18.328  0.00  0.00    +0.000 A 
ATOM      3  C   UNL     1       2.213   8.969  18.390  0.00  0.00    +0.000 A 
ATOM      4  C   UNL     1       1.378   9.359  19.440  0.00  0.00    +0.000 A 
ATOM      5  C   UNL     1       0.985   8.431  20.408  0.00  0.00    +0.000 A 
ATOM      6  C   UNL     1       1.495   7.129  20.348  0.00  0.00    +0.000 A 
ATOM      7  C   UNL     1       2.444   6.783  19.384  0.00  0.00    +0.000 A 
ENDROOT
BRANCH   5   8
ATOM      8  C   UNL     1      -0.006   8.871  21.429  0.00  0.00    +0.000 C 
ATOM      9  O   UNL     1      -0.762   8.006  21.874  0.00  0.00    +0.000 OA
ATOM     10  N   UNL     1      -0.081  10.208  21.832  0.00  0.00    +0.000 N 
ATOM     11  C   UNL     1      -0.915  10.526  22.993  0.00  0.00    +0.000 C 
ATOM     12  C   UNL     1      -1.649  11.847  22.798  0.00  0.00    +0.000 C 
ATOM     13  C   UNL     1      -0.676  12.980  22.470  0.00  0.00    +0.000 C 
ATOM     14  C   UNL     1       0.165  12.631  21.245  0.00  0.00    +0.000 C 
ATOM     15  C   UNL     1       0.824  11.270  21.398  0.00  0.00    +0.000 C 
BRANCH  14  16
ATOM     16  C   UNL     1       1.247  13.661  20.926  0.00  0.00    +0.000 C 
ATOM     17  F   UNL     1       1.562  14.417  21.997  0.00  0.00    +0.000 F 
ATOM     18  F   UNL     1       2.390  13.088  20.490  0.00  0.00    +0.000 F 
ATOM     19  F   UNL     1       0.824  14.495  19.949  0.00  0.00    +0.000 F 
ENDBRANCH  14  16
ENDBRANCH   5   8
BRANCH   7  20
ATOM     20  S   UNL     1       3.421   5.294  19.653  0.00  0.00    +0.000 S 
ATOM     21  O   UNL     1       4.811   5.689  19.542  0.00  0.00    +0.000 OA
ATOM     22  O   UNL     1       2.926   4.658  20.856  0.00  0.00    +0.000 OA
BRANCH  20  23
ATOM     23  N   UNL     1       2.995   4.334  18.348  0.00  0.00    +0.000 NA
ATOM     24  C   UNL     1       1.546   4.103  18.110  0.00  0.00    +0.000 C 
ATOM     25  C   UNL     1       1.094   2.801  18.781  0.00  0.00    +0.000 C 
ATOM     26  O   UNL     1       1.844   1.695  18.262  0.00  0.00    +0.000 OA
ATOM     27  C   UNL     1       3.237   1.835  18.562  0.00  0.00    +0.000 C 
ATOM     28  C   UNL     1       3.829   3.150  18.031  0.00  0.00    +0.000 C 
ENDBRANCH  20  23
ENDBRANCH   7  20
TORSDOF 4
ENDMDL
