MODEL 1
REMARK VINA RESULT:      -6.3      0.000      0.000
REMARK  Name = 
REMARK  1 active torsions:
REMARK  status: ('A' for Active; 'I' for Inactive)
REMARK    1  A    between atoms: C_8  and  C_9
REMARK                            x       y       z     vdW  Elec       q    Type
REMARK                         _______ _______ _______ _____ _____    ______ ____
ROOT
ATOM      1  O   UNL     1       4.931   3.976  19.353  0.00  0.00    +0.000 OA
ATOM      2  C   UNL     1       5.095   4.979  18.685  0.00  0.00    +0.000 C 
ATOM      3  N   UNL     1       6.281   5.660  18.621  0.00  0.00    +0.000 N 
ATOM      4  C   UNL     1       6.390   6.680  17.731  0.00  0.00    +0.000 C 
ATOM      5  S   UNL     1       7.770   7.571  17.523  0.00  0.00    +0.000 S 
ATOM      6  S   UNL     1       4.880   6.879  16.870  0.00  0.00    +0.000 S 
ATOM      7  C   UNL     1       4.095   5.635  17.789  0.00  0.00    +0.000 C 
ATOM      8  C   UNL     1       2.782   5.382  17.712  0.00  0.00    +0.000 C 
ATOM      9  H   UNL     1       7.059   5.359  19.185  0.00  0.00    +0.000 HD
ENDROOT
BRANCH   8  10
ATOM     10  C   UNL     1       2.096   4.408  18.569  0.00  0.00    +0.000 A 
ATOM     11  C   UNL     1       1.906   3.111  18.075  0.00  0.00    +0.000 A 
ATOM     12  C   UNL     1       1.373   2.112  18.893  0.00  0.00    +0.000 A 
ATOM     13  C   UNL     1       1.027   2.398  20.212  0.00  0.00    +0.000 A 
ATOM     14  C   UNL     1       1.177   3.694  20.706  0.00  0.00    +0.000 A 
ATOM     15  C   UNL     1       1.694   4.700  19.885  0.00  0.00    +0.000 A 
ATOM     16 BR   UNL     1       1.814   6.453  20.611  0.00  0.00    +0.000 Br
ENDBRANCH   8  10
TORSDOF 1
ENDMDL
MODEL 2
REMARK VINA RESULT:      -6.1      2.225      2.468
REMARK  Name = 
REMARK  1 active torsions:
REMARK  status: ('A' for Active; 'I' for Inactive)
REMARK    1  A    between atoms: C_8  and  C_9
REMARK                            x       y       z     vdW  Elec       q    Type
REMARK                         _______ _______ _______ _____ _____    ______ ____
ROOT
ATOM      1  O   UNL     1       3.066   3.971  16.926  0.00  0.00    +0.000 OA
ATOM      2  C   UNL     1       4.245   4.256  16.834  0.00  0.00    +0.000 C 
ATOM      3  N   UNL     1       4.949   4.194  15.663  0.00  0.00    +0.000 N 
ATOM      4  C   UNL     1       6.220   4.676  15.649  0.00  0.00    +0.000 C 
ATOM      5  S   UNL     1       7.178   4.693  14.299  0.00  0.00    +0.000 S 
ATOM      6  S   UNL     1       6.650   5.258  17.241  0.00  0.00    +0.000 S 
ATOM      7  C   UNL     1       5.135   4.761  17.924  0.00  0.00    +0.000 C 
ATOM      8  C   UNL     1       4.875   4.792  19.238  0.00  0.00    +0.000 C 
ATOM      9  H   UNL     1       4.500   3.851  14.829  0.00  0.00    +0.000 HD
ENDROOT
BRANCH   8  10
ATOM     10  C   UNL     1       3.638   4.268  19.828  0.00  0.00    +0.000 A 
ATOM     11  C   UNL     1       3.618   2.928  20.241  0.00  0.00    +0.000 A 
ATOM     12  C   UNL     1       2.513   2.412  20.921  0.00  0.00    +0.000 A 
ATOM     13  C   UNL     1       1.419   3.229  21.198  0.00  0.00    +0.000 A 
ATOM     14  C   UNL     1       1.409   4.553  20.762  0.00  0.00    +0.000 A 
ATOM     15  C   UNL     1       2.506   5.068  20.066  0.00  0.00    +0.000 A 
ATOM     16 BR   UNL     1       2.396   6.866  19.453  0.00  0.00    +0.000 Br
ENDBRANCH   8  10
TORSDOF 1
ENDMDL
MODEL 3
REMARK VINA RESULT:      -6.0      1.579      2.018
REMARK  Name = 
REMARK  1 active torsions:
REMARK  status: ('A' for Active; 'I' for Inactive)
REMARK    1  A    between atoms: C_8  and  C_9
REMARK                            x       y       z     vdW  Elec       q    Type
REMARK                         _______ _______ _______ _____ _____    ______ ____
ROOT
ATOM      1  O   UNL     1       5.549   4.004  19.565  0.00  0.00    +0.000 OA
ATOM      2  C   UNL     1       5.525   5.032  18.916  0.00  0.00    +0.000 C 
ATOM      3  N   UNL     1       6.639   5.776  18.634  0.00  0.00    +0.000 N 
ATOM      4  C   UNL     1       6.514   6.824  17.779  0.00  0.00    +0.000 C 
ATOM      5  S   UNL     1       7.779   7.791  17.325  0.00  0.00    +0.000 S 
ATOM      6  S   UNL     1       4.851   6.967  17.256  0.00  0.00    +0.000 S 
ATOM      7  C   UNL     1       4.332   5.660  18.270  0.00  0.00    +0.000 C 
ATOM      8  C   UNL     1       3.044   5.340  18.456  0.00  0.00    +0.000 C 
ATOM      9  H   UNL     1       7.531   5.501  19.014  0.00  0.00    +0.000 HD
ENDROOT
BRANCH   8  10
ATOM     10  C   UNL     1       2.596   4.310  19.400  0.00  0.00    +0.000 A 
ATOM     11  C   UNL     1       2.337   4.692  20.723  0.00  0.00    +0.000 A 
ATOM     12  C   UNL     1       1.791   3.782  21.630  0.00  0.00    +0.000 A 
ATOM     13  C   UNL     1       1.496   2.482  21.224  0.00  0.00    +0.000 A 
ATOM     14  C   UNL     1       1.783   2.076  19.921  0.00  0.00    +0.000 A 
ATOM     15  C   UNL     1       2.345   2.980  19.016  0.00  0.00    +0.000 A 
ATOM     16 BR   UNL     1       2.761   2.338  17.274  0.00  0.00    +0.000 Br
ENDBRANCH   8  10
TORSDOF 1
ENDMDL
MODEL 4
REMARK VINA RESULT:      -6.0      3.262      3.894
REMARK  Name = 
REMARK  1 active torsions:
REMARK  status: ('A' for Active; 'I' for Inactive)
REMARK    1  A    between atoms: C_8  and  C_9
REMARK                            x       y       z     vdW  Elec       q    Type
REMARK                         _______ _______ _______ _____ _____    ______ ____
ROOT
ATOM      1  O   UNL     1       2.098   5.925  20.779  0.00  0.00    +0.000 OA
ATOM      2  C   UNL     1       1.938   6.892  20.059  0.00  0.00    +0.000 C 
ATOM      3  N   UNL     1       1.369   8.063  20.481  0.00  0.00    +0.000 N 
ATOM      4  C   UNL     1       1.374   9.124  19.632  0.00  0.00    +0.000 C 
ATOM      5  S   UNL     1       0.749  10.608  20.017  0.00  0.00    +0.000 S 
ATOM      6  S   UNL     1       2.132   8.671  18.122  0.00  0.00    +0.000 S 
ATOM      7  C   UNL     1       2.352   7.027  18.629  0.00  0.00    +0.000 C 
ATOM      8  C   UNL     1       2.776   6.055  17.810  0.00  0.00    +0.000 C 
ATOM      9  H   UNL     1       1.013   8.134  21.421  0.00  0.00    +0.000 HD
ENDROOT
BRANCH   8  10
ATOM     10  C   UNL     1       2.855   4.644  18.205  0.00  0.00    +0.000 A 
ATOM     11  C   UNL     1       1.727   3.836  18.002  0.00  0.00    +0.000 A 
ATOM     12  C   UNL     1       1.787   2.462  18.243  0.00  0.00    +0.000 A 
ATOM     13  C   UNL     1       2.974   1.881  18.685  0.00  0.00    +0.000 A 
ATOM     14  C   UNL     1       4.093   2.677  18.927  0.00  0.00    +0.000 A 
ATOM     15  C   UNL     1       4.031   4.056  18.703  0.00  0.00    +0.000 A 
ATOM     16 BR   UNL     1       5.579   5.084  19.109  0.00  0.00    +0.000 Br
ENDBRANCH   8  10
TORSDOF 1
ENDMDL
MODEL 5
REMARK VINA RESULT:      -5.9      2.512      2.882
REMARK  Name = 
REMARK  1 active torsions:
REMARK  status: ('A' for Active; 'I' for Inactive)
REMARK    1  A    between atoms: C_8  and  C_9
REMARK                            x       y       z     vdW  Elec       q    Type
REMARK                         _______ _______ _______ _____ _____    ______ ____
ROOT
ATOM      1  O   UNL     1       2.947   3.929  17.008  0.00  0.00    +0.000 OA
ATOM      2  C   UNL     1       4.112   4.271  16.934  0.00  0.00    +0.000 C 
ATOM      3  N   UNL     1       4.849   4.199  15.783  0.00  0.00    +0.000 N 
ATOM      4  C   UNL     1       6.094   4.745  15.780  0.00  0.00    +0.000 C 
ATOM      5  S   UNL     1       7.085   4.758  14.455  0.00  0.00    +0.000 S 
ATOM      6  S   UNL     1       6.452   5.409  17.358  0.00  0.00    +0.000 S 
ATOM      7  C   UNL     1       4.946   4.862  18.024  0.00  0.00    +0.000 C 
ATOM      8  C   UNL     1       4.651   4.931  19.329  0.00  0.00    +0.000 C 
ATOM      9  H   UNL     1       4.439   3.802  14.952  0.00  0.00    +0.000 HD
ENDROOT
BRANCH   8  10
ATOM     10  C   UNL     1       3.427   4.367  19.909  0.00  0.00    +0.000 A 
ATOM     11  C   UNL     1       2.305   5.199  20.023  0.00  0.00    +0.000 A 
ATOM     12  C   UNL     1       1.080   4.683  20.451  0.00  0.00    +0.000 A 
ATOM     13  C   UNL     1       0.963   3.331  20.768  0.00  0.00    +0.000 A 
ATOM     14  C   UNL     1       2.080   2.499  20.696  0.00  0.00    +0.000 A 
ATOM     15  C   UNL     1       3.311   3.016  20.284  0.00  0.00    +0.000 A 
ATOM     16 BR   UNL     1       4.801   1.834  20.264  0.00  0.00    +0.000 Br
ENDBRANCH   8  10
TORSDOF 1
ENDMDL
MODEL 6
REMARK VINA RESULT:      -5.7      1.717      1.835
REMARK  Name = 
REMARK  1 active torsions:
REMARK  status: ('A' for Active; 'I' for Inactive)
REMARK    1  A    between atoms: C_8  and  C_9
REMARK                            x       y       z     vdW  Elec       q    Type
REMARK                         _______ _______ _______ _____ _____    ______ ____
ROOT
ATOM      1  O   UNL     1       5.324   3.638  19.273  0.00  0.00    +0.000 OA
ATOM      2  C   UNL     1       5.315   4.003  18.112  0.00  0.00    +0.000 C 
ATOM      3  N   UNL     1       6.443   4.361  17.424  0.00  0.00    +0.000 N 
ATOM      4  C   UNL     1       6.332   4.610  16.093  0.00  0.00    +0.000 C 
ATOM      5  S   UNL     1       7.614   5.024  15.129  0.00  0.00    +0.000 S 
ATOM      6  S   UNL     1       4.668   4.420  15.591  0.00  0.00    +0.000 S 
ATOM      7  C   UNL     1       4.130   4.092  17.206  0.00  0.00    +0.000 C 
ATOM      8  C   UNL     1       2.837   3.999  17.547  0.00  0.00    +0.000 C 
ATOM      9  H   UNL     1       7.332   4.376  17.897  0.00  0.00    +0.000 HD
ENDROOT
BRANCH   8  10
ATOM     10  C   UNL     1       2.377   3.834  18.930  0.00  0.00    +0.000 A 
ATOM     11  C   UNL     1       2.072   2.540  19.375  0.00  0.00    +0.000 A 
ATOM     12  C   UNL     1       1.750   2.309  20.714  0.00  0.00    +0.000 A 
ATOM     13  C   UNL     1       1.732   3.366  21.622  0.00  0.00    +0.000 A 
ATOM     14  C   UNL     1       1.997   4.664  21.186  0.00  0.00    +0.000 A 
ATOM     15  C   UNL     1       2.303   4.901  19.843  0.00  0.00    +0.000 A 
ATOM     16 BR   UNL     1       2.597   6.704  19.312  0.00  0.00    +0.000 Br
ENDBRANCH   8  10
TORSDOF 1
ENDMDL
MODEL 7
REMARK VINA RESULT:      -5.7      3.584      5.157
REMARK  Name = 
REMARK  1 active torsions:
REMARK  status: ('A' for Active; 'I' for Inactive)
REMARK    1  A    between atoms: C_8  and  C_9
REMARK                            x       y       z     vdW  Elec       q    Type
REMARK                         _______ _______ _______ _____ _____    ______ ____
ROOT
ATOM      1  O   UNL     1       3.942   7.105  16.845  0.00  0.00    +0.000 OA
ATOM      2  C   UNL     1       3.490   6.821  17.938  0.00  0.00    +0.000 C 
ATOM      3  N   UNL     1       2.757   7.688  18.702  0.00  0.00    +0.000 N 
ATOM      4  C   UNL     1       2.181   7.216  19.839  0.00  0.00    +0.000 C 
ATOM      5  S   UNL     1       1.245   8.141  20.843  0.00  0.00    +0.000 S 
ATOM      6  S   UNL     1       2.579   5.526  20.047  0.00  0.00    +0.000 S 
ATOM      7  C   UNL     1       3.592   5.505  18.639  0.00  0.00    +0.000 C 
ATOM      8  C   UNL     1       4.369   4.465  18.307  0.00  0.00    +0.000 C 
ATOM      9  H   UNL     1       2.611   8.633  18.382  0.00  0.00    +0.000 HD
ENDROOT
BRANCH   8  10
ATOM     10  C   UNL     1       5.310   4.486  17.182  0.00  0.00    +0.000 A 
ATOM     11  C   UNL     1       4.872   3.995  15.944  0.00  0.00    +0.000 A 
ATOM     12  C   UNL     1       5.680   4.106  14.811  0.00  0.00    +0.000 A 
ATOM     13  C   UNL     1       6.932   4.711  14.902  0.00  0.00    +0.000 A 
ATOM     14  C   UNL     1       7.396   5.171  16.133  0.00  0.00    +0.000 A 
ATOM     15  C   UNL     1       6.597   5.046  17.273  0.00  0.00    +0.000 A 
ATOM     16 BR   UNL     1       7.321   5.645  18.927  0.00  0.00    +0.000 Br
ENDBRANCH   8  10
TORSDOF 1
ENDMDL
MODEL 8
REMARK VINA RESULT:      -5.7      3.188      5.773
REMARK  Name = 
REMARK  1 active torsions:
REMARK  status: ('A' for Active; 'I' for Inactive)
REMARK    1  A    between atoms: C_8  and  C_9
REMARK                            x       y       z     vdW  Elec       q    Type
REMARK                         _______ _______ _______ _____ _____    ______ ____
ROOT
ATOM      1  O   UNL     1       3.746   6.067  19.146  0.00  0.00    +0.000 OA
ATOM      2  C   UNL     1       3.451   4.919  18.874  0.00  0.00    +0.000 C 
ATOM      3  N   UNL     1       2.312   4.305  19.319  0.00  0.00    +0.000 N 
ATOM      4  C   UNL     1       2.013   3.071  18.834  0.00  0.00    +0.000 C 
ATOM      5  S   UNL     1       0.657   2.224  19.259  0.00  0.00    +0.000 S 
ATOM      6  S   UNL     1       3.259   2.556  17.719  0.00  0.00    +0.000 S 
ATOM      7  C   UNL     1       4.211   3.980  17.993  0.00  0.00    +0.000 C 
ATOM      8  C   UNL     1       5.452   4.139  17.514  0.00  0.00    +0.000 C 
ATOM      9  H   UNL     1       1.693   4.796  19.945  0.00  0.00    +0.000 HD
ENDROOT
BRANCH   8  10
ATOM     10  C   UNL     1       6.300   5.291  17.837  0.00  0.00    +0.000 A 
ATOM     11  C   UNL     1       7.149   5.196  18.949  0.00  0.00    +0.000 A 
ATOM     12  C   UNL     1       8.067   6.211  19.229  0.00  0.00    +0.000 A 
ATOM     13  C   UNL     1       8.147   7.329  18.400  0.00  0.00    +0.000 A 
ATOM     14  C   UNL     1       7.284   7.455  17.313  0.00  0.00    +0.000 A 
ATOM     15  C   UNL     1       6.353   6.449  17.040  0.00  0.00    +0.000 A 
ATOM     16 BR   UNL     1       5.171   6.717  15.574  0.00  0.00    +0.000 Br
ENDBRANCH   8  10
TORSDOF 1
ENDMDL
MODEL 9
REMARK VINA RESULT:      -5.7      3.366      5.923
REMARK  Name = 
REMARK  1 active torsions:
REMARK  status: ('A' for Active; 'I' for Inactive)
REMARK    1  A    between atoms: C_8  and  C_9
REMARK                            x       y       z     vdW  Elec       q    Type
REMARK                         _______ _______ _______ _____ _____    ______ ____
ROOT
ATOM      1  O   UNL     1       3.875   6.281  19.267  0.00  0.00    +0.000 OA
ATOM      2  C   UNL     1       3.771   5.119  19.609  0.00  0.00    +0.000 C 
ATOM      3  N   UNL     1       2.757   4.651  20.401  0.00  0.00    +0.000 N 
ATOM      4  C   UNL     1       2.661   3.310  20.598  0.00  0.00    +0.000 C 
ATOM      5  S   UNL     1       1.471   2.601  21.505  0.00  0.00    +0.000 S 
ATOM      6  S   UNL     1       3.958   2.493  19.756  0.00  0.00    +0.000 S 
ATOM      7  C   UNL     1       4.663   3.984  19.220  0.00  0.00    +0.000 C 
ATOM      8  C   UNL     1       5.853   4.057  18.608  0.00  0.00    +0.000 C 
ATOM      9  H   UNL     1       2.075   5.294  20.769  0.00  0.00    +0.000 HD
ENDROOT
BRANCH   8  10
ATOM     10  C   UNL     1       6.502   5.325  18.256  0.00  0.00    +0.000 A 
ATOM     11  C   UNL     1       7.395   5.889  19.178  0.00  0.00    +0.000 A 
ATOM     12  C   UNL     1       8.135   7.025  18.844  0.00  0.00    +0.000 A 
ATOM     13  C   UNL     1       7.991   7.608  17.586  0.00  0.00    +0.000 A 
ATOM     14  C   UNL     1       7.079   7.081  16.673  0.00  0.00    +0.000 A 
ATOM     15  C   UNL     1       6.325   5.953  17.010  0.00  0.00    +0.000 A 
ATOM     16 BR   UNL     1       5.062   5.325  15.735  0.00  0.00    +0.000 Br
ENDBRANCH   8  10
TORSDOF 1
ENDMDL
