MODEL 1
REMARK VINA RESULT:      -8.1      0.000      0.000
REMARK  Name = 
REMARK  13 active torsions:
REMARK  status: ('A' for Active; 'I' for Inactive)
REMARK    1  A    between atoms: C_1  and  C_2
REMARK    2  A    between atoms: C_2  and  N_3
REMARK    3  A    between atoms: N_3  and  C_4
REMARK    4  A    between atoms: N_3  and  C_6
REMARK    5  A    between atoms: C_4  and  C_5
REMARK    6  A    between atoms: C_6  and  C_7
REMARK    7  A    between atoms: C_11  and  C_12
REMARK    8  A    between atoms: C_15  and  S_16
REMARK    9  A    between atoms: S_16  and  N_19
REMARK   10  A    between atoms: N_19  and  C_20
REMARK   11  A    between atoms: C_21  and  C_22
REMARK   12  A    between atoms: N_24  and  C_25
REMARK   13  A    between atoms: C_26  and  C_27
REMARK                            x       y       z     vdW  Elec       q    Type
REMARK                         _______ _______ _______ _____ _____    ______ ____
ROOT
ATOM      1  C   UNL     1       2.306   7.266  18.701  0.00  0.00    +0.000 A 
ATOM      2  C   UNL     1       1.803   7.672  19.953  0.00  0.00    +0.000 A 
ATOM      3  C   UNL     1       1.277   8.950  20.156  0.00  0.00    +0.000 A 
ATOM      4  C   UNL     1       1.281   9.873  19.114  0.00  0.00    +0.000 A 
ATOM      5  C   UNL     1       1.787   9.516  17.863  0.00  0.00    +0.000 A 
ATOM      6  C   UNL     1       2.297   8.224  17.668  0.00  0.00    +0.000 A 
ENDROOT
BRANCH   1  11
ATOM      7  C   UNL     1       4.195   4.215  17.350  0.00  0.00    +0.000 A 
ATOM      8  C   UNL     1       3.529   3.182  18.024  0.00  0.00    +0.000 A 
ATOM      9  C   UNL     1       2.460   3.468  18.864  0.00  0.00    +0.000 A 
ATOM     10  C   UNL     1       2.063   4.790  19.058  0.00  0.00    +0.000 A 
ATOM     11  C   UNL     1       2.756   5.867  18.471  0.00  0.00    +0.000 A 
ATOM     12  C   UNL     1       3.839   5.549  17.626  0.00  0.00    +0.000 A 
BRANCH   7  13
ATOM     13  C   UNL     1       5.222   3.873  16.283  0.00  0.00    +0.000 C 
BRANCH  13  14
ATOM     14  N   UNL     1       6.324   4.840  16.135  0.00  0.00    +0.000 NA
BRANCH  14  16
ATOM     15  C   UNL     1       7.521   5.514  18.256  0.00  0.00    +0.000 C 
ATOM     16  C   UNL     1       7.400   4.539  17.093  0.00  0.00    +0.000 C 
ENDBRANCH  14  16
BRANCH  14  17
ATOM     17  C   UNL     1       6.779   4.924  14.733  0.00  0.00    +0.000 C 
ATOM     18  C   UNL     1       6.254   3.868  13.758  0.00  0.00    +0.000 C 
ENDBRANCH  14  17
ENDBRANCH  13  14
ENDBRANCH   7  13
ENDBRANCH   1  11
BRANCH   4  19
ATOM     19  S   UNL     1       0.501  11.449  19.375  0.00  0.00    +0.000 S 
ATOM     20  O   UNL     1       1.306  12.455  18.703  0.00  0.00    +0.000 OA
ATOM     21  O   UNL     1      -0.903  11.302  19.077  0.00  0.00    +0.000 OA
BRANCH  19  22
ATOM     22  N   UNL     1       0.742  11.721  21.044  0.00  0.00    +0.000 N 
ATOM     23  H   UNL     1       1.379  12.522  21.060  0.00  0.00    +0.000 HD
BRANCH  22  24
ATOM     24  C   UNL     1      -0.387  11.907  21.856  0.00  0.00    +0.000 A 
ATOM     25  C   UNL     1      -0.933  10.995  22.799  0.00  0.00    +0.000 A 
ATOM     26  C   UNL     1      -0.459   9.652  23.209  0.00  0.00    +0.000 C 
ATOM     27  N   UNL     1      -1.999  11.512  23.422  0.00  0.00    +0.000 NA
ATOM     28  N   UNL     1      -2.124  12.741  22.899  0.00  0.00    +0.000 N 
ATOM     29  C   UNL     1      -3.202  13.582  23.369  0.00  0.00    +0.000 C 
ATOM     30  C   UNL     1      -1.146  13.054  21.989  0.00  0.00    +0.000 A 
ATOM     31  C   UNL     1      -1.038  14.377  21.323  0.00  0.00    +0.000 C 
ENDBRANCH  22  24
ENDBRANCH  19  22
ENDBRANCH   4  19
TORSDOF 8
ENDMDL
MODEL 2
REMARK VINA RESULT:      -8.1      2.578      4.045
REMARK  Name = 
REMARK  13 active torsions:
REMARK  status: ('A' for Active; 'I' for Inactive)
REMARK    1  A    between atoms: C_1  and  C_2
REMARK    2  A    between atoms: C_2  and  N_3
REMARK    3  A    between atoms: N_3  and  C_4
REMARK    4  A    between atoms: N_3  and  C_6
REMARK    5  A    between atoms: C_4  and  C_5
REMARK    6  A    between atoms: C_6  and  C_7
REMARK    7  A    between atoms: C_11  and  C_12
REMARK    8  A    between atoms: C_15  and  S_16
REMARK    9  A    between atoms: S_16  and  N_19
REMARK   10  A    between atoms: N_19  and  C_20
REMARK   11  A    between atoms: C_21  and  C_22
REMARK   12  A    between atoms: N_24  and  C_25
REMARK   13  A    between atoms: C_26  and  C_27
REMARK                            x       y       z     vdW  Elec       q    Type
REMARK                         _______ _______ _______ _____ _____    ______ ____
ROOT
ATOM      1  C   UNL     1       2.221   7.613  18.651  0.00  0.00    +0.000 A 
ATOM      2  C   UNL     1       1.886   8.784  17.943  0.00  0.00    +0.000 A 
ATOM      3  C   UNL     1       1.285   9.878  18.571  0.00  0.00    +0.000 A 
ATOM      4  C   UNL     1       0.963   9.808  19.923  0.00  0.00    +0.000 A 
ATOM      5  C   UNL     1       1.261   8.658  20.656  0.00  0.00    +0.000 A 
ATOM      6  C   UNL     1       1.880   7.573  20.018  0.00  0.00    +0.000 A 
ENDROOT
BRANCH   1  11
ATOM      7  C   UNL     1       3.213   4.133  17.382  0.00  0.00    +0.000 A 
ATOM      8  C   UNL     1       4.448   4.421  16.785  0.00  0.00    +0.000 A 
ATOM      9  C   UNL     1       4.967   5.708  16.834  0.00  0.00    +0.000 A 
ATOM     10  C   UNL     1       4.247   6.725  17.458  0.00  0.00    +0.000 A 
ATOM     11  C   UNL     1       2.962   6.504  17.994  0.00  0.00    +0.000 A 
ATOM     12  C   UNL     1       2.458   5.189  17.929  0.00  0.00    +0.000 A 
BRANCH   7  13
ATOM     13  C   UNL     1       2.756   2.688  17.500  0.00  0.00    +0.000 C 
BRANCH  13  14
ATOM     14  N   UNL     1       2.792   2.125  18.861  0.00  0.00    +0.000 NA
BRANCH  14  16
ATOM     15  C   UNL     1       4.727   1.867  20.466  0.00  0.00    +0.000 C 
ATOM     16  C   UNL     1       3.825   2.797  19.666  0.00  0.00    +0.000 C 
ENDBRANCH  14  16
BRANCH  14  17
ATOM     17  C   UNL     1       1.451   2.137  19.482  0.00  0.00    +0.000 C 
ATOM     18  C   UNL     1       1.198   3.160  20.591  0.00  0.00    +0.000 C 
ENDBRANCH  14  17
ENDBRANCH  13  14
ENDBRANCH   7  13
ENDBRANCH   1  11
BRANCH   4  19
ATOM     19  S   UNL     1       0.305  11.258  20.714  0.00  0.00    +0.000 S 
ATOM     20  O   UNL     1      -0.789  10.833  21.571  0.00  0.00    +0.000 OA
ATOM     21  O   UNL     1       1.413  12.014  21.245  0.00  0.00    +0.000 OA
BRANCH  19  22
ATOM     22  N   UNL     1      -0.436  12.093  19.421  0.00  0.00    +0.000 N 
ATOM     23  H   UNL     1       0.064  11.743  18.600  0.00  0.00    +0.000 HD
BRANCH  22  24
ATOM     24  C   UNL     1      -1.830  12.005  19.286  0.00  0.00    +0.000 A 
ATOM     25  C   UNL     1      -2.814  12.758  19.983  0.00  0.00    +0.000 A 
ATOM     26  C   UNL     1      -2.654  13.838  20.984  0.00  0.00    +0.000 C 
ATOM     27  N   UNL     1      -4.051  12.437  19.584  0.00  0.00    +0.000 NA
ATOM     28  N   UNL     1      -3.862  11.507  18.635  0.00  0.00    +0.000 N 
ATOM     29  C   UNL     1      -5.023  10.941  17.985  0.00  0.00    +0.000 C 
ATOM     30  C   UNL     1      -2.540  11.247  18.376  0.00  0.00    +0.000 A 
ATOM     31  C   UNL     1      -2.081  10.302  17.325  0.00  0.00    +0.000 C 
ENDBRANCH  22  24
ENDBRANCH  19  22
ENDBRANCH   4  19
TORSDOF 8
ENDMDL
MODEL 3
REMARK VINA RESULT:      -8.1      2.642      3.940
REMARK  Name = 
REMARK  13 active torsions:
REMARK  status: ('A' for Active; 'I' for Inactive)
REMARK    1  A    between atoms: C_1  and  C_2
REMARK    2  A    between atoms: C_2  and  N_3
REMARK    3  A    between atoms: N_3  and  C_4
REMARK    4  A    between atoms: N_3  and  C_6
REMARK    5  A    between atoms: C_4  and  C_5
REMARK    6  A    between atoms: C_6  and  C_7
REMARK    7  A    between atoms: C_11  and  C_12
REMARK    8  A    between atoms: C_15  and  S_16
REMARK    9  A    between atoms: S_16  and  N_19
REMARK   10  A    between atoms: N_19  and  C_20
REMARK   11  A    between atoms: C_21  and  C_22
REMARK   12  A    between atoms: N_24  and  C_25
REMARK   13  A    between atoms: C_26  and  C_27
REMARK                            x       y       z     vdW  Elec       q    Type
REMARK                         _______ _______ _______ _____ _____    ______ ____
ROOT
ATOM      1  C   UNL     1       2.453   7.504  18.513  0.00  0.00    +0.000 A 
ATOM      2  C   UNL     1       2.083   7.487  19.873  0.00  0.00    +0.000 A 
ATOM      3  C   UNL     1       1.416   8.562  20.468  0.00  0.00    +0.000 A 
ATOM      4  C   UNL     1       1.139   9.703  19.721  0.00  0.00    +0.000 A 
ATOM      5  C   UNL     1       1.505   9.765  18.375  0.00  0.00    +0.000 A 
ATOM      6  C   UNL     1       2.160   8.674  17.786  0.00  0.00    +0.000 A 
ENDROOT
BRANCH   1  11
ATOM      7  C   UNL     1       3.152   3.883  17.463  0.00  0.00    +0.000 A 
ATOM      8  C   UNL     1       4.292   4.062  16.669  0.00  0.00    +0.000 A 
ATOM      9  C   UNL     1       4.848   5.325  16.515  0.00  0.00    +0.000 A 
ATOM     10  C   UNL     1       4.256   6.425  17.133  0.00  0.00    +0.000 A 
ATOM     11  C   UNL     1       3.059   6.309  17.869  0.00  0.00    +0.000 A 
ATOM     12  C   UNL     1       2.515   5.015  18.007  0.00  0.00    +0.000 A 
BRANCH   7  13
ATOM     13  C   UNL     1       2.678   2.476  17.788  0.00  0.00    +0.000 C 
BRANCH  13  14
ATOM     14  N   UNL     1       2.652   2.134  19.221  0.00  0.00    +0.000 NA
BRANCH  14  16
ATOM     15  C   UNL     1       4.785   1.703  20.507  0.00  0.00    +0.000 C 
ATOM     16  C   UNL     1       3.818   2.714  19.906  0.00  0.00    +0.000 C 
ENDBRANCH  14  16
BRANCH  14  17
ATOM     17  C   UNL     1       1.358   2.494  19.835  0.00  0.00    +0.000 C 
ATOM     18  C   UNL     1       1.344   2.756  21.342  0.00  0.00    +0.000 C 
ENDBRANCH  14  17
ENDBRANCH  13  14
ENDBRANCH   7  13
ENDBRANCH   1  11
BRANCH   4  19
ATOM     19  S   UNL     1       0.189  11.001  20.477  0.00  0.00    +0.000 S 
ATOM     20  O   UNL     1      -0.956  10.386  21.127  0.00  0.00    +0.000 OA
ATOM     21  O   UNL     1       1.099  11.842  21.217  0.00  0.00    +0.000 OA
BRANCH  19  22
ATOM     22  N   UNL     1      -0.452  11.836  19.132  0.00  0.00    +0.000 N 
ATOM     23  H   UNL     1       0.103  11.481  18.350  0.00  0.00    +0.000 HD
BRANCH  22  24
ATOM     24  C   UNL     1      -1.834  11.757  18.899  0.00  0.00    +0.000 A 
ATOM     25  C   UNL     1      -2.509  10.898  17.990  0.00  0.00    +0.000 A 
ATOM     26  C   UNL     1      -1.970   9.851  17.091  0.00  0.00    +0.000 C 
ATOM     27  N   UNL     1      -3.835  11.068  18.047  0.00  0.00    +0.000 NA
ATOM     28  N   UNL     1      -4.009  12.006  18.990  0.00  0.00    +0.000 N 
ATOM     29  C   UNL     1      -5.356  12.426  19.304  0.00  0.00    +0.000 C 
ATOM     30  C   UNL     1      -2.839  12.420  19.577  0.00  0.00    +0.000 A 
ATOM     31  C   UNL     1      -2.781  13.405  20.687  0.00  0.00    +0.000 C 
ENDBRANCH  22  24
ENDBRANCH  19  22
ENDBRANCH   4  19
TORSDOF 8
ENDMDL
MODEL 4
REMARK VINA RESULT:      -7.9      2.285      2.623
REMARK  Name = 
REMARK  13 active torsions:
REMARK  status: ('A' for Active; 'I' for Inactive)
REMARK    1  A    between atoms: C_1  and  C_2
REMARK    2  A    between atoms: C_2  and  N_3
REMARK    3  A    between atoms: N_3  and  C_4
REMARK    4  A    between atoms: N_3  and  C_6
REMARK    5  A    between atoms: C_4  and  C_5
REMARK    6  A    between atoms: C_6  and  C_7
REMARK    7  A    between atoms: C_11  and  C_12
REMARK    8  A    between atoms: C_15  and  S_16
REMARK    9  A    between atoms: S_16  and  N_19
REMARK   10  A    between atoms: N_19  and  C_20
REMARK   11  A    between atoms: C_21  and  C_22
REMARK   12  A    between atoms: N_24  and  C_25
REMARK   13  A    between atoms: C_26  and  C_27
REMARK                            x       y       z     vdW  Elec       q    Type
REMARK                         _______ _______ _______ _____ _____    ______ ____
ROOT
ATOM      1  C   UNL     1       2.094   7.444  19.091  0.00  0.00    +0.000 A 
ATOM      2  C   UNL     1       1.737   7.600  20.445  0.00  0.00    +0.000 A 
ATOM      3  C   UNL     1       1.176   8.785  20.928  0.00  0.00    +0.000 A 
ATOM      4  C   UNL     1       0.996   9.865  20.068  0.00  0.00    +0.000 A 
ATOM      5  C   UNL     1       1.353   9.757  18.723  0.00  0.00    +0.000 A 
ATOM      6  C   UNL     1       1.900   8.556  18.248  0.00  0.00    +0.000 A 
ENDROOT
BRANCH   1  11
ATOM      7  C   UNL     1       4.404   4.587  17.994  0.00  0.00    +0.000 A 
ATOM      8  C   UNL     1       3.462   3.668  17.511  0.00  0.00    +0.000 A 
ATOM      9  C   UNL     1       2.111   3.988  17.501  0.00  0.00    +0.000 A 
ATOM     10  C   UNL     1       1.685   5.219  17.995  0.00  0.00    +0.000 A 
ATOM     11  C   UNL     1       2.583   6.140  18.571  0.00  0.00    +0.000 A 
ATOM     12  C   UNL     1       3.949   5.789  18.571  0.00  0.00    +0.000 A 
BRANCH   7  13
ATOM     13  C   UNL     1       5.887   4.309  17.810  0.00  0.00    +0.000 C 
BRANCH  13  14
ATOM     14  N   UNL     1       6.615   5.289  16.985  0.00  0.00    +0.000 NA
BRANCH  14  16
ATOM     15  C   UNL     1       7.593   7.554  17.534  0.00  0.00    +0.000 C 
ATOM     16  C   UNL     1       7.555   6.058  17.816  0.00  0.00    +0.000 C 
ENDBRANCH  14  16
BRANCH  14  17
ATOM     17  C   UNL     1       7.242   4.643  15.814  0.00  0.00    +0.000 C 
ATOM     18  C   UNL     1       6.505   4.743  14.477  0.00  0.00    +0.000 C 
ENDBRANCH  14  17
ENDBRANCH  13  14
ENDBRANCH   7  13
ENDBRANCH   1  11
BRANCH   4  19
ATOM     19  S   UNL     1       0.175  11.314  20.688  0.00  0.00    +0.000 S 
ATOM     20  O   UNL     1      -0.972  10.872  21.463  0.00  0.00    +0.000 OA
ATOM     21  O   UNL     1       1.176  12.175  21.271  0.00  0.00    +0.000 OA
BRANCH  19  22
ATOM     22  N   UNL     1      -0.480  12.014  19.275  0.00  0.00    +0.000 N 
ATOM     23  H   UNL     1       0.062  11.579  18.525  0.00  0.00    +0.000 HD
BRANCH  22  24
ATOM     24  C   UNL     1      -1.866  11.920  19.069  0.00  0.00    +0.000 A 
ATOM     25  C   UNL     1      -2.553  11.007  18.224  0.00  0.00    +0.000 A 
ATOM     26  C   UNL     1      -2.027   9.908  17.381  0.00  0.00    +0.000 C 
ATOM     27  N   UNL     1      -3.879  11.179  18.292  0.00  0.00    +0.000 NA
ATOM     28  N   UNL     1      -4.039  12.173  19.179  0.00  0.00    +0.000 N 
ATOM     29  C   UNL     1      -5.382  12.610  19.488  0.00  0.00    +0.000 C 
ATOM     30  C   UNL     1      -2.861  12.622  19.721  0.00  0.00    +0.000 A 
ATOM     31  C   UNL     1      -2.788  13.672  20.768  0.00  0.00    +0.000 C 
ENDBRANCH  22  24
ENDBRANCH  19  22
ENDBRANCH   4  19
TORSDOF 8
ENDMDL
MODEL 5
REMARK VINA RESULT:      -7.9      2.382      2.889
REMARK  Name = 
REMARK  13 active torsions:
REMARK  status: ('A' for Active; 'I' for Inactive)
REMARK    1  A    between atoms: C_1  and  C_2
REMARK    2  A    between atoms: C_2  and  N_3
REMARK    3  A    between atoms: N_3  and  C_4
REMARK    4  A    between atoms: N_3  and  C_6
REMARK    5  A    between atoms: C_4  and  C_5
REMARK    6  A    between atoms: C_6  and  C_7
REMARK    7  A    between atoms: C_11  and  C_12
REMARK    8  A    between atoms: C_15  and  S_16
REMARK    9  A    between atoms: S_16  and  N_19
REMARK   10  A    between atoms: N_19  and  C_20
REMARK   11  A    between atoms: C_21  and  C_22
REMARK   12  A    between atoms: N_24  and  C_25
REMARK   13  A    between atoms: C_26  and  C_27
REMARK                            x       y       z     vdW  Elec       q    Type
REMARK                         _______ _______ _______ _____ _____    ______ ____
ROOT
ATOM      1  C   UNL     1       2.078   7.404  19.170  0.00  0.00    +0.000 A 
ATOM      2  C   UNL     1       1.795   7.571  20.541  0.00  0.00    +0.000 A 
ATOM      3  C   UNL     1       1.224   8.746  21.037  0.00  0.00    +0.000 A 
ATOM      4  C   UNL     1       0.960   9.806  20.173  0.00  0.00    +0.000 A 
ATOM      5  C   UNL     1       1.243   9.686  18.812  0.00  0.00    +0.000 A 
ATOM      6  C   UNL     1       1.801   8.496  18.323  0.00  0.00    +0.000 A 
ENDROOT
BRANCH   1  11
ATOM      7  C   UNL     1       4.413   4.565  18.078  0.00  0.00    +0.000 A 
ATOM      8  C   UNL     1       3.482   3.651  17.566  0.00  0.00    +0.000 A 
ATOM      9  C   UNL     1       2.130   3.969  17.536  0.00  0.00    +0.000 A 
ATOM     10  C   UNL     1       1.693   5.193  18.038  0.00  0.00    +0.000 A 
ATOM     11  C   UNL     1       2.579   6.108  18.642  0.00  0.00    +0.000 A 
ATOM     12  C   UNL     1       3.945   5.758  18.662  0.00  0.00    +0.000 A 
BRANCH   7  13
ATOM     13  C   UNL     1       5.899   4.291  17.917  0.00  0.00    +0.000 C 
BRANCH  13  14
ATOM     14  N   UNL     1       6.617   5.214  17.021  0.00  0.00    +0.000 NA
BRANCH  14  16
ATOM     15  C   UNL     1       7.523   7.503  17.591  0.00  0.00    +0.000 C 
ATOM     16  C   UNL     1       7.608   5.995  17.778  0.00  0.00    +0.000 C 
ENDBRANCH  14  16
BRANCH  14  17
ATOM     17  C   UNL     1       7.181   4.500  15.857  0.00  0.00    +0.000 C 
ATOM     18  C   UNL     1       6.592   4.820  14.482  0.00  0.00    +0.000 C 
ENDBRANCH  14  17
ENDBRANCH  13  14
ENDBRANCH   7  13
ENDBRANCH   1  11
BRANCH   4  19
ATOM     19  S   UNL     1       0.130  11.238  20.818  0.00  0.00    +0.000 S 
ATOM     20  O   UNL     1      -1.005  10.774  21.599  0.00  0.00    +0.000 OA
ATOM     21  O   UNL     1       1.127  12.103  21.402  0.00  0.00    +0.000 OA
BRANCH  19  22
ATOM     22  N   UNL     1      -0.547  11.948  19.420  0.00  0.00    +0.000 N 
ATOM     23  H   UNL     1      -0.042  11.489  18.658  0.00  0.00    +0.000 HD
BRANCH  22  24
ATOM     24  C   UNL     1      -1.940  11.897  19.257  0.00  0.00    +0.000 A 
ATOM     25  C   UNL     1      -2.915  12.704  19.903  0.00  0.00    +0.000 A 
ATOM     26  C   UNL     1      -2.743  13.817  20.866  0.00  0.00    +0.000 C 
ATOM     27  N   UNL     1      -4.152  12.406  19.489  0.00  0.00    +0.000 NA
ATOM     28  N   UNL     1      -3.972  11.436  18.580  0.00  0.00    +0.000 N 
ATOM     29  C   UNL     1      -5.135  10.880  17.925  0.00  0.00    +0.000 C 
ATOM     30  C   UNL     1      -2.653  11.126  18.360  0.00  0.00    +0.000 A 
ATOM     31  C   UNL     1      -2.201  10.128  17.356  0.00  0.00    +0.000 C 
ENDBRANCH  22  24
ENDBRANCH  19  22
ENDBRANCH   4  19
TORSDOF 8
ENDMDL
MODEL 6
REMARK VINA RESULT:      -7.9      2.360      3.016
REMARK  Name = 
REMARK  13 active torsions:
REMARK  status: ('A' for Active; 'I' for Inactive)
REMARK    1  A    between atoms: C_1  and  C_2
REMARK    2  A    between atoms: C_2  and  N_3
REMARK    3  A    between atoms: N_3  and  C_4
REMARK    4  A    between atoms: N_3  and  C_6
REMARK    5  A    between atoms: C_4  and  C_5
REMARK    6  A    between atoms: C_6  and  C_7
REMARK    7  A    between atoms: C_11  and  C_12
REMARK    8  A    between atoms: C_15  and  S_16
REMARK    9  A    between atoms: S_16  and  N_19
REMARK   10  A    between atoms: N_19  and  C_20
REMARK   11  A    between atoms: C_21  and  C_22
REMARK   12  A    between atoms: N_24  and  C_25
REMARK   13  A    between atoms: C_26  and  C_27
REMARK                            x       y       z     vdW  Elec       q    Type
REMARK                         _______ _______ _______ _____ _____    ______ ____
ROOT
ATOM      1  C   UNL     1       1.987   7.987  19.022  0.00  0.00    +0.000 A 
ATOM      2  C   UNL     1       1.674   9.158  18.303  0.00  0.00    +0.000 A 
ATOM      3  C   UNL     1       1.054  10.252  18.911  0.00  0.00    +0.000 A 
ATOM      4  C   UNL     1       0.693  10.185  20.254  0.00  0.00    +0.000 A 
ATOM      5  C   UNL     1       0.970   9.036  20.997  0.00  0.00    +0.000 A 
ATOM      6  C   UNL     1       1.607   7.950  20.378  0.00  0.00    +0.000 A 
ENDROOT
BRANCH   1  11
ATOM      7  C   UNL     1       4.439   6.040  16.809  0.00  0.00    +0.000 A 
ATOM      8  C   UNL     1       4.119   4.724  17.168  0.00  0.00    +0.000 A 
ATOM      9  C   UNL     1       3.098   4.473  18.076  0.00  0.00    +0.000 A 
ATOM     10  C   UNL     1       2.404   5.536  18.651  0.00  0.00    +0.000 A 
ATOM     11  C   UNL     1       2.748   6.877  18.389  0.00  0.00    +0.000 A 
ATOM     12  C   UNL     1       3.789   7.103  17.466  0.00  0.00    +0.000 A 
BRANCH   7  13
ATOM     13  C   UNL     1       5.411   6.290  15.668  0.00  0.00    +0.000 C 
BRANCH  13  14
ATOM     14  N   UNL     1       6.808   5.903  15.933  0.00  0.00    +0.000 NA
BRANCH  14  16
ATOM     15  C   UNL     1       7.662   5.029  18.145  0.00  0.00    +0.000 C 
ATOM     16  C   UNL     1       7.170   6.214  17.325  0.00  0.00    +0.000 C 
ENDBRANCH  14  16
BRANCH  14  17
ATOM     17  C   UNL     1       7.056   4.498  15.551  0.00  0.00    +0.000 C 
ATOM     18  C   UNL     1       6.346   3.972  14.302  0.00  0.00    +0.000 C 
ENDBRANCH  14  17
ENDBRANCH  13  14
ENDBRANCH   7  13
ENDBRANCH   1  11
BRANCH   4  19
ATOM     19  S   UNL     1       0.013  11.635  21.022  0.00  0.00    +0.000 S 
ATOM     20  O   UNL     1      -1.083  11.208  21.876  0.00  0.00    +0.000 OA
ATOM     21  O   UNL     1       1.108  12.410  21.554  0.00  0.00    +0.000 OA
BRANCH  19  22
ATOM     22  N   UNL     1      -0.727  12.447  19.714  0.00  0.00    +0.000 N 
ATOM     23  H   UNL     1      -0.169  12.151  18.910  0.00  0.00    +0.000 HD
BRANCH  22  24
ATOM     24  C   UNL     1      -2.105  12.268  19.516  0.00  0.00    +0.000 A 
ATOM     25  C   UNL     1      -3.168  12.931  20.188  0.00  0.00    +0.000 A 
ATOM     26  C   UNL     1      -3.126  13.990  21.222  0.00  0.00    +0.000 C 
ATOM     27  N   UNL     1      -4.361  12.538  19.726  0.00  0.00    +0.000 NA
ATOM     28  N   UNL     1      -4.068  11.652  18.762  0.00  0.00    +0.000 N 
ATOM     29  C   UNL     1      -5.157  11.026  18.047  0.00  0.00    +0.000 C 
ATOM     30  C   UNL     1      -2.721  11.490  18.555  0.00  0.00    +0.000 A 
ATOM     31  C   UNL     1      -2.153  10.610  17.502  0.00  0.00    +0.000 C 
ENDBRANCH  22  24
ENDBRANCH  19  22
ENDBRANCH   4  19
TORSDOF 8
ENDMDL
MODEL 7
REMARK VINA RESULT:      -7.8      2.306      3.276
REMARK  Name = 
REMARK  13 active torsions:
REMARK  status: ('A' for Active; 'I' for Inactive)
REMARK    1  A    between atoms: C_1  and  C_2
REMARK    2  A    between atoms: C_2  and  N_3
REMARK    3  A    between atoms: N_3  and  C_4
REMARK    4  A    between atoms: N_3  and  C_6
REMARK    5  A    between atoms: C_4  and  C_5
REMARK    6  A    between atoms: C_6  and  C_7
REMARK    7  A    between atoms: C_11  and  C_12
REMARK    8  A    between atoms: C_15  and  S_16
REMARK    9  A    between atoms: S_16  and  N_19
REMARK   10  A    between atoms: N_19  and  C_20
REMARK   11  A    between atoms: C_21  and  C_22
REMARK   12  A    between atoms: N_24  and  C_25
REMARK   13  A    between atoms: C_26  and  C_27
REMARK                            x       y       z     vdW  Elec       q    Type
REMARK                         _______ _______ _______ _____ _____    ______ ____
ROOT
ATOM      1  C   UNL     1       2.106   7.094  19.013  0.00  0.00    +0.000 A 
ATOM      2  C   UNL     1       1.861   8.226  18.210  0.00  0.00    +0.000 A 
ATOM      3  C   UNL     1       1.324   9.402  18.739  0.00  0.00    +0.000 A 
ATOM      4  C   UNL     1       0.978   9.460  20.086  0.00  0.00    +0.000 A 
ATOM      5  C   UNL     1       1.188   8.354  20.911  0.00  0.00    +0.000 A 
ATOM      6  C   UNL     1       1.743   7.184  20.371  0.00  0.00    +0.000 A 
ENDROOT
BRANCH   1  11
ATOM      7  C   UNL     1       4.809   4.661  17.799  0.00  0.00    +0.000 A 
ATOM      8  C   UNL     1       4.014   3.605  17.335  0.00  0.00    +0.000 A 
ATOM      9  C   UNL     1       2.629   3.700  17.375  0.00  0.00    +0.000 A 
ATOM     10  C   UNL     1       2.026   4.841  17.900  0.00  0.00    +0.000 A 
ATOM     11  C   UNL     1       2.782   5.892  18.458  0.00  0.00    +0.000 A 
ATOM     12  C   UNL     1       4.186   5.767  18.407  0.00  0.00    +0.000 A 
BRANCH   7  13
ATOM     13  C   UNL     1       6.310   4.630  17.561  0.00  0.00    +0.000 C 
BRANCH  13  14
ATOM     14  N   UNL     1       6.810   5.587  16.558  0.00  0.00    +0.000 NA
BRANCH  14  16
ATOM     15  C   UNL     1       6.462   4.169  14.495  0.00  0.00    +0.000 C 
ATOM     16  C   UNL     1       6.091   5.417  15.285  0.00  0.00    +0.000 C 
ENDBRANCH  14  16
BRANCH  14  17
ATOM     17  C   UNL     1       6.786   6.969  17.078  0.00  0.00    +0.000 C 
ATOM     18  C   UNL     1       7.900   7.377  18.044  0.00  0.00    +0.000 C 
ENDBRANCH  14  17
ENDBRANCH  13  14
ENDBRANCH   7  13
ENDBRANCH   1  11
BRANCH   4  19
ATOM     19  S   UNL     1       0.406  11.006  20.749  0.00  0.00    +0.000 S 
ATOM     20  O   UNL     1      -0.740  10.725  21.598  0.00  0.00    +0.000 OA
ATOM     21  O   UNL     1       1.551  11.719  21.261  0.00  0.00    +0.000 OA
BRANCH  19  22
ATOM     22  N   UNL     1      -0.236  11.794  19.376  0.00  0.00    +0.000 N 
ATOM     23  H   UNL     1       0.253  11.344  18.598  0.00  0.00    +0.000 HD
BRANCH  22  24
ATOM     24  C   UNL     1      -1.630  11.806  19.209  0.00  0.00    +0.000 A 
ATOM     25  C   UNL     1      -2.570  12.650  19.859  0.00  0.00    +0.000 A 
ATOM     26  C   UNL     1      -2.353  13.746  20.832  0.00  0.00    +0.000 C 
ATOM     27  N   UNL     1      -3.818  12.410  19.438  0.00  0.00    +0.000 NA
ATOM     28  N   UNL     1      -3.677  11.441  18.520  0.00  0.00    +0.000 N 
ATOM     29  C   UNL     1      -4.862  10.943  17.857  0.00  0.00    +0.000 C 
ATOM     30  C   UNL     1      -2.373  11.075  18.302  0.00  0.00    +0.000 A 
ATOM     31  C   UNL     1      -1.961  10.068  17.291  0.00  0.00    +0.000 C 
ENDBRANCH  22  24
ENDBRANCH  19  22
ENDBRANCH   4  19
TORSDOF 8
ENDMDL
MODEL 8
REMARK VINA RESULT:      -7.8      2.298      3.112
REMARK  Name = 
REMARK  13 active torsions:
REMARK  status: ('A' for Active; 'I' for Inactive)
REMARK    1  A    between atoms: C_1  and  C_2
REMARK    2  A    between atoms: C_2  and  N_3
REMARK    3  A    between atoms: N_3  and  C_4
REMARK    4  A    between atoms: N_3  and  C_6
REMARK    5  A    between atoms: C_4  and  C_5
REMARK    6  A    between atoms: C_6  and  C_7
REMARK    7  A    between atoms: C_11  and  C_12
REMARK    8  A    between atoms: C_15  and  S_16
REMARK    9  A    between atoms: S_16  and  N_19
REMARK   10  A    between atoms: N_19  and  C_20
REMARK   11  A    between atoms: C_21  and  C_22
REMARK   12  A    between atoms: N_24  and  C_25
REMARK   13  A    between atoms: C_26  and  C_27
REMARK                            x       y       z     vdW  Elec       q    Type
REMARK                         _______ _______ _______ _____ _____    ______ ____
ROOT
ATOM      1  C   UNL     1       2.252   7.158  19.107  0.00  0.00    +0.000 A 
ATOM      2  C   UNL     1       2.071   8.291  18.288  0.00  0.00    +0.000 A 
ATOM      3  C   UNL     1       1.478   9.461  18.769  0.00  0.00    +0.000 A 
ATOM      4  C   UNL     1       1.011   9.511  20.079  0.00  0.00    +0.000 A 
ATOM      5  C   UNL     1       1.155   8.404  20.917  0.00  0.00    +0.000 A 
ATOM      6  C   UNL     1       1.767   7.241  20.427  0.00  0.00    +0.000 A 
ENDROOT
BRANCH   1  11
ATOM      7  C   UNL     1       5.057   4.665  18.320  0.00  0.00    +0.000 A 
ATOM      8  C   UNL     1       4.345   3.700  17.595  0.00  0.00    +0.000 A 
ATOM      9  C   UNL     1       2.993   3.877  17.330  0.00  0.00    +0.000 A 
ATOM     10  C   UNL     1       2.335   5.009  17.807  0.00  0.00    +0.000 A 
ATOM     11  C   UNL     1       2.986   5.963  18.614  0.00  0.00    +0.000 A 
ATOM     12  C   UNL     1       4.357   5.757  18.870  0.00  0.00    +0.000 A 
BRANCH   7  13
ATOM     13  C   UNL     1       6.569   4.559  18.425  0.00  0.00    +0.000 C 
BRANCH  13  14
ATOM     14  N   UNL     1       7.328   5.445  17.525  0.00  0.00    +0.000 NA
BRANCH  14  16
ATOM     15  C   UNL     1       6.967   4.901  15.083  0.00  0.00    +0.000 C 
ATOM     16  C   UNL     1       6.554   5.715  16.302  0.00  0.00    +0.000 C 
ENDBRANCH  14  16
BRANCH  14  17
ATOM     17  C   UNL     1       7.779   6.664  18.227  0.00  0.00    +0.000 C 
ATOM     18  C   UNL     1       7.582   8.001  17.510  0.00  0.00    +0.000 C 
ENDBRANCH  14  17
ENDBRANCH  13  14
ENDBRANCH   7  13
ENDBRANCH   1  11
BRANCH   4  19
ATOM     19  S   UNL     1       0.368  11.051  20.691  0.00  0.00    +0.000 S 
ATOM     20  O   UNL     1      -0.811  10.751  21.486  0.00  0.00    +0.000 OA
ATOM     21  O   UNL     1       1.468  11.800  21.249  0.00  0.00    +0.000 OA
BRANCH  19  22
ATOM     22  N   UNL     1      -0.224  11.804  19.277  0.00  0.00    +0.000 N 
ATOM     23  H   UNL     1       0.327  11.371  18.532  0.00  0.00    +0.000 HD
BRANCH  22  24
ATOM     24  C   UNL     1      -1.605  11.757  19.028  0.00  0.00    +0.000 A 
ATOM     25  C   UNL     1      -2.294  10.887  18.140  0.00  0.00    +0.000 A 
ATOM     26  C   UNL     1      -1.775   9.796  17.283  0.00  0.00    +0.000 C 
ATOM     27  N   UNL     1      -3.615  11.097  18.174  0.00  0.00    +0.000 NA
ATOM     28  N   UNL     1      -3.773  12.071  19.083  0.00  0.00    +0.000 N 
ATOM     29  C   UNL     1      -5.111  12.540  19.365  0.00  0.00    +0.000 C 
ATOM     30  C   UNL     1      -2.599  12.471  19.670  0.00  0.00    +0.000 A 
ATOM     31  C   UNL     1      -2.526  13.491  20.748  0.00  0.00    +0.000 C 
ENDBRANCH  22  24
ENDBRANCH  19  22
ENDBRANCH   4  19
TORSDOF 8
ENDMDL
MODEL 9
REMARK VINA RESULT:      -7.7      2.313      2.961
REMARK  Name = 
REMARK  13 active torsions:
REMARK  status: ('A' for Active; 'I' for Inactive)
REMARK    1  A    between atoms: C_1  and  C_2
REMARK    2  A    between atoms: C_2  and  N_3
REMARK    3  A    between atoms: N_3  and  C_4
REMARK    4  A    between atoms: N_3  and  C_6
REMARK    5  A    between atoms: C_4  and  C_5
REMARK    6  A    between atoms: C_6  and  C_7
REMARK    7  A    between atoms: C_11  and  C_12
REMARK    8  A    between atoms: C_15  and  S_16
REMARK    9  A    between atoms: S_16  and  N_19
REMARK   10  A    between atoms: N_19  and  C_20
REMARK   11  A    between atoms: C_21  and  C_22
REMARK   12  A    between atoms: N_24  and  C_25
REMARK   13  A    between atoms: C_26  and  C_27
REMARK                            x       y       z     vdW  Elec       q    Type
REMARK                         _______ _______ _______ _____ _____    ______ ____
ROOT
ATOM      1  C   UNL     1       2.254   7.242  19.078  0.00  0.00    +0.000 A 
ATOM      2  C   UNL     1       1.869   7.377  20.427  0.00  0.00    +0.000 A 
ATOM      3  C   UNL     1       1.266   8.542  20.908  0.00  0.00    +0.000 A 
ATOM      4  C   UNL     1       1.071   9.624  20.053  0.00  0.00    +0.000 A 
ATOM      5  C   UNL     1       1.454   9.536  18.714  0.00  0.00    +0.000 A 
ATOM      6  C   UNL     1       2.044   8.355  18.239  0.00  0.00    +0.000 A 
ENDROOT
BRANCH   1  11
ATOM      7  C   UNL     1       4.662   4.461  18.000  0.00  0.00    +0.000 A 
ATOM      8  C   UNL     1       3.756   3.519  17.495  0.00  0.00    +0.000 A 
ATOM      9  C   UNL     1       2.397   3.800  17.464  0.00  0.00    +0.000 A 
ATOM     10  C   UNL     1       1.927   5.015  17.960  0.00  0.00    +0.000 A 
ATOM     11  C   UNL     1       2.789   5.957  18.557  0.00  0.00    +0.000 A 
ATOM     12  C   UNL     1       4.164   5.644  18.578  0.00  0.00    +0.000 A 
BRANCH   7  13
ATOM     13  C   UNL     1       6.156   4.226  17.840  0.00  0.00    +0.000 C 
BRANCH  13  14
ATOM     14  N   UNL     1       6.802   4.992  16.760  0.00  0.00    +0.000 NA
BRANCH  14  16
ATOM     15  C   UNL     1       5.324   6.419  15.288  0.00  0.00    +0.000 C 
ATOM     16  C   UNL     1       5.924   5.051  15.579  0.00  0.00    +0.000 C 
ENDBRANCH  14  16
BRANCH  14  17
ATOM     17  C   UNL     1       7.252   6.315  17.236  0.00  0.00    +0.000 C 
ATOM     18  C   UNL     1       7.833   6.394  18.649  0.00  0.00    +0.000 C 
ENDBRANCH  14  17
ENDBRANCH  13  14
ENDBRANCH   7  13
ENDBRANCH   1  11
BRANCH   4  19
ATOM     19  S   UNL     1       0.198  11.044  20.669  0.00  0.00    +0.000 S 
ATOM     20  O   UNL     1      -0.988  10.566  21.360  0.00  0.00    +0.000 OA
ATOM     21  O   UNL     1       1.153  11.895  21.337  0.00  0.00    +0.000 OA
BRANCH  19  22
ATOM     22  N   UNL     1      -0.381  11.783  19.242  0.00  0.00    +0.000 N 
ATOM     23  H   UNL     1       0.174  11.339  18.507  0.00  0.00    +0.000 HD
BRANCH  22  24
ATOM     24  C   UNL     1      -1.760  11.739  18.985  0.00  0.00    +0.000 A 
ATOM     25  C   UNL     1      -2.442  10.887  18.074  0.00  0.00    +0.000 A 
ATOM     26  C   UNL     1      -1.916   9.814  17.198  0.00  0.00    +0.000 C 
ATOM     27  N   UNL     1      -3.763  11.094  18.105  0.00  0.00    +0.000 NA
ATOM     28  N   UNL     1      -3.928  12.049  19.032  0.00  0.00    +0.000 N 
ATOM     29  C   UNL     1      -5.269  12.509  19.316  0.00  0.00    +0.000 C 
ATOM     30  C   UNL     1      -2.759  12.438  19.635  0.00  0.00    +0.000 A 
ATOM     31  C   UNL     1      -2.694  13.435  20.734  0.00  0.00    +0.000 C 
ENDBRANCH  22  24
ENDBRANCH  19  22
ENDBRANCH   4  19
TORSDOF 8
ENDMDL
