MODEL 1
REMARK VINA RESULT:      -7.3      0.000      0.000
REMARK  Name = 
REMARK  12 active torsions:
REMARK  status: ('A' for Active; 'I' for Inactive)
REMARK    1  A    between atoms: C_1  and  C_2
REMARK    2  A    between atoms: C_2  and  O_3
REMARK    3  A    between atoms: O_3  and  C_4
REMARK    4  A    between atoms: C_4  and  C_5
REMARK    5  A    between atoms: C_5  and  O_6
REMARK    6  A    between atoms: O_6  and  C_7
REMARK    7  A    between atoms: C_11  and  C_12
REMARK    8  A    between atoms: N_14  and  C_15
REMARK    9  A    between atoms: C_15  and  C_16
REMARK   10  A    between atoms: C_15  and  C_22
REMARK   11  A    between atoms: C_22  and  C_23
REMARK   12  A    between atoms: C_22  and  C_24
REMARK                            x       y       z     vdW  Elec       q    Type
REMARK                         _______ _______ _______ _____ _____    ______ ____
ROOT
ATOM      1  C   UNL     1       4.735   4.940  18.300  0.00  0.00    +0.000 C 
ATOM      2  O   UNL     1       5.176   4.375  19.294  0.00  0.00    +0.000 OA
ATOM      3  N   UNL     1       3.549   5.647  18.283  0.00  0.00    +0.000 N 
ATOM      4  H   UNL     1       3.381   6.283  17.518  0.00  0.00    +0.000 HD
ENDROOT
BRANCH   1   9
ATOM      5  C   UNL     1       5.594   4.462  14.629  0.00  0.00    +0.000 A 
ATOM      6  C   UNL     1       6.984   4.603  14.668  0.00  0.00    +0.000 A 
ATOM      7  C   UNL     1       7.627   4.901  15.871  0.00  0.00    +0.000 A 
ATOM      8  C   UNL     1       6.883   5.038  17.044  0.00  0.00    +0.000 A 
ATOM      9  C   UNL     1       5.493   4.880  17.016  0.00  0.00    +0.000 A 
ATOM     10  C   UNL     1       4.852   4.585  15.806  0.00  0.00    +0.000 A 
BRANCH   5  11
ATOM     11  O   UNL     1       5.067   4.133  13.409  0.00  0.00    +0.000 OA
BRANCH  11  12
ATOM     12  C   UNL     1       5.854   3.236  12.622  0.00  0.00    +0.000 C 
BRANCH  12  13
ATOM     13  C   UNL     1       5.039   2.784  11.417  0.00  0.00    +0.000 C 
BRANCH  13  14
ATOM     14  O   UNL     1       3.817   3.521  11.376  0.00  0.00    +0.000 OA
BRANCH  14  16
ATOM     15  C   UNL     1       2.858   4.512   9.423  0.00  0.00    +0.000 C 
ATOM     16  C   UNL     1       3.070   3.227  10.198  0.00  0.00    +0.000 C 
ENDBRANCH  14  16
ENDBRANCH  13  14
ENDBRANCH  12  13
ENDBRANCH  11  12
ENDBRANCH   5  11
ENDBRANCH   1   9
BRANCH   3  17
ATOM     17  C   UNL     1       2.740   5.827  19.491  0.00  0.00    +0.000 C 
BRANCH  17  18
ATOM     18  C   UNL     1       2.111   7.215  19.485  0.00  0.00    +0.000 A 
ATOM     19  C   UNL     1       1.527   7.753  20.643  0.00  0.00    +0.000 A 
ATOM     20  C   UNL     1       0.987   9.040  20.638  0.00  0.00    +0.000 A 
ATOM     21  C   UNL     1       1.025   9.807  19.477  0.00  0.00    +0.000 A 
ATOM     22  C   UNL     1       1.604   9.290  18.320  0.00  0.00    +0.000 A 
ATOM     23  C   UNL     1       2.139   8.000  18.321  0.00  0.00    +0.000 A 
ENDBRANCH  17  18
BRANCH  17  24
ATOM     24  C   UNL     1       1.662   4.706  19.600  0.00  0.00    +0.000 C 
ATOM     25  C   UNL     1       1.468   3.977  18.265  0.00  0.00    +0.000 C 
ATOM     26  C   UNL     1       2.011   3.672  20.679  0.00  0.00    +0.000 C 
ENDBRANCH  17  24
ENDBRANCH   3  17
TORSDOF 9
ENDMDL
MODEL 2
REMARK VINA RESULT:      -7.0      0.484      1.080
REMARK  Name = 
REMARK  12 active torsions:
REMARK  status: ('A' for Active; 'I' for Inactive)
REMARK    1  A    between atoms: C_1  and  C_2
REMARK    2  A    between atoms: C_2  and  O_3
REMARK    3  A    between atoms: O_3  and  C_4
REMARK    4  A    between atoms: C_4  and  C_5
REMARK    5  A    between atoms: C_5  and  O_6
REMARK    6  A    between atoms: O_6  and  C_7
REMARK    7  A    between atoms: C_11  and  C_12
REMARK    8  A    between atoms: N_14  and  C_15
REMARK    9  A    between atoms: C_15  and  C_16
REMARK   10  A    between atoms: C_15  and  C_22
REMARK   11  A    between atoms: C_22  and  C_23
REMARK   12  A    between atoms: C_22  and  C_24
REMARK                            x       y       z     vdW  Elec       q    Type
REMARK                         _______ _______ _______ _____ _____    ______ ____
ROOT
ATOM      1  C   UNL     1       5.006   5.112  18.433  0.00  0.00    +0.000 C 
ATOM      2  O   UNL     1       5.660   4.929  19.453  0.00  0.00    +0.000 OA
ATOM      3  N   UNL     1       3.683   5.508  18.430  0.00  0.00    +0.000 N 
ATOM      4  H   UNL     1       3.294   5.876  17.575  0.00  0.00    +0.000 HD
ENDROOT
BRANCH   1   9
ATOM      5  C   UNL     1       5.615   3.973  14.859  0.00  0.00    +0.000 A 
ATOM      6  C   UNL     1       6.940   4.381  14.679  0.00  0.00    +0.000 A 
ATOM      7  C   UNL     1       7.609   5.064  15.697  0.00  0.00    +0.000 A 
ATOM      8  C   UNL     1       6.961   5.325  16.905  0.00  0.00    +0.000 A 
ATOM      9  C   UNL     1       5.640   4.903  17.099  0.00  0.00    +0.000 A 
ATOM     10  C   UNL     1       4.972   4.221  16.074  0.00  0.00    +0.000 A 
BRANCH   5  11
ATOM     11  O   UNL     1       5.064   3.279  13.815  0.00  0.00    +0.000 OA
BRANCH  11  12
ATOM     12  C   UNL     1       5.502   3.675  12.514  0.00  0.00    +0.000 C 
BRANCH  12  13
ATOM     13  C   UNL     1       4.550   3.103  11.471  0.00  0.00    +0.000 C 
BRANCH  13  14
ATOM     14  O   UNL     1       3.966   4.177  10.734  0.00  0.00    +0.000 OA
BRANCH  14  16
ATOM     15  C   UNL     1       2.323   4.890   9.150  0.00  0.00    +0.000 C 
ATOM     16  C   UNL     1       3.009   3.701   9.790  0.00  0.00    +0.000 C 
ENDBRANCH  14  16
ENDBRANCH  13  14
ENDBRANCH  12  13
ENDBRANCH  11  12
ENDBRANCH   5  11
ENDBRANCH   1   9
BRANCH   3  17
ATOM     17  C   UNL     1       2.962   5.798  19.672  0.00  0.00    +0.000 C 
BRANCH  17  18
ATOM     18  C   UNL     1       2.287   7.160  19.566  0.00  0.00    +0.000 A 
ATOM     19  C   UNL     1       2.253   7.861  18.349  0.00  0.00    +0.000 A 
ATOM     20  C   UNL     1       1.600   9.091  18.252  0.00  0.00    +0.000 A 
ATOM     21  C   UNL     1       0.970   9.636  19.368  0.00  0.00    +0.000 A 
ATOM     22  C   UNL     1       0.991   8.952  20.582  0.00  0.00    +0.000 A 
ATOM     23  C   UNL     1       1.650   7.724  20.683  0.00  0.00    +0.000 A 
ENDBRANCH  17  18
BRANCH  17  24
ATOM     24  C   UNL     1       1.935   4.669  19.987  0.00  0.00    +0.000 C 
ATOM     25  C   UNL     1       1.506   3.925  18.716  0.00  0.00    +0.000 C 
ATOM     26  C   UNL     1       2.487   3.649  20.992  0.00  0.00    +0.000 C 
ENDBRANCH  17  24
ENDBRANCH   3  17
TORSDOF 9
ENDMDL
MODEL 3
REMARK VINA RESULT:      -6.9      3.777      8.062
REMARK  Name = 
REMARK  12 active torsions:
REMARK  status: ('A' for Active; 'I' for Inactive)
REMARK    1  A    between atoms: C_1  and  C_2
REMARK    2  A    between atoms: C_2  and  O_3
REMARK    3  A    between atoms: O_3  and  C_4
REMARK    4  A    between atoms: C_4  and  C_5
REMARK    5  A    between atoms: C_5  and  O_6
REMARK    6  A    between atoms: O_6  and  C_7
REMARK    7  A    between atoms: C_11  and  C_12
REMARK    8  A    between atoms: N_14  and  C_15
REMARK    9  A    between atoms: C_15  and  C_16
REMARK   10  A    between atoms: C_15  and  C_22
REMARK   11  A    between atoms: C_22  and  C_23
REMARK   12  A    between atoms: C_22  and  C_24
REMARK                            x       y       z     vdW  Elec       q    Type
REMARK                         _______ _______ _______ _____ _____    ______ ____
ROOT
ATOM      1  C   UNL     1       2.244   7.815  18.586  0.00  0.00    +0.000 C 
ATOM      2  O   UNL     1       2.405   8.277  17.462  0.00  0.00    +0.000 OA
ATOM      3  N   UNL     1       2.663   6.556  18.965  0.00  0.00    +0.000 N 
ATOM      4  H   UNL     1       2.723   6.346  19.951  0.00  0.00    +0.000 HD
ENDROOT
BRANCH   1   9
ATOM      5  C   UNL     1       0.524  10.696  20.371  0.00  0.00    +0.000 A 
ATOM      6  C   UNL     1       0.439  10.183  21.669  0.00  0.00    +0.000 A 
ATOM      7  C   UNL     1       0.894   8.892  21.945  0.00  0.00    +0.000 A 
ATOM      8  C   UNL     1       1.453   8.117  20.928  0.00  0.00    +0.000 A 
ATOM      9  C   UNL     1       1.557   8.630  19.630  0.00  0.00    +0.000 A 
ATOM     10  C   UNL     1       1.097   9.925  19.357  0.00  0.00    +0.000 A 
BRANCH   5  11
ATOM     11  O   UNL     1       0.086  11.984  20.215  0.00  0.00    +0.000 OA
BRANCH  11  12
ATOM     12  C   UNL     1       0.489  12.626  19.003  0.00  0.00    +0.000 C 
BRANCH  12  13
ATOM     13  C   UNL     1      -0.751  12.991  18.196  0.00  0.00    +0.000 C 
BRANCH  13  14
ATOM     14  O   UNL     1      -1.839  12.167  18.614  0.00  0.00    +0.000 OA
BRANCH  14  16
ATOM     15  C   UNL     1      -1.868  10.120  17.378  0.00  0.00    +0.000 C 
ATOM     16  C   UNL     1      -2.453  11.512  17.506  0.00  0.00    +0.000 C 
ENDBRANCH  14  16
ENDBRANCH  13  14
ENDBRANCH  12  13
ENDBRANCH  11  12
ENDBRANCH   5  11
ENDBRANCH   1   9
BRANCH   3  17
ATOM     17  C   UNL     1       3.397   5.678  18.050  0.00  0.00    +0.000 C 
BRANCH  17  18
ATOM     18  C   UNL     1       4.894   5.925  18.194  0.00  0.00    +0.000 A 
ATOM     19  C   UNL     1       5.636   5.314  19.219  0.00  0.00    +0.000 A 
ATOM     20  C   UNL     1       7.013   5.517  19.321  0.00  0.00    +0.000 A 
ATOM     21  C   UNL     1       7.668   6.329  18.399  0.00  0.00    +0.000 A 
ATOM     22  C   UNL     1       6.948   6.939  17.374  0.00  0.00    +0.000 A 
ATOM     23  C   UNL     1       5.569   6.743  17.274  0.00  0.00    +0.000 A 
ENDBRANCH  17  18
BRANCH  17  24
ATOM     24  C   UNL     1       3.032   4.186  18.310  0.00  0.00    +0.000 C 
ATOM     25  C   UNL     1       1.693   4.052  19.044  0.00  0.00    +0.000 C 
ATOM     26  C   UNL     1       2.963   3.373  17.009  0.00  0.00    +0.000 C 
ENDBRANCH  17  24
ENDBRANCH   3  17
TORSDOF 9
ENDMDL
MODEL 4
REMARK VINA RESULT:      -6.8      3.866      8.998
REMARK  Name = 
REMARK  12 active torsions:
REMARK  status: ('A' for Active; 'I' for Inactive)
REMARK    1  A    between atoms: C_1  and  C_2
REMARK    2  A    between atoms: C_2  and  O_3
REMARK    3  A    between atoms: O_3  and  C_4
REMARK    4  A    between atoms: C_4  and  C_5
REMARK    5  A    between atoms: C_5  and  O_6
REMARK    6  A    between atoms: O_6  and  C_7
REMARK    7  A    between atoms: C_11  and  C_12
REMARK    8  A    between atoms: N_14  and  C_15
REMARK    9  A    between atoms: C_15  and  C_16
REMARK   10  A    between atoms: C_15  and  C_22
REMARK   11  A    between atoms: C_22  and  C_23
REMARK   12  A    between atoms: C_22  and  C_24
REMARK                            x       y       z     vdW  Elec       q    Type
REMARK                         _______ _______ _______ _____ _____    ______ ____
ROOT
ATOM      1  C   UNL     1       2.304   8.027  18.383  0.00  0.00    +0.000 C 
ATOM      2  O   UNL     1       2.466   8.524  17.274  0.00  0.00    +0.000 OA
ATOM      3  N   UNL     1       2.742   6.765  18.730  0.00  0.00    +0.000 N 
ATOM      4  H   UNL     1       2.798   6.528  19.709  0.00  0.00    +0.000 HD
ENDROOT
BRANCH   1   9
ATOM      5  C   UNL     1       0.617  10.857  20.278  0.00  0.00    +0.000 A 
ATOM      6  C   UNL     1       0.430  10.258  21.527  0.00  0.00    +0.000 A 
ATOM      7  C   UNL     1       0.806   8.929  21.731  0.00  0.00    +0.000 A 
ATOM      8  C   UNL     1       1.388   8.200  20.693  0.00  0.00    +0.000 A 
ATOM      9  C   UNL     1       1.595   8.800  19.445  0.00  0.00    +0.000 A 
ATOM     10  C   UNL     1       1.213  10.133  19.243  0.00  0.00    +0.000 A 
BRANCH   5  11
ATOM     11  O   UNL     1       0.250  12.174  20.193  0.00  0.00    +0.000 OA
BRANCH  11  12
ATOM     12  C   UNL     1      -0.861  12.447  19.336  0.00  0.00    +0.000 C 
BRANCH  12  13
ATOM     13  C   UNL     1      -1.937  13.176  20.131  0.00  0.00    +0.000 C 
BRANCH  13  14
ATOM     14  O   UNL     1      -2.784  12.215  20.761  0.00  0.00    +0.000 OA
BRANCH  14  16
ATOM     15  C   UNL     1      -2.514  12.042  23.130  0.00  0.00    +0.000 C 
ATOM     16  C   UNL     1      -3.286  12.699  22.005  0.00  0.00    +0.000 C 
ENDBRANCH  14  16
ENDBRANCH  13  14
ENDBRANCH  12  13
ENDBRANCH  11  12
ENDBRANCH   5  11
ENDBRANCH   1   9
BRANCH   3  17
ATOM     17  C   UNL     1       3.499   5.927  17.795  0.00  0.00    +0.000 C 
BRANCH  17  18
ATOM     18  C   UNL     1       4.991   6.075  18.068  0.00  0.00    +0.000 A 
ATOM     19  C   UNL     1       5.601   5.416  19.148  0.00  0.00    +0.000 A 
ATOM     20  C   UNL     1       6.975   5.528  19.368  0.00  0.00    +0.000 A 
ATOM     21  C   UNL     1       7.758   6.297  18.510  0.00  0.00    +0.000 A 
ATOM     22  C   UNL     1       7.169   6.954  17.432  0.00  0.00    +0.000 A 
ATOM     23  C   UNL     1       5.793   6.849  17.214  0.00  0.00    +0.000 A 
ENDBRANCH  17  18
BRANCH  17  24
ATOM     24  C   UNL     1       3.040   4.441  17.896  0.00  0.00    +0.000 C 
ATOM     25  C   UNL     1       1.522   4.305  17.722  0.00  0.00    +0.000 C 
ATOM     26  C   UNL     1       3.736   3.550  16.857  0.00  0.00    +0.000 C 
ENDBRANCH  17  24
ENDBRANCH   3  17
TORSDOF 9
ENDMDL
MODEL 5
REMARK VINA RESULT:      -6.7      3.996      8.485
REMARK  Name = 
REMARK  12 active torsions:
REMARK  status: ('A' for Active; 'I' for Inactive)
REMARK    1  A    between atoms: C_1  and  C_2
REMARK    2  A    between atoms: C_2  and  O_3
REMARK    3  A    between atoms: O_3  and  C_4
REMARK    4  A    between atoms: C_4  and  C_5
REMARK    5  A    between atoms: C_5  and  O_6
REMARK    6  A    between atoms: O_6  and  C_7
REMARK    7  A    between atoms: C_11  and  C_12
REMARK    8  A    between atoms: N_14  and  C_15
REMARK    9  A    between atoms: C_15  and  C_16
REMARK   10  A    between atoms: C_15  and  C_22
REMARK   11  A    between atoms: C_22  and  C_23
REMARK   12  A    between atoms: C_22  and  C_24
REMARK                            x       y       z     vdW  Elec       q    Type
REMARK                         _______ _______ _______ _____ _____    ______ ____
ROOT
ATOM      1  C   UNL     1       2.347   7.884  18.433  0.00  0.00    +0.000 C 
ATOM      2  O   UNL     1       2.528   8.452  17.362  0.00  0.00    +0.000 OA
ATOM      3  N   UNL     1       2.809   6.614  18.715  0.00  0.00    +0.000 N 
ATOM      4  H   UNL     1       2.843   6.318  19.679  0.00  0.00    +0.000 HD
ENDROOT
BRANCH   1   9
ATOM      5  C   UNL     1       0.217  10.408  20.313  0.00  0.00    +0.000 A 
ATOM      6  C   UNL     1       0.325   9.918  21.617  0.00  0.00    +0.000 A 
ATOM      7  C   UNL     1       1.045   8.749  21.871  0.00  0.00    +0.000 A 
ATOM      8  C   UNL     1       1.675   8.076  20.823  0.00  0.00    +0.000 A 
ATOM      9  C   UNL     1       1.586   8.571  19.517  0.00  0.00    +0.000 A 
ATOM     10  C   UNL     1       0.861   9.743  19.266  0.00  0.00    +0.000 A 
BRANCH   5  11
ATOM     11  O   UNL     1      -0.478  11.580  20.177  0.00  0.00    +0.000 OA
BRANCH  11  12
ATOM     12  C   UNL     1      -1.515  11.568  19.194  0.00  0.00    +0.000 C 
BRANCH  12  13
ATOM     13  C   UNL     1      -2.568  12.605  19.567  0.00  0.00    +0.000 C 
BRANCH  13  14
ATOM     14  O   UNL     1      -3.864  12.069  19.300  0.00  0.00    +0.000 OA
BRANCH  14  16
ATOM     15  C   UNL     1      -5.375  11.212  17.658  0.00  0.00    +0.000 C 
ATOM     16  C   UNL     1      -3.924  11.469  18.008  0.00  0.00    +0.000 C 
ENDBRANCH  14  16
ENDBRANCH  13  14
ENDBRANCH  12  13
ENDBRANCH  11  12
ENDBRANCH   5  11
ENDBRANCH   1   9
BRANCH   3  17
ATOM     17  C   UNL     1       3.616   5.855  17.755  0.00  0.00    +0.000 C 
BRANCH  17  18
ATOM     18  C   UNL     1       5.095   6.050  18.063  0.00  0.00    +0.000 A 
ATOM     19  C   UNL     1       5.705   5.396  19.146  0.00  0.00    +0.000 A 
ATOM     20  C   UNL     1       7.069   5.551  19.398  0.00  0.00    +0.000 A 
ATOM     21  C   UNL     1       7.843   6.359  18.569  0.00  0.00    +0.000 A 
ATOM     22  C   UNL     1       7.255   7.012  17.488  0.00  0.00    +0.000 A 
ATOM     23  C   UNL     1       5.889   6.864  17.238  0.00  0.00    +0.000 A 
ENDBRANCH  17  18
BRANCH  17  24
ATOM     24  C   UNL     1       3.217   4.349  17.774  0.00  0.00    +0.000 C 
ATOM     25  C   UNL     1       1.702   4.163  17.628  0.00  0.00    +0.000 C 
ATOM     26  C   UNL     1       3.920   3.551  16.666  0.00  0.00    +0.000 C 
ENDBRANCH  17  24
ENDBRANCH   3  17
TORSDOF 9
ENDMDL
MODEL 6
REMARK VINA RESULT:      -6.7      3.344      6.301
REMARK  Name = 
REMARK  12 active torsions:
REMARK  status: ('A' for Active; 'I' for Inactive)
REMARK    1  A    between atoms: C_1  and  C_2
REMARK    2  A    between atoms: C_2  and  O_3
REMARK    3  A    between atoms: O_3  and  C_4
REMARK    4  A    between atoms: C_4  and  C_5
REMARK    5  A    between atoms: C_5  and  O_6
REMARK    6  A    between atoms: O_6  and  C_7
REMARK    7  A    between atoms: C_11  and  C_12
REMARK    8  A    between atoms: N_14  and  C_15
REMARK    9  A    between atoms: C_15  and  C_16
REMARK   10  A    between atoms: C_15  and  C_22
REMARK   11  A    between atoms: C_22  and  C_23
REMARK   12  A    between atoms: C_22  and  C_24
REMARK                            x       y       z     vdW  Elec       q    Type
REMARK                         _______ _______ _______ _____ _____    ______ ____
ROOT
ATOM      1  C   UNL     1       1.824   9.553  18.365  0.00  0.00    +0.000 C 
ATOM      2  O   UNL     1       2.377  10.387  17.657  0.00  0.00    +0.000 OA
ATOM      3  N   UNL     1       0.669   9.800  19.081  0.00  0.00    +0.000 N 
ATOM      4  H   UNL     1       0.144   9.013  19.430  0.00  0.00    +0.000 HD
ENDROOT
BRANCH   1   9
ATOM      5  C   UNL     1       3.692   6.336  17.591  0.00  0.00    +0.000 A 
ATOM      6  C   UNL     1       3.316   5.548  18.683  0.00  0.00    +0.000 A 
ATOM      7  C   UNL     1       2.502   6.080  19.685  0.00  0.00    +0.000 A 
ATOM      8  C   UNL     1       2.046   7.395  19.588  0.00  0.00    +0.000 A 
ATOM      9  C   UNL     1       2.403   8.184  18.488  0.00  0.00    +0.000 A 
ATOM     10  C   UNL     1       3.222   7.647  17.486  0.00  0.00    +0.000 A 
BRANCH   5  11
ATOM     11  O   UNL     1       4.459   5.708  16.646  0.00  0.00    +0.000 OA
BRANCH  11  12
ATOM     12  C   UNL     1       5.053   4.475  17.058  0.00  0.00    +0.000 C 
BRANCH  12  13
ATOM     13  C   UNL     1       6.445   4.364  16.449  0.00  0.00    +0.000 C 
BRANCH  13  14
ATOM     14  O   UNL     1       7.419   4.479  17.487  0.00  0.00    +0.000 OA
BRANCH  14  16
ATOM     15  C   UNL     1       7.843   5.788  19.442  0.00  0.00    +0.000 C 
ATOM     16  C   UNL     1       7.518   5.819  17.963  0.00  0.00    +0.000 C 
ENDBRANCH  14  16
ENDBRANCH  13  14
ENDBRANCH  12  13
ENDBRANCH  11  12
ENDBRANCH   5  11
ENDBRANCH   1   9
BRANCH   3  17
ATOM     17  C   UNL     1      -0.027  11.087  19.002  0.00  0.00    +0.000 C 
BRANCH  17  18
ATOM     18  C   UNL     1      -1.408  10.885  18.391  0.00  0.00    +0.000 A 
ATOM     19  C   UNL     1      -2.504  11.664  18.797  0.00  0.00    +0.000 A 
ATOM     20  C   UNL     1      -3.757  11.498  18.205  0.00  0.00    +0.000 A 
ATOM     21  C   UNL     1      -3.932  10.553  17.197  0.00  0.00    +0.000 A 
ATOM     22  C   UNL     1      -2.854   9.774  16.779  0.00  0.00    +0.000 A 
ATOM     23  C   UNL     1      -1.601   9.935  17.375  0.00  0.00    +0.000 A 
ENDBRANCH  17  18
BRANCH  17  24
ATOM     24  C   UNL     1      -0.112  11.751  20.409  0.00  0.00    +0.000 C 
ATOM     25  C   UNL     1      -0.083  10.706  21.531  0.00  0.00    +0.000 C 
ATOM     26  C   UNL     1       1.026  12.755  20.643  0.00  0.00    +0.000 C 
ENDBRANCH  17  24
ENDBRANCH   3  17
TORSDOF 9
ENDMDL
MODEL 7
REMARK VINA RESULT:      -6.7      3.706      7.953
REMARK  Name = 
REMARK  12 active torsions:
REMARK  status: ('A' for Active; 'I' for Inactive)
REMARK    1  A    between atoms: C_1  and  C_2
REMARK    2  A    between atoms: C_2  and  O_3
REMARK    3  A    between atoms: O_3  and  C_4
REMARK    4  A    between atoms: C_4  and  C_5
REMARK    5  A    between atoms: C_5  and  O_6
REMARK    6  A    between atoms: O_6  and  C_7
REMARK    7  A    between atoms: C_11  and  C_12
REMARK    8  A    between atoms: N_14  and  C_15
REMARK    9  A    between atoms: C_15  and  C_16
REMARK   10  A    between atoms: C_15  and  C_22
REMARK   11  A    between atoms: C_22  and  C_23
REMARK   12  A    between atoms: C_22  and  C_24
REMARK                            x       y       z     vdW  Elec       q    Type
REMARK                         _______ _______ _______ _____ _____    ______ ____
ROOT
ATOM      1  C   UNL     1       2.553   7.613  18.243  0.00  0.00    +0.000 C 
ATOM      2  O   UNL     1       2.797   8.058  17.127  0.00  0.00    +0.000 OA
ATOM      3  N   UNL     1       2.982   6.378  18.687  0.00  0.00    +0.000 N 
ATOM      4  H   UNL     1       2.961   6.191  19.678  0.00  0.00    +0.000 HD
ENDROOT
BRANCH   1   9
ATOM      5  C   UNL     1       0.488  10.420  19.761  0.00  0.00    +0.000 A 
ATOM      6  C   UNL     1       0.399   9.987  21.087  0.00  0.00    +0.000 A 
ATOM      7  C   UNL     1       0.964   8.769  21.469  0.00  0.00    +0.000 A 
ATOM      8  C   UNL     1       1.638   7.988  20.529  0.00  0.00    +0.000 A 
ATOM      9  C   UNL     1       1.747   8.423  19.203  0.00  0.00    +0.000 A 
ATOM     10  C   UNL     1       1.176   9.645  18.824  0.00  0.00    +0.000 A 
BRANCH   5  11
ATOM     11  O   UNL     1      -0.066  11.644  19.500  0.00  0.00    +0.000 OA
BRANCH  11  12
ATOM     12  C   UNL     1      -1.480  11.646  19.293  0.00  0.00    +0.000 C 
BRANCH  12  13
ATOM     13  C   UNL     1      -1.779  11.143  17.886  0.00  0.00    +0.000 C 
BRANCH  13  14
ATOM     14  O   UNL     1      -2.778  10.125  17.958  0.00  0.00    +0.000 OA
BRANCH  14  16
ATOM     15  C   UNL     1      -3.923  10.990  16.045  0.00  0.00    +0.000 C 
ATOM     16  C   UNL     1      -4.042  10.604  17.505  0.00  0.00    +0.000 C 
ENDBRANCH  14  16
ENDBRANCH  13  14
ENDBRANCH  12  13
ENDBRANCH  11  12
ENDBRANCH   5  11
ENDBRANCH   1   9
BRANCH   3  17
ATOM     17  C   UNL     1       3.825   5.511  17.861  0.00  0.00    +0.000 C 
BRANCH  17  18
ATOM     18  C   UNL     1       5.292   5.860  18.084  0.00  0.00    +0.000 A 
ATOM     19  C   UNL     1       5.968   6.742  17.224  0.00  0.00    +0.000 A 
ATOM     20  C   UNL     1       7.300   7.085  17.458  0.00  0.00    +0.000 A 
ATOM     21  C   UNL     1       7.974   6.555  18.555  0.00  0.00    +0.000 A 
ATOM     22  C   UNL     1       7.317   5.682  19.420  0.00  0.00    +0.000 A 
ATOM     23  C   UNL     1       5.986   5.332  19.184  0.00  0.00    +0.000 A 
ENDBRANCH  17  18
BRANCH  17  24
ATOM     24  C   UNL     1       3.537   4.011  18.169  0.00  0.00    +0.000 C 
ATOM     25  C   UNL     1       2.682   3.848  19.432  0.00  0.00    +0.000 C 
ATOM     26  C   UNL     1       2.830   3.307  17.002  0.00  0.00    +0.000 C 
ENDBRANCH  17  24
ENDBRANCH   3  17
TORSDOF 9
ENDMDL
MODEL 8
REMARK VINA RESULT:      -6.7      1.104      1.809
REMARK  Name = 
REMARK  12 active torsions:
REMARK  status: ('A' for Active; 'I' for Inactive)
REMARK    1  A    between atoms: C_1  and  C_2
REMARK    2  A    between atoms: C_2  and  O_3
REMARK    3  A    between atoms: O_3  and  C_4
REMARK    4  A    between atoms: C_4  and  C_5
REMARK    5  A    between atoms: C_5  and  O_6
REMARK    6  A    between atoms: O_6  and  C_7
REMARK    7  A    between atoms: C_11  and  C_12
REMARK    8  A    between atoms: N_14  and  C_15
REMARK    9  A    between atoms: C_15  and  C_16
REMARK   10  A    between atoms: C_15  and  C_22
REMARK   11  A    between atoms: C_22  and  C_23
REMARK   12  A    between atoms: C_22  and  C_24
REMARK                            x       y       z     vdW  Elec       q    Type
REMARK                         _______ _______ _______ _____ _____    ______ ____
ROOT
ATOM      1  C   UNL     1       4.657   5.069  18.606  0.00  0.00    +0.000 C 
ATOM      2  O   UNL     1       5.087   4.497  19.601  0.00  0.00    +0.000 OA
ATOM      3  N   UNL     1       3.460   5.757  18.573  0.00  0.00    +0.000 N 
ATOM      4  H   UNL     1       3.297   6.401  17.813  0.00  0.00    +0.000 HD
ENDROOT
BRANCH   1   9
ATOM      5  C   UNL     1       5.992   4.023  15.205  0.00  0.00    +0.000 A 
ATOM      6  C   UNL     1       7.058   4.915  15.059  0.00  0.00    +0.000 A 
ATOM      7  C   UNL     1       7.306   5.879  16.038  0.00  0.00    +0.000 A 
ATOM      8  C   UNL     1       6.500   5.942  17.176  0.00  0.00    +0.000 A 
ATOM      9  C   UNL     1       5.442   5.040  17.337  0.00  0.00    +0.000 A 
ATOM     10  C   UNL     1       5.195   4.075  16.351  0.00  0.00    +0.000 A 
BRANCH   5  11
ATOM     11  O   UNL     1       5.859   3.093  14.208  0.00  0.00    +0.000 OA
BRANCH  11  12
ATOM     12  C   UNL     1       6.144   3.563  12.889  0.00  0.00    +0.000 C 
BRANCH  12  13
ATOM     13  C   UNL     1       4.888   3.444  12.035  0.00  0.00    +0.000 C 
BRANCH  13  14
ATOM     14  O   UNL     1       4.971   2.257  11.246  0.00  0.00    +0.000 OA
BRANCH  14  16
ATOM     15  C   UNL     1       6.174   0.191  11.258  0.00  0.00    +0.000 C 
ATOM     16  C   UNL     1       6.284   1.702  11.277  0.00  0.00    +0.000 C 
ENDBRANCH  14  16
ENDBRANCH  13  14
ENDBRANCH  12  13
ENDBRANCH  11  12
ENDBRANCH   5  11
ENDBRANCH   1   9
BRANCH   3  17
ATOM     17  C   UNL     1       2.623   5.907  19.767  0.00  0.00    +0.000 C 
BRANCH  17  18
ATOM     18  C   UNL     1       1.998   7.296  19.783  0.00  0.00    +0.000 A 
ATOM     19  C   UNL     1       2.057   8.133  18.657  0.00  0.00    +0.000 A 
ATOM     20  C   UNL     1       1.450   9.390  18.668  0.00  0.00    +0.000 A 
ATOM     21  C   UNL     1       0.772   9.826  19.803  0.00  0.00    +0.000 A 
ATOM     22  C   UNL     1       0.700   9.006  20.928  0.00  0.00    +0.000 A 
ATOM     23  C   UNL     1       1.313   7.751  20.921  0.00  0.00    +0.000 A 
ENDBRANCH  17  18
BRANCH  17  24
ATOM     24  C   UNL     1       1.540   4.787  19.820  0.00  0.00    +0.000 C 
ATOM     25  C   UNL     1       1.439   4.034  18.488  0.00  0.00    +0.000 C 
ATOM     26  C   UNL     1       1.814   3.772  20.939  0.00  0.00    +0.000 C 
ENDBRANCH  17  24
ENDBRANCH   3  17
TORSDOF 9
ENDMDL
MODEL 9
REMARK VINA RESULT:      -6.7      3.998      9.155
REMARK  Name = 
REMARK  12 active torsions:
REMARK  status: ('A' for Active; 'I' for Inactive)
REMARK    1  A    between atoms: C_1  and  C_2
REMARK    2  A    between atoms: C_2  and  O_3
REMARK    3  A    between atoms: O_3  and  C_4
REMARK    4  A    between atoms: C_4  and  C_5
REMARK    5  A    between atoms: C_5  and  O_6
REMARK    6  A    between atoms: O_6  and  C_7
REMARK    7  A    between atoms: C_11  and  C_12
REMARK    8  A    between atoms: N_14  and  C_15
REMARK    9  A    between atoms: C_15  and  C_16
REMARK   10  A    between atoms: C_15  and  C_22
REMARK   11  A    between atoms: C_22  and  C_23
REMARK   12  A    between atoms: C_22  and  C_24
REMARK                            x       y       z     vdW  Elec       q    Type
REMARK                         _______ _______ _______ _____ _____    ______ ____
ROOT
ATOM      1  C   UNL     1       2.417   7.916  18.231  0.00  0.00    +0.000 C 
ATOM      2  O   UNL     1       2.631   8.402  17.126  0.00  0.00    +0.000 OA
ATOM      3  N   UNL     1       2.834   6.655  18.608  0.00  0.00    +0.000 N 
ATOM      4  H   UNL     1       2.845   6.427  19.591  0.00  0.00    +0.000 HD
ENDROOT
BRANCH   1   9
ATOM      5  C   UNL     1       0.503  10.712  19.951  0.00  0.00    +0.000 A 
ATOM      6  C   UNL     1       0.418  10.207  21.252  0.00  0.00    +0.000 A 
ATOM      7  C   UNL     1       0.938   8.945  21.551  0.00  0.00    +0.000 A 
ATOM      8  C   UNL     1       1.560   8.194  20.553  0.00  0.00    +0.000 A 
ATOM      9  C   UNL     1       1.664   8.701  19.253  0.00  0.00    +0.000 A 
ATOM     10  C   UNL     1       1.139   9.966  18.957  0.00  0.00    +0.000 A 
BRANCH   5  11
ATOM     11  O   UNL     1      -0.003  11.972  19.773  0.00  0.00    +0.000 OA
BRANCH  11  12
ATOM     12  C   UNL     1      -1.429  12.068  19.780  0.00  0.00    +0.000 C 
BRANCH  12  13
ATOM     13  C   UNL     1      -1.842  13.298  20.579  0.00  0.00    +0.000 C 
BRANCH  13  14
ATOM     14  O   UNL     1      -3.102  13.048  21.202  0.00  0.00    +0.000 OA
BRANCH  14  16
ATOM     15  C   UNL     1      -2.672  12.032  23.323  0.00  0.00    +0.000 C 
ATOM     16  C   UNL     1      -3.051  13.310  22.603  0.00  0.00    +0.000 C 
ENDBRANCH  14  16
ENDBRANCH  13  14
ENDBRANCH  12  13
ENDBRANCH  11  12
ENDBRANCH   5  11
ENDBRANCH   1   9
BRANCH   3  17
ATOM     17  C   UNL     1       3.628   5.806  17.717  0.00  0.00    +0.000 C 
BRANCH  17  18
ATOM     18  C   UNL     1       5.110   5.994  18.017  0.00  0.00    +0.000 A 
ATOM     19  C   UNL     1       5.914   6.823  17.218  0.00  0.00    +0.000 A 
ATOM     20  C   UNL     1       7.262   7.019  17.521  0.00  0.00    +0.000 A 
ATOM     21  C   UNL     1       7.825   6.392  18.630  0.00  0.00    +0.000 A 
ATOM     22  C   UNL     1       7.040   5.568  19.436  0.00  0.00    +0.000 A 
ATOM     23  C   UNL     1       5.693   5.366  19.129  0.00  0.00    +0.000 A 
ENDBRANCH  17  18
BRANCH  17  24
ATOM     24  C   UNL     1       3.198   4.314  17.853  0.00  0.00    +0.000 C 
ATOM     25  C   UNL     1       1.677   4.153  17.743  0.00  0.00    +0.000 C 
ATOM     26  C   UNL     1       3.865   3.422  16.796  0.00  0.00    +0.000 C 
ENDBRANCH  17  24
ENDBRANCH   3  17
TORSDOF 9
ENDMDL
