MODEL 1
REMARK VINA RESULT:      -8.5      0.000      0.000
REMARK  Name = 
REMARK  10 active torsions:
REMARK  status: ('A' for Active; 'I' for Inactive)
REMARK    1  A    between atoms: C_2  and  C_3
REMARK    2  A    between atoms: C_3  and  N_4
REMARK    3  A    between atoms: C_5  and  S_6
REMARK    4  A    between atoms: S_6  and  C_7
REMARK    5  A    between atoms: C_7  and  C_8
REMARK    6  A    between atoms: N_10  and  C_11
REMARK    7  A    between atoms: C_20  and  C_21
REMARK    8  A    between atoms: C_21  and  C_22
REMARK    9  A    between atoms: C_21  and  N_23
REMARK   10  A    between atoms: C_24  and  C_26
REMARK                            x       y       z     vdW  Elec       q    Type
REMARK                         _______ _______ _______ _____ _____    ______ ____
ROOT
ATOM      1  N   UNL     1       4.744   5.143  18.347  0.00  0.00    +0.000 N 
ATOM      2  C   UNL     1       4.861   4.270  19.397  0.00  0.00    +0.000 A 
ATOM      3  N   UNL     1       6.008   4.454  20.005  0.00  0.00    +0.000 NA
ATOM      4  N   UNL     1       6.686   5.431  19.320  0.00  0.00    +0.000 NA
ATOM      5  C   UNL     1       5.927   5.854  18.323  0.00  0.00    +0.000 A 
ENDROOT
BRANCH   5   6
ATOM      6  C   UNL     1       6.279   6.921  17.324  0.00  0.00    +0.000 C 
ATOM      7  C   UNL     1       7.674   7.486  17.592  0.00  0.00    +0.000 C 
BRANCH   6   8
ATOM      8  N   UNL     1       6.211   6.336  15.990  0.00  0.00    +0.000 N 
ATOM      9  C   UNL     1       6.981   5.251  15.626  0.00  0.00    +0.000 C 
ATOM     10  O   UNL     1       7.839   4.764  16.355  0.00  0.00    +0.000 OA
ATOM     11  H   UNL     1       5.405   6.575  15.422  0.00  0.00    +0.000 HD
BRANCH   9  12
ATOM     12  C   UNL     1       6.712   4.648  14.292  0.00  0.00    +0.000 A 
ATOM     13  C   UNL     1       5.613   3.789  14.133  0.00  0.00    +0.000 A 
ATOM     14  C   UNL     1       5.343   3.209  12.888  0.00  0.00    +0.000 A 
ATOM     15  C   UNL     1       6.177   3.468  11.799  0.00  0.00    +0.000 A 
ATOM     16  C   UNL     1       7.279   4.306  11.956  0.00  0.00    +0.000 A 
ATOM     17  C   UNL     1       7.539   4.890  13.194  0.00  0.00    +0.000 A 
ATOM     18  F   UNL     1       8.616   5.682  13.304  0.00  0.00    +0.000 F 
ENDBRANCH   9  12
ENDBRANCH   6   8
ENDBRANCH   5   6
BRANCH   1  19
ATOM     19  C   UNL     1       3.629   5.271  17.424  0.00  0.00    +0.000 C 
BRANCH  19  21
ATOM     20  C   UNL     1       2.061   3.270  17.068  0.00  0.00    +0.000 C 
ATOM     21  C   UNL     1       3.160   3.986  16.791  0.00  0.00    +0.000 C 
ENDBRANCH  19  21
ENDBRANCH   1  19
BRANCH   2  22
ATOM     22  S   UNL     1       3.658   3.111  19.839  0.00  0.00    +0.000 S 
BRANCH  22  23
ATOM     23  C   UNL     1       2.813   3.957  21.206  0.00  0.00    +0.000 C 
BRANCH  23  24
ATOM     24  C   UNL     1       1.873   5.021  20.671  0.00  0.00    +0.000 C 
ATOM     25  O   UNL     1       0.847   4.701  20.071  0.00  0.00    +0.000 OA
ATOM     26  N   UNL     1       2.291   6.318  20.913  0.00  0.00    +0.000 N 
ATOM     27  H   UNL     1       3.262   6.454  21.205  0.00  0.00    +0.000 HD
BRANCH  26  28
ATOM     28  C   UNL     1       1.583   7.498  20.586  0.00  0.00    +0.000 A 
ATOM     29  C   UNL     1       0.561   8.032  21.375  0.00  0.00    +0.000 A 
ATOM     30  C   UNL     1      -0.112   9.194  20.976  0.00  0.00    +0.000 A 
ATOM     31  C   UNL     1       0.235   9.838  19.789  0.00  0.00    +0.000 A 
ATOM     32  C   UNL     1       1.267   9.325  19.003  0.00  0.00    +0.000 A 
ATOM     33  C   UNL     1       1.935   8.172  19.411  0.00  0.00    +0.000 A 
ATOM     34  F   UNL     1       2.925   7.696  18.641  0.00  0.00    +0.000 F 
ENDBRANCH  26  28
ENDBRANCH  23  24
ENDBRANCH  22  23
ENDBRANCH   2  22
TORSDOF 9
ENDMDL
MODEL 2
REMARK VINA RESULT:      -8.3      1.185      1.674
REMARK  Name = 
REMARK  10 active torsions:
REMARK  status: ('A' for Active; 'I' for Inactive)
REMARK    1  A    between atoms: C_2  and  C_3
REMARK    2  A    between atoms: C_3  and  N_4
REMARK    3  A    between atoms: C_5  and  S_6
REMARK    4  A    between atoms: S_6  and  C_7
REMARK    5  A    between atoms: C_7  and  C_8
REMARK    6  A    between atoms: N_10  and  C_11
REMARK    7  A    between atoms: C_20  and  C_21
REMARK    8  A    between atoms: C_21  and  C_22
REMARK    9  A    between atoms: C_21  and  N_23
REMARK   10  A    between atoms: C_24  and  C_26
REMARK                            x       y       z     vdW  Elec       q    Type
REMARK                         _______ _______ _______ _____ _____    ______ ____
ROOT
ATOM      1  N   UNL     1       4.758   5.287  18.355  0.00  0.00    +0.000 N 
ATOM      2  C   UNL     1       4.857   4.403  19.398  0.00  0.00    +0.000 A 
ATOM      3  N   UNL     1       6.028   4.526  19.977  0.00  0.00    +0.000 NA
ATOM      4  N   UNL     1       6.736   5.472  19.280  0.00  0.00    +0.000 NA
ATOM      5  C   UNL     1       5.975   5.938  18.304  0.00  0.00    +0.000 A 
ENDROOT
BRANCH   5   6
ATOM      6  C   UNL     1       6.356   6.992  17.302  0.00  0.00    +0.000 C 
ATOM      7  C   UNL     1       7.753   7.542  17.587  0.00  0.00    +0.000 C 
BRANCH   6   8
ATOM      8  N   UNL     1       6.301   6.396  15.972  0.00  0.00    +0.000 N 
ATOM      9  C   UNL     1       7.036   5.277  15.641  0.00  0.00    +0.000 C 
ATOM     10  O   UNL     1       7.854   4.764  16.398  0.00  0.00    +0.000 OA
ATOM     11  H   UNL     1       5.522   6.661  15.380  0.00  0.00    +0.000 HD
BRANCH   9  12
ATOM     12  C   UNL     1       6.781   4.671  14.305  0.00  0.00    +0.000 A 
ATOM     13  C   UNL     1       7.669   4.934  13.249  0.00  0.00    +0.000 A 
ATOM     14  C   UNL     1       7.447   4.377  11.984  0.00  0.00    +0.000 A 
ATOM     15  C   UNL     1       6.330   3.570  11.760  0.00  0.00    +0.000 A 
ATOM     16  C   UNL     1       5.436   3.321  12.800  0.00  0.00    +0.000 A 
ATOM     17  C   UNL     1       5.666   3.869  14.061  0.00  0.00    +0.000 A 
ATOM     18  F   UNL     1       4.776   3.612  15.032  0.00  0.00    +0.000 F 
ENDBRANCH   9  12
ENDBRANCH   6   8
ENDBRANCH   5   6
BRANCH   1  19
ATOM     19  C   UNL     1       3.629   5.476  17.461  0.00  0.00    +0.000 C 
BRANCH  19  21
ATOM     20  C   UNL     1       1.390   4.233  17.273  0.00  0.00    +0.000 C 
ATOM     21  C   UNL     1       2.730   4.279  17.288  0.00  0.00    +0.000 C 
ENDBRANCH  19  21
ENDBRANCH   1  19
BRANCH   2  22
ATOM     22  S   UNL     1       3.609   3.303  19.864  0.00  0.00    +0.000 S 
BRANCH  22  23
ATOM     23  C   UNL     1       2.804   4.209  21.217  0.00  0.00    +0.000 C 
BRANCH  23  24
ATOM     24  C   UNL     1       1.900   5.295  20.664  0.00  0.00    +0.000 C 
ATOM     25  O   UNL     1       0.716   5.059  20.428  0.00  0.00    +0.000 OA
ATOM     26  N   UNL     1       2.535   6.507  20.456  0.00  0.00    +0.000 N 
ATOM     27  H   UNL     1       3.558   6.511  20.463  0.00  0.00    +0.000 HD
BRANCH  26  28
ATOM     28  C   UNL     1       1.925   7.704  20.012  0.00  0.00    +0.000 A 
ATOM     29  C   UNL     1       1.943   8.137  18.685  0.00  0.00    +0.000 A 
ATOM     30  C   UNL     1       1.333   9.345  18.323  0.00  0.00    +0.000 A 
ATOM     31  C   UNL     1       0.694  10.129  19.283  0.00  0.00    +0.000 A 
ATOM     32  C   UNL     1       0.653   9.696  20.609  0.00  0.00    +0.000 A 
ATOM     33  C   UNL     1       1.256   8.490  20.958  0.00  0.00    +0.000 A 
ATOM     34  F   UNL     1       1.204   8.092  22.238  0.00  0.00    +0.000 F 
ENDBRANCH  26  28
ENDBRANCH  23  24
ENDBRANCH  22  23
ENDBRANCH   2  22
TORSDOF 9
ENDMDL
MODEL 3
REMARK VINA RESULT:      -8.1      3.647      9.013
REMARK  Name = 
REMARK  10 active torsions:
REMARK  status: ('A' for Active; 'I' for Inactive)
REMARK    1  A    between atoms: C_2  and  C_3
REMARK    2  A    between atoms: C_3  and  N_4
REMARK    3  A    between atoms: C_5  and  S_6
REMARK    4  A    between atoms: S_6  and  C_7
REMARK    5  A    between atoms: C_7  and  C_8
REMARK    6  A    between atoms: N_10  and  C_11
REMARK    7  A    between atoms: C_20  and  C_21
REMARK    8  A    between atoms: C_21  and  C_22
REMARK    9  A    between atoms: C_21  and  N_23
REMARK   10  A    between atoms: C_24  and  C_26
REMARK                            x       y       z     vdW  Elec       q    Type
REMARK                         _______ _______ _______ _____ _____    ______ ____
ROOT
ATOM      1  N   UNL     1       1.628   8.724  20.004  0.00  0.00    +0.000 N 
ATOM      2  C   UNL     1       2.025   7.502  19.526  0.00  0.00    +0.000 A 
ATOM      3  N   UNL     1       2.131   7.545  18.220  0.00  0.00    +0.000 NA
ATOM      4  N   UNL     1       1.753   8.801  17.817  0.00  0.00    +0.000 NA
ATOM      5  C   UNL     1       1.453   9.518  18.887  0.00  0.00    +0.000 A 
ENDROOT
BRANCH   5   6
ATOM      6  C   UNL     1       0.996  10.950  18.903  0.00  0.00    +0.000 C 
ATOM      7  C   UNL     1       1.949  11.840  18.105  0.00  0.00    +0.000 C 
BRANCH   6   8
ATOM      8  N   UNL     1      -0.348  11.005  18.341  0.00  0.00    +0.000 N 
ATOM      9  C   UNL     1      -1.451  11.314  19.110  0.00  0.00    +0.000 C 
ATOM     10  O   UNL     1      -1.398  11.468  20.326  0.00  0.00    +0.000 OA
ATOM     11  H   UNL     1      -0.424  11.069  17.332  0.00  0.00    +0.000 HD
BRANCH   9  12
ATOM     12  C   UNL     1      -2.745  11.492  18.396  0.00  0.00    +0.000 A 
ATOM     13  C   UNL     1      -2.847  11.106  17.050  0.00  0.00    +0.000 A 
ATOM     14  C   UNL     1      -4.053  11.266  16.358  0.00  0.00    +0.000 A 
ATOM     15  C   UNL     1      -5.160  11.826  16.999  0.00  0.00    +0.000 A 
ATOM     16  C   UNL     1      -5.059  12.227  18.330  0.00  0.00    +0.000 A 
ATOM     17  C   UNL     1      -3.859  12.057  19.019  0.00  0.00    +0.000 A 
ATOM     18  F   UNL     1      -3.801  12.464  20.296  0.00  0.00    +0.000 F 
ENDBRANCH   9  12
ENDBRANCH   6   8
ENDBRANCH   5   6
BRANCH   1  19
ATOM     19  C   UNL     1       1.398   9.100  21.388  0.00  0.00    +0.000 C 
BRANCH  19  21
ATOM     20  C   UNL     1      -0.595   9.405  22.977  0.00  0.00    +0.000 C 
ATOM     21  C   UNL     1      -0.002   8.875  21.897  0.00  0.00    +0.000 C 
ENDBRANCH  19  21
ENDBRANCH   1  19
BRANCH   2  22
ATOM     22  S   UNL     1       2.338   6.124  20.520  0.00  0.00    +0.000 S 
BRANCH  22  23
ATOM     23  C   UNL     1       2.182   4.764  19.327  0.00  0.00    +0.000 C 
BRANCH  23  24
ATOM     24  C   UNL     1       3.526   4.460  18.691  0.00  0.00    +0.000 C 
ATOM     25  O   UNL     1       4.321   3.702  19.246  0.00  0.00    +0.000 OA
ATOM     26  N   UNL     1       3.741   5.112  17.489  0.00  0.00    +0.000 N 
ATOM     27  H   UNL     1       3.118   5.887  17.255  0.00  0.00    +0.000 HD
BRANCH  26  28
ATOM     28  C   UNL     1       4.872   4.964  16.651  0.00  0.00    +0.000 A 
ATOM     29  C   UNL     1       4.938   4.056  15.592  0.00  0.00    +0.000 A 
ATOM     30  C   UNL     1       6.100   3.950  14.817  0.00  0.00    +0.000 A 
ATOM     31  C   UNL     1       7.205   4.756  15.088  0.00  0.00    +0.000 A 
ATOM     32  C   UNL     1       7.144   5.680  16.132  0.00  0.00    +0.000 A 
ATOM     33  C   UNL     1       5.981   5.783  16.893  0.00  0.00    +0.000 A 
ATOM     34  F   UNL     1       5.943   6.678  17.891  0.00  0.00    +0.000 F 
ENDBRANCH  26  28
ENDBRANCH  23  24
ENDBRANCH  22  23
ENDBRANCH   2  22
TORSDOF 9
ENDMDL
MODEL 4
REMARK VINA RESULT:      -8.0      3.430      8.870
REMARK  Name = 
REMARK  10 active torsions:
REMARK  status: ('A' for Active; 'I' for Inactive)
REMARK    1  A    between atoms: C_2  and  C_3
REMARK    2  A    between atoms: C_3  and  N_4
REMARK    3  A    between atoms: C_5  and  S_6
REMARK    4  A    between atoms: S_6  and  C_7
REMARK    5  A    between atoms: C_7  and  C_8
REMARK    6  A    between atoms: N_10  and  C_11
REMARK    7  A    between atoms: C_20  and  C_21
REMARK    8  A    between atoms: C_21  and  C_22
REMARK    9  A    between atoms: C_21  and  N_23
REMARK   10  A    between atoms: C_24  and  C_26
REMARK                            x       y       z     vdW  Elec       q    Type
REMARK                         _______ _______ _______ _____ _____    ______ ____
ROOT
ATOM      1  N   UNL     1       1.543   8.277  20.266  0.00  0.00    +0.000 N 
ATOM      2  C   UNL     1       1.939   7.076  19.737  0.00  0.00    +0.000 A 
ATOM      3  N   UNL     1       2.118   7.194  18.444  0.00  0.00    +0.000 NA
ATOM      4  N   UNL     1       1.791   8.481  18.098  0.00  0.00    +0.000 NA
ATOM      5  C   UNL     1       1.449   9.141  19.192  0.00  0.00    +0.000 A 
ENDROOT
BRANCH   5   6
ATOM      6  C   UNL     1       1.023  10.580  19.270  0.00  0.00    +0.000 C 
ATOM      7  C   UNL     1       1.849  11.449  18.322  0.00  0.00    +0.000 C 
BRANCH   6   8
ATOM      8  N   UNL     1      -0.393  10.655  18.932  0.00  0.00    +0.000 N 
ATOM      9  C   UNL     1      -1.168  11.747  19.266  0.00  0.00    +0.000 C 
ATOM     10  O   UNL     1      -0.755  12.679  19.949  0.00  0.00    +0.000 OA
ATOM     11  H   UNL     1      -0.733  10.014  18.224  0.00  0.00    +0.000 HD
BRANCH   9  12
ATOM     12  C   UNL     1      -2.558  11.777  18.734  0.00  0.00    +0.000 A 
ATOM     13  C   UNL     1      -3.604  12.207  19.565  0.00  0.00    +0.000 A 
ATOM     14  C   UNL     1      -4.920  12.242  19.086  0.00  0.00    +0.000 A 
ATOM     15  C   UNL     1      -5.201  11.832  17.782  0.00  0.00    +0.000 A 
ATOM     16  C   UNL     1      -4.168  11.388  16.958  0.00  0.00    +0.000 A 
ATOM     17  C   UNL     1      -2.859  11.364  17.435  0.00  0.00    +0.000 A 
ATOM     18  F   UNL     1      -1.896  10.921  16.613  0.00  0.00    +0.000 F 
ENDBRANCH   9  12
ENDBRANCH   6   8
ENDBRANCH   5   6
BRANCH   1  19
ATOM     19  C   UNL     1       1.245   8.576  21.656  0.00  0.00    +0.000 C 
BRANCH  19  21
ATOM     20  C   UNL     1      -0.813   9.714  22.685  0.00  0.00    +0.000 C 
ATOM     21  C   UNL     1      -0.216   8.738  21.985  0.00  0.00    +0.000 C 
ENDBRANCH  19  21
ENDBRANCH   1  19
BRANCH   2  22
ATOM     22  S   UNL     1       2.166   5.633  20.661  0.00  0.00    +0.000 S 
BRANCH  22  23
ATOM     23  C   UNL     1       2.220   4.366  19.362  0.00  0.00    +0.000 C 
BRANCH  23  24
ATOM     24  C   UNL     1       3.605   4.295  18.747  0.00  0.00    +0.000 C 
ATOM     25  O   UNL     1       4.552   3.850  19.395  0.00  0.00    +0.000 OA
ATOM     26  N   UNL     1       3.673   4.777  17.451  0.00  0.00    +0.000 N 
ATOM     27  H   UNL     1       2.884   5.332  17.112  0.00  0.00    +0.000 HD
BRANCH  26  28
ATOM     28  C   UNL     1       4.817   4.772  16.619  0.00  0.00    +0.000 A 
ATOM     29  C   UNL     1       5.040   3.827  15.614  0.00  0.00    +0.000 A 
ATOM     30  C   UNL     1       6.207   3.873  14.842  0.00  0.00    +0.000 A 
ATOM     31  C   UNL     1       7.160   4.867  15.060  0.00  0.00    +0.000 A 
ATOM     32  C   UNL     1       6.940   5.827  16.048  0.00  0.00    +0.000 A 
ATOM     33  C   UNL     1       5.772   5.778  16.807  0.00  0.00    +0.000 A 
ATOM     34  F   UNL     1       5.579   6.711  17.751  0.00  0.00    +0.000 F 
ENDBRANCH  26  28
ENDBRANCH  23  24
ENDBRANCH  22  23
ENDBRANCH   2  22
TORSDOF 9
ENDMDL
MODEL 5
REMARK VINA RESULT:      -8.0      3.305      4.610
REMARK  Name = 
REMARK  10 active torsions:
REMARK  status: ('A' for Active; 'I' for Inactive)
REMARK    1  A    between atoms: C_2  and  C_3
REMARK    2  A    between atoms: C_3  and  N_4
REMARK    3  A    between atoms: C_5  and  S_6
REMARK    4  A    between atoms: S_6  and  C_7
REMARK    5  A    between atoms: C_7  and  C_8
REMARK    6  A    between atoms: N_10  and  C_11
REMARK    7  A    between atoms: C_20  and  C_21
REMARK    8  A    between atoms: C_21  and  C_22
REMARK    9  A    between atoms: C_21  and  N_23
REMARK   10  A    between atoms: C_24  and  C_26
REMARK                            x       y       z     vdW  Elec       q    Type
REMARK                         _______ _______ _______ _____ _____    ______ ____
ROOT
ATOM      1  N   UNL     1       2.432   6.012  19.621  0.00  0.00    +0.000 N 
ATOM      2  C   UNL     1       2.110   7.345  19.600  0.00  0.00    +0.000 A 
ATOM      3  N   UNL     1       2.269   7.823  18.389  0.00  0.00    +0.000 NA
ATOM      4  N   UNL     1       2.748   6.806  17.603  0.00  0.00    +0.000 NA
ATOM      5  C   UNL     1       2.844   5.710  18.338  0.00  0.00    +0.000 A 
ENDROOT
BRANCH   5   6
ATOM      6  C   UNL     1       3.322   4.363  17.874  0.00  0.00    +0.000 C 
ATOM      7  C   UNL     1       2.149   3.404  17.674  0.00  0.00    +0.000 C 
BRANCH   6   8
ATOM      8  N   UNL     1       4.055   4.544  16.627  0.00  0.00    +0.000 N 
ATOM      9  C   UNL     1       5.416   4.336  16.540  0.00  0.00    +0.000 C 
ATOM     10  O   UNL     1       6.118   4.080  17.513  0.00  0.00    +0.000 OA
ATOM     11  H   UNL     1       3.510   4.572  15.772  0.00  0.00    +0.000 HD
BRANCH   9  12
ATOM     12  C   UNL     1       6.025   4.402  15.183  0.00  0.00    +0.000 A 
ATOM     13  C   UNL     1       5.497   3.608  14.152  0.00  0.00    +0.000 A 
ATOM     14  C   UNL     1       6.055   3.652  12.869  0.00  0.00    +0.000 A 
ATOM     15  C   UNL     1       7.154   4.474  12.612  0.00  0.00    +0.000 A 
ATOM     16  C   UNL     1       7.693   5.251  13.636  0.00  0.00    +0.000 A 
ATOM     17  C   UNL     1       7.128   5.212  14.910  0.00  0.00    +0.000 A 
ATOM     18  F   UNL     1       7.683   5.967  15.870  0.00  0.00    +0.000 F 
ENDBRANCH   9  12
ENDBRANCH   6   8
ENDBRANCH   5   6
BRANCH   1  19
ATOM     19  C   UNL     1       2.390   5.111  20.760  0.00  0.00    +0.000 C 
BRANCH  19  21
ATOM     20  C   UNL     1       1.220   2.869  21.205  0.00  0.00    +0.000 C 
ATOM     21  C   UNL     1       1.238   4.139  20.775  0.00  0.00    +0.000 C 
ENDBRANCH  19  21
ENDBRANCH   1  19
BRANCH   2  22
ATOM     22  S   UNL     1       1.573   8.239  20.977  0.00  0.00    +0.000 S 
BRANCH  22  23
ATOM     23  C   UNL     1       0.367   9.375  20.234  0.00  0.00    +0.000 C 
BRANCH  23  24
ATOM     24  C   UNL     1       0.870  10.804  20.308  0.00  0.00    +0.000 C 
ATOM     25  O   UNL     1       1.185  11.299  21.390  0.00  0.00    +0.000 OA
ATOM     26  N   UNL     1       0.916  11.451  19.085  0.00  0.00    +0.000 N 
ATOM     27  H   UNL     1       0.411  11.023  18.306  0.00  0.00    +0.000 HD
BRANCH  26  28
ATOM     28  C   UNL     1       1.402  12.759  18.851  0.00  0.00    +0.000 A 
ATOM     29  C   UNL     1       2.664  13.033  18.319  0.00  0.00    +0.000 A 
ATOM     30  C   UNL     1       3.086  14.355  18.134  0.00  0.00    +0.000 A 
ATOM     31  C   UNL     1       2.249  15.417  18.472  0.00  0.00    +0.000 A 
ATOM     32  C   UNL     1       0.978  15.156  18.986  0.00  0.00    +0.000 A 
ATOM     33  C   UNL     1       0.564  13.837  19.160  0.00  0.00    +0.000 A 
ATOM     34  F   UNL     1      -0.661  13.608  19.655  0.00  0.00    +0.000 F 
ENDBRANCH  26  28
ENDBRANCH  23  24
ENDBRANCH  22  23
ENDBRANCH   2  22
TORSDOF 9
ENDMDL
MODEL 6
REMARK VINA RESULT:      -8.0      3.337      7.825
REMARK  Name = 
REMARK  10 active torsions:
REMARK  status: ('A' for Active; 'I' for Inactive)
REMARK    1  A    between atoms: C_2  and  C_3
REMARK    2  A    between atoms: C_3  and  N_4
REMARK    3  A    between atoms: C_5  and  S_6
REMARK    4  A    between atoms: S_6  and  C_7
REMARK    5  A    between atoms: C_7  and  C_8
REMARK    6  A    between atoms: N_10  and  C_11
REMARK    7  A    between atoms: C_20  and  C_21
REMARK    8  A    between atoms: C_21  and  C_22
REMARK    9  A    between atoms: C_21  and  N_23
REMARK   10  A    between atoms: C_24  and  C_26
REMARK                            x       y       z     vdW  Elec       q    Type
REMARK                         _______ _______ _______ _____ _____    ______ ____
ROOT
ATOM      1  N   UNL     1       5.091   5.851  17.627  0.00  0.00    +0.000 N 
ATOM      2  C   UNL     1       6.145   5.512  18.435  0.00  0.00    +0.000 A 
ATOM      3  N   UNL     1       5.700   5.020  19.566  0.00  0.00    +0.000 NA
ATOM      4  N   UNL     1       4.329   5.077  19.531  0.00  0.00    +0.000 NA
ATOM      5  C   UNL     1       3.956   5.572  18.362  0.00  0.00    +0.000 A 
ENDROOT
BRANCH   5   6
ATOM      6  C   UNL     1       2.544   5.802  17.901  0.00  0.00    +0.000 C 
ATOM      7  C   UNL     1       1.718   4.520  18.001  0.00  0.00    +0.000 C 
BRANCH   6   8
ATOM      8  N   UNL     1       1.960   6.853  18.726  0.00  0.00    +0.000 N 
ATOM      9  C   UNL     1       1.993   8.180  18.352  0.00  0.00    +0.000 C 
ATOM     10  O   UNL     1       2.592   8.583  17.360  0.00  0.00    +0.000 OA
ATOM     11  H   UNL     1       1.306   6.565  19.446  0.00  0.00    +0.000 HD
BRANCH   9  12
ATOM     12  C   UNL     1       1.231   9.141  19.198  0.00  0.00    +0.000 A 
ATOM     13  C   UNL     1       0.623  10.254  18.597  0.00  0.00    +0.000 A 
ATOM     14  C   UNL     1      -0.096  11.171  19.373  0.00  0.00    +0.000 A 
ATOM     15  C   UNL     1      -0.198  10.992  20.753  0.00  0.00    +0.000 A 
ATOM     16  C   UNL     1       0.419   9.898  21.357  0.00  0.00    +0.000 A 
ATOM     17  C   UNL     1       1.126   8.981  20.580  0.00  0.00    +0.000 A 
ATOM     18  F   UNL     1       1.712   7.947  21.201  0.00  0.00    +0.000 F 
ENDBRANCH   9  12
ENDBRANCH   6   8
ENDBRANCH   5   6
BRANCH   1  19
ATOM     19  C   UNL     1       5.148   6.422  16.292  0.00  0.00    +0.000 C 
BRANCH  19  21
ATOM     20  C   UNL     1       5.392   4.127  15.168  0.00  0.00    +0.000 C 
ATOM     21  C   UNL     1       5.517   5.462  15.191  0.00  0.00    +0.000 C 
ENDBRANCH  19  21
ENDBRANCH   1  19
BRANCH   2  22
ATOM     22  S   UNL     1       7.806   5.708  18.002  0.00  0.00    +0.000 S 
BRANCH  22  23
ATOM     23  C   UNL     1       8.309   7.083  19.076  0.00  0.00    +0.000 C 
BRANCH  23  24
ATOM     24  C   UNL     1       8.361   8.379  18.289  0.00  0.00    +0.000 C 
ATOM     25  O   UNL     1       7.879   8.441  17.158  0.00  0.00    +0.000 OA
ATOM     26  N   UNL     1       8.991   9.418  18.952  0.00  0.00    +0.000 N 
ATOM     27  H   UNL     1       9.552   9.181  19.774  0.00  0.00    +0.000 HD
BRANCH  26  28
ATOM     28  C   UNL     1       9.124  10.746  18.486  0.00  0.00    +0.000 A 
ATOM     29  C   UNL     1       8.109  11.441  17.823  0.00  0.00    +0.000 A 
ATOM     30  C   UNL     1       8.321  12.749  17.371  0.00  0.00    +0.000 A 
ATOM     31  C   UNL     1       9.546  13.379  17.581  0.00  0.00    +0.000 A 
ATOM     32  C   UNL     1      10.561  12.703  18.258  0.00  0.00    +0.000 A 
ATOM     33  C   UNL     1      10.339  11.404  18.711  0.00  0.00    +0.000 A 
ATOM     34  F   UNL     1      11.329  10.772  19.361  0.00  0.00    +0.000 F 
ENDBRANCH  26  28
ENDBRANCH  23  24
ENDBRANCH  22  23
ENDBRANCH   2  22
TORSDOF 9
ENDMDL
MODEL 7
REMARK VINA RESULT:      -7.9      3.331      8.762
REMARK  Name = 
REMARK  10 active torsions:
REMARK  status: ('A' for Active; 'I' for Inactive)
REMARK    1  A    between atoms: C_2  and  C_3
REMARK    2  A    between atoms: C_3  and  N_4
REMARK    3  A    between atoms: C_5  and  S_6
REMARK    4  A    between atoms: S_6  and  C_7
REMARK    5  A    between atoms: C_7  and  C_8
REMARK    6  A    between atoms: N_10  and  C_11
REMARK    7  A    between atoms: C_20  and  C_21
REMARK    8  A    between atoms: C_21  and  C_22
REMARK    9  A    between atoms: C_21  and  N_23
REMARK   10  A    between atoms: C_24  and  C_26
REMARK                            x       y       z     vdW  Elec       q    Type
REMARK                         _______ _______ _______ _____ _____    ______ ____
ROOT
ATOM      1  N   UNL     1       1.825   8.119  19.656  0.00  0.00    +0.000 N 
ATOM      2  C   UNL     1       2.298   7.003  19.016  0.00  0.00    +0.000 A 
ATOM      3  N   UNL     1       2.496   7.266  17.747  0.00  0.00    +0.000 NA
ATOM      4  N   UNL     1       2.106   8.563  17.528  0.00  0.00    +0.000 NA
ATOM      5  C   UNL     1       1.705   9.084  18.675  0.00  0.00    +0.000 A 
ENDROOT
BRANCH   5   6
ATOM      6  C   UNL     1       1.199  10.483  18.891  0.00  0.00    +0.000 C 
ATOM      7  C   UNL     1       2.085  11.504  18.177  0.00  0.00    +0.000 C 
BRANCH   6   8
ATOM      8  N   UNL     1      -0.169  10.555  18.393  0.00  0.00    +0.000 N 
ATOM      9  C   UNL     1      -1.160  11.236  19.069  0.00  0.00    +0.000 C 
ATOM     10  O   UNL     1      -0.991  11.744  20.173  0.00  0.00    +0.000 OA
ATOM     11  H   UNL     1      -0.318  10.318  17.418  0.00  0.00    +0.000 HD
BRANCH   9  12
ATOM     12  C   UNL     1      -2.476  11.370  18.386  0.00  0.00    +0.000 A 
ATOM     13  C   UNL     1      -3.540  11.992  19.058  0.00  0.00    +0.000 A 
ATOM     14  C   UNL     1      -4.787  12.126  18.436  0.00  0.00    +0.000 A 
ATOM     15  C   UNL     1      -4.985  11.625  17.149  0.00  0.00    +0.000 A 
ATOM     16  C   UNL     1      -3.937  10.990  16.484  0.00  0.00    +0.000 A 
ATOM     17  C   UNL     1      -2.694  10.868  17.102  0.00  0.00    +0.000 A 
ATOM     18  F   UNL     1      -1.715  10.242  16.431  0.00  0.00    +0.000 F 
ENDBRANCH   9  12
ENDBRANCH   6   8
ENDBRANCH   5   6
BRANCH   1  19
ATOM     19  C   UNL     1       1.483   8.254  21.061  0.00  0.00    +0.000 C 
BRANCH  19  21
ATOM     20  C   UNL     1      -0.569   9.112  22.344  0.00  0.00    +0.000 C 
ATOM     21  C   UNL     1       0.014   8.414  21.358  0.00  0.00    +0.000 C 
ENDBRANCH  19  21
ENDBRANCH   1  19
BRANCH   2  22
ATOM     22  S   UNL     1       2.585   5.485  19.791  0.00  0.00    +0.000 S 
BRANCH  22  23
ATOM     23  C   UNL     1       4.399   5.397  19.770  0.00  0.00    +0.000 C 
BRANCH  23  24
ATOM     24  C   UNL     1       4.880   4.668  18.530  0.00  0.00    +0.000 C 
ATOM     25  O   UNL     1       4.945   3.439  18.516  0.00  0.00    +0.000 OA
ATOM     26  N   UNL     1       5.230   5.503  17.484  0.00  0.00    +0.000 N 
ATOM     27  H   UNL     1       5.359   6.495  17.695  0.00  0.00    +0.000 HD
BRANCH  26  28
ATOM     28  C   UNL     1       5.647   5.095  16.195  0.00  0.00    +0.000 A 
ATOM     29  C   UNL     1       4.858   4.333  15.330  0.00  0.00    +0.000 A 
ATOM     30  C   UNL     1       5.347   3.949  14.075  0.00  0.00    +0.000 A 
ATOM     31  C   UNL     1       6.625   4.327  13.668  0.00  0.00    +0.000 A 
ATOM     32  C   UNL     1       7.415   5.105  14.516  0.00  0.00    +0.000 A 
ATOM     33  C   UNL     1       6.918   5.489  15.760  0.00  0.00    +0.000 A 
ATOM     34  F   UNL     1       7.694   6.237  16.559  0.00  0.00    +0.000 F 
ENDBRANCH  26  28
ENDBRANCH  23  24
ENDBRANCH  22  23
ENDBRANCH   2  22
TORSDOF 9
ENDMDL
MODEL 8
REMARK VINA RESULT:      -7.8      2.682      8.469
REMARK  Name = 
REMARK  10 active torsions:
REMARK  status: ('A' for Active; 'I' for Inactive)
REMARK    1  A    between atoms: C_2  and  C_3
REMARK    2  A    between atoms: C_3  and  N_4
REMARK    3  A    between atoms: C_5  and  S_6
REMARK    4  A    between atoms: S_6  and  C_7
REMARK    5  A    between atoms: C_7  and  C_8
REMARK    6  A    between atoms: N_10  and  C_11
REMARK    7  A    between atoms: C_20  and  C_21
REMARK    8  A    between atoms: C_21  and  C_22
REMARK    9  A    between atoms: C_21  and  N_23
REMARK   10  A    between atoms: C_24  and  C_26
REMARK                            x       y       z     vdW  Elec       q    Type
REMARK                         _______ _______ _______ _____ _____    ______ ____
ROOT
ATOM      1  N   UNL     1       2.815   6.409  19.383  0.00  0.00    +0.000 N 
ATOM      2  C   UNL     1       3.810   6.094  18.494  0.00  0.00    +0.000 A 
ATOM      3  N   UNL     1       3.981   7.080  17.647  0.00  0.00    +0.000 NA
ATOM      4  N   UNL     1       3.054   8.047  17.946  0.00  0.00    +0.000 NA
ATOM      5  C   UNL     1       2.351   7.651  18.995  0.00  0.00    +0.000 A 
ENDROOT
BRANCH   5   6
ATOM      6  C   UNL     1       1.235   8.408  19.658  0.00  0.00    +0.000 C 
ATOM      7  C   UNL     1       1.191   8.119  21.158  0.00  0.00    +0.000 C 
BRANCH   6   8
ATOM      8  N   UNL     1       1.443   9.830  19.416  0.00  0.00    +0.000 N 
ATOM      9  C   UNL     1       0.438  10.646  18.939  0.00  0.00    +0.000 C 
ATOM     10  O   UNL     1      -0.662  10.224  18.595  0.00  0.00    +0.000 OA
ATOM     11  H   UNL     1       2.254  10.258  19.848  0.00  0.00    +0.000 HD
BRANCH   9  12
ATOM     12  C   UNL     1       0.723  12.106  18.879  0.00  0.00    +0.000 A 
ATOM     13  C   UNL     1      -0.236  13.015  19.354  0.00  0.00    +0.000 A 
ATOM     14  C   UNL     1       0.010  14.392  19.305  0.00  0.00    +0.000 A 
ATOM     15  C   UNL     1       1.205  14.872  18.767  0.00  0.00    +0.000 A 
ATOM     16  C   UNL     1       2.153  13.975  18.278  0.00  0.00    +0.000 A 
ATOM     17  C   UNL     1       1.909  12.603  18.338  0.00  0.00    +0.000 A 
ATOM     18  F   UNL     1       2.843  11.775  17.848  0.00  0.00    +0.000 F 
ENDBRANCH   9  12
ENDBRANCH   6   8
ENDBRANCH   5   6
BRANCH   1  19
ATOM     19  C   UNL     1       2.319   5.596  20.480  0.00  0.00    +0.000 C 
BRANCH  19  21
ATOM     20  C   UNL     1       1.095   3.359  20.773  0.00  0.00    +0.000 C 
ATOM     21  C   UNL     1       1.395   4.472  20.089  0.00  0.00    +0.000 C 
ENDBRANCH  19  21
ENDBRANCH   1  19
BRANCH   2  22
ATOM     22  S   UNL     1       4.697   4.611  18.512  0.00  0.00    +0.000 S 
BRANCH  22  23
ATOM     23  C   UNL     1       6.411   5.204  18.420  0.00  0.00    +0.000 C 
BRANCH  23  24
ATOM     24  C   UNL     1       7.040   4.805  17.098  0.00  0.00    +0.000 C 
ATOM     25  O   UNL     1       8.107   4.193  17.076  0.00  0.00    +0.000 OA
ATOM     26  N   UNL     1       6.317   5.202  15.987  0.00  0.00    +0.000 N 
ATOM     27  H   UNL     1       5.583   5.900  16.126  0.00  0.00    +0.000 HD
BRANCH  26  28
ATOM     28  C   UNL     1       6.633   4.910  14.639  0.00  0.00    +0.000 A 
ATOM     29  C   UNL     1       7.714   5.473  13.956  0.00  0.00    +0.000 A 
ATOM     30  C   UNL     1       7.953   5.152  12.615  0.00  0.00    +0.000 A 
ATOM     31  C   UNL     1       7.119   4.260  11.942  0.00  0.00    +0.000 A 
ATOM     32  C   UNL     1       6.047   3.677  12.619  0.00  0.00    +0.000 A 
ATOM     33  C   UNL     1       5.821   3.997  13.956  0.00  0.00    +0.000 A 
ATOM     34  F   UNL     1       4.785   3.425  14.588  0.00  0.00    +0.000 F 
ENDBRANCH  26  28
ENDBRANCH  23  24
ENDBRANCH  22  23
ENDBRANCH   2  22
TORSDOF 9
ENDMDL
MODEL 9
REMARK VINA RESULT:      -7.7      3.304      4.519
REMARK  Name = 
REMARK  10 active torsions:
REMARK  status: ('A' for Active; 'I' for Inactive)
REMARK    1  A    between atoms: C_2  and  C_3
REMARK    2  A    between atoms: C_3  and  N_4
REMARK    3  A    between atoms: C_5  and  S_6
REMARK    4  A    between atoms: S_6  and  C_7
REMARK    5  A    between atoms: C_7  and  C_8
REMARK    6  A    between atoms: N_10  and  C_11
REMARK    7  A    between atoms: C_20  and  C_21
REMARK    8  A    between atoms: C_21  and  C_22
REMARK    9  A    between atoms: C_21  and  N_23
REMARK   10  A    between atoms: C_24  and  C_26
REMARK                            x       y       z     vdW  Elec       q    Type
REMARK                         _______ _______ _______ _____ _____    ______ ____
ROOT
ATOM      1  N   UNL     1       2.592   6.431  19.153  0.00  0.00    +0.000 N 
ATOM      2  C   UNL     1       2.197   7.739  19.032  0.00  0.00    +0.000 A 
ATOM      3  N   UNL     1       2.481   8.182  17.831  0.00  0.00    +0.000 NA
ATOM      4  N   UNL     1       3.117   7.170  17.157  0.00  0.00    +0.000 NA
ATOM      5  C   UNL     1       3.183   6.111  17.946  0.00  0.00    +0.000 A 
ENDROOT
BRANCH   5   6
ATOM      6  C   UNL     1       3.796   4.781  17.605  0.00  0.00    +0.000 C 
ATOM      7  C   UNL     1       2.717   3.725  17.365  0.00  0.00    +0.000 C 
BRANCH   6   8
ATOM      8  N   UNL     1       4.621   4.952  16.415  0.00  0.00    +0.000 N 
ATOM      9  C   UNL     1       5.401   3.931  15.913  0.00  0.00    +0.000 C 
ATOM     10  O   UNL     1       5.534   2.849  16.477  0.00  0.00    +0.000 OA
ATOM     11  H   UNL     1       4.411   5.744  15.818  0.00  0.00    +0.000 HD
BRANCH   9  12
ATOM     12  C   UNL     1       6.077   4.175  14.609  0.00  0.00    +0.000 A 
ATOM     13  C   UNL     1       5.626   3.500  13.464  0.00  0.00    +0.000 A 
ATOM     14  C   UNL     1       6.249   3.712  12.228  0.00  0.00    +0.000 A 
ATOM     15  C   UNL     1       7.334   4.584  12.131  0.00  0.00    +0.000 A 
ATOM     16  C   UNL     1       7.797   5.243  13.269  0.00  0.00    +0.000 A 
ATOM     17  C   UNL     1       7.168   5.037  14.496  0.00  0.00    +0.000 A 
ATOM     18  F   UNL     1       7.651   5.683  15.568  0.00  0.00    +0.000 F 
ENDBRANCH   9  12
ENDBRANCH   6   8
ENDBRANCH   5   6
BRANCH   1  19
ATOM     19  C   UNL     1       2.457   5.571  20.315  0.00  0.00    +0.000 C 
BRANCH  19  21
ATOM     20  C   UNL     1       1.163   3.406  20.797  0.00  0.00    +0.000 C 
ATOM     21  C   UNL     1       1.264   4.650  20.306  0.00  0.00    +0.000 C 
ENDBRANCH  19  21
ENDBRANCH   1  19
BRANCH   2  22
ATOM     22  S   UNL     1       1.435   8.645  20.290  0.00  0.00    +0.000 S 
BRANCH  22  23
ATOM     23  C   UNL     1       1.118  10.231  19.464  0.00  0.00    +0.000 C 
BRANCH  23  24
ATOM     24  C   UNL     1      -0.367  10.546  19.473  0.00  0.00    +0.000 C 
ATOM     25  O   UNL     1      -0.975  10.648  20.538  0.00  0.00    +0.000 OA
ATOM     26  N   UNL     1      -0.922  10.682  18.213  0.00  0.00    +0.000 N 
ATOM     27  H   UNL     1      -0.377  10.344  17.418  0.00  0.00    +0.000 HD
BRANCH  26  28
ATOM     28  C   UNL     1      -2.261  11.038  17.926  0.00  0.00    +0.000 A 
ATOM     29  C   UNL     1      -3.077  11.758  18.803  0.00  0.00    +0.000 A 
ATOM     30  C   UNL     1      -4.401  12.055  18.459  0.00  0.00    +0.000 A 
ATOM     31  C   UNL     1      -4.922  11.644  17.233  0.00  0.00    +0.000 A 
ATOM     32  C   UNL     1      -4.111  10.941  16.341  0.00  0.00    +0.000 A 
ATOM     33  C   UNL     1      -2.793  10.655  16.689  0.00  0.00    +0.000 A 
ATOM     34  F   UNL     1      -2.030   9.979  15.817  0.00  0.00    +0.000 F 
ENDBRANCH  26  28
ENDBRANCH  23  24
ENDBRANCH  22  23
ENDBRANCH   2  22
TORSDOF 9
ENDMDL
