MODEL 1
REMARK VINA RESULT:      -7.2      0.000      0.000
REMARK  Name = 
REMARK  7 active torsions:
REMARK  status: ('A' for Active; 'I' for Inactive)
REMARK    1  A    between atoms: C_1  and  O_2
REMARK    2  A    between atoms: O_2  and  C_3
REMARK    3  A    between atoms: C_8  and  O_9
REMARK    4  A    between atoms: C_14  and  O_15
REMARK    5  A    between atoms: O_15  and  C_16
REMARK    6  A    between atoms: C_17  and  O_18
REMARK    7  A    between atoms: O_18  and  C_19
REMARK                            x       y       z     vdW  Elec       q    Type
REMARK                         _______ _______ _______ _____ _____    ______ ____
ROOT
ATOM      1  C   UNL     1       0.819  13.636  18.490  0.00  0.00    +0.000 A 
ATOM      2  C   UNL     1      -0.219  12.874  19.010  0.00  0.00    +0.000 A 
ATOM      3  C   UNL     1       0.001  11.526  19.279  0.00  0.00    +0.000 A 
ATOM      4  C   UNL     1       1.157  10.868  18.817  0.00  0.00    +0.000 A 
ATOM      5  C   UNL     1       2.208  11.632  18.317  0.00  0.00    +0.000 A 
ATOM      6  C   UNL     1       2.046  13.013  18.200  0.00  0.00    +0.000 A 
ATOM      7  C   UNL     1       1.182   9.381  19.121  0.00  0.00    +0.000 C 
ATOM      8  C   UNL     1       2.252   8.580  18.373  0.00  0.00    +0.000 C 
ATOM      9  C   UNL     1       2.200   7.139  18.801  0.00  0.00    +0.000 A 
ATOM     10  C   UNL     1       2.541   6.126  17.901  0.00  0.00    +0.000 A 
ATOM     11  C   UNL     1       2.530   4.786  18.298  0.00  0.00    +0.000 A 
ATOM     12  C   UNL     1       2.267   4.461  19.640  0.00  0.00    +0.000 A 
ATOM     13  C   UNL     1       1.907   5.480  20.531  0.00  0.00    +0.000 A 
ATOM     14  C   UNL     1       1.834   6.818  20.111  0.00  0.00    +0.000 A 
ATOM     15  C   UNL     1       1.251   7.848  21.056  0.00  0.00    +0.000 C 
ATOM     16  N   UNL     1       1.231   9.234  20.586  0.00  0.00    +0.000 NA
ATOM     17  C   UNL     1       0.157  10.036  21.240  0.00  0.00    +0.000 C 
ATOM     18  C   UNL     1      -0.838  10.747  20.270  0.00  0.00    +0.000 C 
ENDROOT
BRANCH   1  20
ATOM     19  C   UNL     1      -0.258  15.672  19.022  0.00  0.00    +0.000 C 
ATOM     20  O   UNL     1       0.753  14.993  18.290  0.00  0.00    +0.000 OA
ENDBRANCH   1  20
BRANCH   6  21
ATOM     21  O   UNL     1       3.132  13.783  17.870  0.00  0.00    +0.000 OA
ATOM     22  H   UNL     1       3.705  13.824  18.652  0.00  0.00    +0.000 HD
ENDBRANCH   6  21
BRANCH  11  23
ATOM     23  O   UNL     1       2.813   3.757  17.433  0.00  0.00    +0.000 OA
ATOM     24  C   UNL     1       4.188   3.631  17.074  0.00  0.00    +0.000 C 
ENDBRANCH  11  23
BRANCH  12  25
ATOM     25  O   UNL     1       2.347   3.136  19.981  0.00  0.00    +0.000 OA
ATOM     26  C   UNL     1       1.744   2.743  21.206  0.00  0.00    +0.000 C 
ENDBRANCH  12  25
TORSDOF 4
ENDMDL
MODEL 2
REMARK VINA RESULT:      -6.8      3.064      4.463
REMARK  Name = 
REMARK  7 active torsions:
REMARK  status: ('A' for Active; 'I' for Inactive)
REMARK    1  A    between atoms: C_1  and  O_2
REMARK    2  A    between atoms: O_2  and  C_3
REMARK    3  A    between atoms: C_8  and  O_9
REMARK    4  A    between atoms: C_14  and  O_15
REMARK    5  A    between atoms: O_15  and  C_16
REMARK    6  A    between atoms: C_17  and  O_18
REMARK    7  A    between atoms: O_18  and  C_19
REMARK                            x       y       z     vdW  Elec       q    Type
REMARK                         _______ _______ _______ _____ _____    ______ ____
ROOT
ATOM      1  C   UNL     1      -1.835  13.573  23.422  0.00  0.00    +0.000 A 
ATOM      2  C   UNL     1      -0.680  13.956  22.752  0.00  0.00    +0.000 A 
ATOM      3  C   UNL     1      -0.043  13.036  21.925  0.00  0.00    +0.000 A 
ATOM      4  C   UNL     1      -0.394  11.673  21.940  0.00  0.00    +0.000 A 
ATOM      5  C   UNL     1      -1.564  11.290  22.591  0.00  0.00    +0.000 A 
ATOM      6  C   UNL     1      -2.297  12.251  23.288  0.00  0.00    +0.000 A 
ATOM      7  C   UNL     1       0.471  10.804  21.045  0.00  0.00    +0.000 C 
ATOM      8  C   UNL     1       0.331   9.295  21.268  0.00  0.00    +0.000 C 
ATOM      9  C   UNL     1       1.200   8.554  20.290  0.00  0.00    +0.000 A 
ATOM     10  C   UNL     1       1.768   7.327  20.643  0.00  0.00    +0.000 A 
ATOM     11  C   UNL     1       2.548   6.613  19.730  0.00  0.00    +0.000 A 
ATOM     12  C   UNL     1       2.683   7.085  18.413  0.00  0.00    +0.000 A 
ATOM     13  C   UNL     1       2.126   8.324  18.071  0.00  0.00    +0.000 A 
ATOM     14  C   UNL     1       1.415   9.084  19.015  0.00  0.00    +0.000 A 
ATOM     15  C   UNL     1       1.007  10.497  18.654  0.00  0.00    +0.000 C 
ATOM     16  N   UNL     1       0.236  11.234  19.656  0.00  0.00    +0.000 NA
ATOM     17  C   UNL     1       0.397  12.710  19.518  0.00  0.00    +0.000 C 
ATOM     18  C   UNL     1       0.881  13.456  20.801  0.00  0.00    +0.000 C 
ENDROOT
BRANCH   1  20
ATOM     19  C   UNL     1      -2.308  15.806  24.037  0.00  0.00    +0.000 C 
ATOM     20  O   UNL     1      -2.608  14.423  24.174  0.00  0.00    +0.000 OA
ENDBRANCH   1  20
BRANCH   6  21
ATOM     21  O   UNL     1      -3.530  11.914  23.784  0.00  0.00    +0.000 OA
ATOM     22  H   UNL     1      -4.192  12.401  23.267  0.00  0.00    +0.000 HD
ENDBRANCH   6  21
BRANCH  11  23
ATOM     23  O   UNL     1       3.164   5.428  20.052  0.00  0.00    +0.000 OA
ATOM     24  C   UNL     1       2.307   4.438  20.619  0.00  0.00    +0.000 C 
ENDBRANCH  11  23
BRANCH  12  25
ATOM     25  O   UNL     1       3.397   6.300  17.545  0.00  0.00    +0.000 OA
ATOM     26  C   UNL     1       4.676   6.770  17.145  0.00  0.00    +0.000 C 
ENDBRANCH  12  25
TORSDOF 4
ENDMDL
MODEL 3
REMARK VINA RESULT:      -6.5      3.700      8.521
REMARK  Name = 
REMARK  7 active torsions:
REMARK  status: ('A' for Active; 'I' for Inactive)
REMARK    1  A    between atoms: C_1  and  O_2
REMARK    2  A    between atoms: O_2  and  C_3
REMARK    3  A    between atoms: C_8  and  O_9
REMARK    4  A    between atoms: C_14  and  O_15
REMARK    5  A    between atoms: O_15  and  C_16
REMARK    6  A    between atoms: C_17  and  O_18
REMARK    7  A    between atoms: O_18  and  C_19
REMARK                            x       y       z     vdW  Elec       q    Type
REMARK                         _______ _______ _______ _____ _____    ______ ____
ROOT
ATOM      1  C   UNL     1       2.109   7.794  18.793  0.00  0.00    +0.000 A 
ATOM      2  C   UNL     1       1.775   8.988  18.167  0.00  0.00    +0.000 A 
ATOM      3  C   UNL     1       1.188  10.003  18.916  0.00  0.00    +0.000 A 
ATOM      4  C   UNL     1       0.708   9.765  20.219  0.00  0.00    +0.000 A 
ATOM      5  C   UNL     1       1.062   8.580  20.857  0.00  0.00    +0.000 A 
ATOM      6  C   UNL     1       1.797   7.625  20.154  0.00  0.00    +0.000 A 
ATOM      7  C   UNL     1       0.014  10.960  20.847  0.00  0.00    +0.000 C 
ATOM      8  C   UNL     1      -0.787  10.656  22.116  0.00  0.00    +0.000 C 
ATOM      9  C   UNL     1      -1.379  11.927  22.660  0.00  0.00    +0.000 A 
ATOM     10  C   UNL     1      -2.600  11.899  23.340  0.00  0.00    +0.000 A 
ATOM     11  C   UNL     1      -3.141  13.069  23.880  0.00  0.00    +0.000 A 
ATOM     12  C   UNL     1      -2.407  14.266  23.823  0.00  0.00    +0.000 A 
ATOM     13  C   UNL     1      -1.194  14.290  23.124  0.00  0.00    +0.000 A 
ATOM     14  C   UNL     1      -0.691  13.133  22.506  0.00  0.00    +0.000 A 
ATOM     15  C   UNL     1       0.517  13.258  21.600  0.00  0.00    +0.000 C 
ATOM     16  N   UNL     1       1.025  12.019  21.010  0.00  0.00    +0.000 NA
ATOM     17  C   UNL     1       1.756  12.261  19.733  0.00  0.00    +0.000 C 
ATOM     18  C   UNL     1       1.240  11.457  18.499  0.00  0.00    +0.000 C 
ENDROOT
BRANCH   1  20
ATOM     19  C   UNL     1       3.992   7.139  17.522  0.00  0.00    +0.000 C 
ATOM     20  O   UNL     1       2.790   6.768  18.183  0.00  0.00    +0.000 OA
ENDBRANCH   1  20
BRANCH   6  21
ATOM     21  O   UNL     1       2.290   6.537  20.828  0.00  0.00    +0.000 OA
ATOM     22  H   UNL     1       1.544   5.938  20.993  0.00  0.00    +0.000 HD
ENDBRANCH   6  21
BRANCH  11  23
ATOM     23  O   UNL     1      -4.360  13.094  24.515  0.00  0.00    +0.000 OA
ATOM     24  C   UNL     1      -5.492  13.053  23.648  0.00  0.00    +0.000 C 
ENDBRANCH  11  23
BRANCH  12  25
ATOM     25  O   UNL     1      -2.959  15.359  24.439  0.00  0.00    +0.000 OA
ATOM     26  C   UNL     1      -3.010  16.568  23.694  0.00  0.00    +0.000 C 
ENDBRANCH  12  25
TORSDOF 4
ENDMDL
MODEL 4
REMARK VINA RESULT:      -6.4      1.048      1.058
REMARK  Name = 
REMARK  7 active torsions:
REMARK  status: ('A' for Active; 'I' for Inactive)
REMARK    1  A    between atoms: C_1  and  O_2
REMARK    2  A    between atoms: O_2  and  C_3
REMARK    3  A    between atoms: C_8  and  O_9
REMARK    4  A    between atoms: C_14  and  O_15
REMARK    5  A    between atoms: O_15  and  C_16
REMARK    6  A    between atoms: C_17  and  O_18
REMARK    7  A    between atoms: O_18  and  C_19
REMARK                            x       y       z     vdW  Elec       q    Type
REMARK                         _______ _______ _______ _____ _____    ______ ____
ROOT
ATOM      1  C   UNL     1       0.174  13.866  18.704  0.00  0.00    +0.000 A 
ATOM      2  C   UNL     1      -0.766  12.898  19.034  0.00  0.00    +0.000 A 
ATOM      3  C   UNL     1      -0.352  11.579  19.188  0.00  0.00    +0.000 A 
ATOM      4  C   UNL     1       0.932  11.163  18.784  0.00  0.00    +0.000 A 
ATOM      5  C   UNL     1       1.883  12.132  18.475  0.00  0.00    +0.000 A 
ATOM      6  C   UNL     1       1.507  13.477  18.481  0.00  0.00    +0.000 A 
ATOM      7  C   UNL     1       1.174   9.673  18.938  0.00  0.00    +0.000 C 
ATOM      8  C   UNL     1       2.422   9.138  18.228  0.00  0.00    +0.000 C 
ATOM      9  C   UNL     1       2.570   7.667  18.501  0.00  0.00    +0.000 A 
ATOM     10  C   UNL     1       3.149   6.829  17.544  0.00  0.00    +0.000 A 
ATOM     11  C   UNL     1       3.323   5.467  17.801  0.00  0.00    +0.000 A 
ATOM     12  C   UNL     1       3.002   4.952  19.069  0.00  0.00    +0.000 A 
ATOM     13  C   UNL     1       2.405   5.794  20.016  0.00  0.00    +0.000 A 
ATOM     14  C   UNL     1       2.150   7.144  19.727  0.00  0.00    +0.000 A 
ATOM     15  C   UNL     1       1.326   7.956  20.706  0.00  0.00    +0.000 C 
ATOM     16  N   UNL     1       1.120   9.366  20.378  0.00  0.00    +0.000 NA
ATOM     17  C   UNL     1      -0.124   9.913  20.994  0.00  0.00    +0.000 C 
ATOM     18  C   UNL     1      -1.133  10.570  20.003  0.00  0.00    +0.000 C 
ENDROOT
BRANCH   1  20
ATOM     19  C   UNL     1       0.140  15.944  19.829  0.00  0.00    +0.000 C 
ATOM     20  O   UNL     1      -0.096  15.211  18.635  0.00  0.00    +0.000 OA
ENDBRANCH   1  20
BRANCH   6  21
ATOM     21  O   UNL     1       2.476  14.437  18.345  0.00  0.00    +0.000 OA
ATOM     22  H   UNL     1       3.257  14.007  17.962  0.00  0.00    +0.000 HD
ENDBRANCH   6  21
BRANCH  11  23
ATOM     23  O   UNL     1       3.845   4.600  16.871  0.00  0.00    +0.000 OA
ATOM     24  C   UNL     1       5.073   5.019  16.278  0.00  0.00    +0.000 C 
ENDBRANCH  11  23
BRANCH  12  25
ATOM     25  O   UNL     1       3.269   3.624  19.282  0.00  0.00    +0.000 OA
ATOM     26  C   UNL     1       4.547   3.294  19.808  0.00  0.00    +0.000 C 
ENDBRANCH  12  25
TORSDOF 4
ENDMDL
MODEL 5
REMARK VINA RESULT:      -6.4      2.672      3.896
REMARK  Name = 
REMARK  7 active torsions:
REMARK  status: ('A' for Active; 'I' for Inactive)
REMARK    1  A    between atoms: C_1  and  O_2
REMARK    2  A    between atoms: O_2  and  C_3
REMARK    3  A    between atoms: C_8  and  O_9
REMARK    4  A    between atoms: C_14  and  O_15
REMARK    5  A    between atoms: O_15  and  C_16
REMARK    6  A    between atoms: C_17  and  O_18
REMARK    7  A    between atoms: O_18  and  C_19
REMARK                            x       y       z     vdW  Elec       q    Type
REMARK                         _______ _______ _______ _____ _____    ______ ____
ROOT
ATOM      1  C   UNL     1      -1.238  13.358  22.754  0.00  0.00    +0.000 A 
ATOM      2  C   UNL     1      -0.043  13.584  22.083  0.00  0.00    +0.000 A 
ATOM      3  C   UNL     1       0.542  12.539  21.375  0.00  0.00    +0.000 A 
ATOM      4  C   UNL     1       0.089  11.214  21.519  0.00  0.00    +0.000 A 
ATOM      5  C   UNL     1      -1.121  10.987  22.171  0.00  0.00    +0.000 A 
ATOM      6  C   UNL     1      -1.795  12.067  22.743  0.00  0.00    +0.000 A 
ATOM      7  C   UNL     1       0.906  10.195  20.745  0.00  0.00    +0.000 C 
ATOM      8  C   UNL     1       0.648   8.732  21.118  0.00  0.00    +0.000 C 
ATOM      9  C   UNL     1       1.480   7.832  20.248  0.00  0.00    +0.000 A 
ATOM     10  C   UNL     1       1.947   6.611  20.744  0.00  0.00    +0.000 A 
ATOM     11  C   UNL     1       2.691   5.751  19.932  0.00  0.00    +0.000 A 
ATOM     12  C   UNL     1       2.891   6.071  18.578  0.00  0.00    +0.000 A 
ATOM     13  C   UNL     1       2.436   7.304  18.095  0.00  0.00    +0.000 A 
ATOM     14  C   UNL     1       1.764   8.208  18.933  0.00  0.00    +0.000 A 
ATOM     15  C   UNL     1       1.471   9.602  18.416  0.00  0.00    +0.000 C 
ATOM     16  N   UNL     1       0.735  10.493  19.313  0.00  0.00    +0.000 NA
ATOM     17  C   UNL     1       1.010  11.931  19.029  0.00  0.00    +0.000 C 
ATOM     18  C   UNL     1       1.520  12.771  20.242  0.00  0.00    +0.000 C 
ENDROOT
BRANCH   1  20
ATOM     19  C   UNL     1      -1.236  15.127  24.322  0.00  0.00    +0.000 C 
ATOM     20  O   UNL     1      -1.962  14.337  23.390  0.00  0.00    +0.000 OA
ENDBRANCH   1  20
BRANCH   6  21
ATOM     21  O   UNL     1      -3.061  11.874  23.234  0.00  0.00    +0.000 OA
ATOM     22  H   UNL     1      -3.574  12.672  23.029  0.00  0.00    +0.000 HD
ENDBRANCH   6  21
BRANCH  11  23
ATOM     23  O   UNL     1       3.208   4.564  20.393  0.00  0.00    +0.000 OA
ATOM     24  C   UNL     1       2.284   3.736  21.098  0.00  0.00    +0.000 C 
ENDBRANCH  11  23
BRANCH  12  25
ATOM     25  O   UNL     1       3.563   5.149  17.818  0.00  0.00    +0.000 OA
ATOM     26  C   UNL     1       2.804   4.077  17.275  0.00  0.00    +0.000 C 
ENDBRANCH  12  25
TORSDOF 4
ENDMDL
MODEL 6
REMARK VINA RESULT:      -6.1      8.963     11.156
REMARK  Name = 
REMARK  7 active torsions:
REMARK  status: ('A' for Active; 'I' for Inactive)
REMARK    1  A    between atoms: C_1  and  O_2
REMARK    2  A    between atoms: O_2  and  C_3
REMARK    3  A    between atoms: C_8  and  O_9
REMARK    4  A    between atoms: C_14  and  O_15
REMARK    5  A    between atoms: O_15  and  C_16
REMARK    6  A    between atoms: C_17  and  O_18
REMARK    7  A    between atoms: O_18  and  C_19
REMARK                            x       y       z     vdW  Elec       q    Type
REMARK                         _______ _______ _______ _____ _____    ______ ____
ROOT
ATOM      1  C   UNL     1       6.096  11.396  26.680  0.00  0.00    +0.000 A 
ATOM      2  C   UNL     1       7.139  12.257  26.997  0.00  0.00    +0.000 A 
ATOM      3  C   UNL     1       7.899  12.805  25.968  0.00  0.00    +0.000 A 
ATOM      4  C   UNL     1       7.796  12.327  24.648  0.00  0.00    +0.000 A 
ATOM      5  C   UNL     1       6.737  11.483  24.322  0.00  0.00    +0.000 A 
ATOM      6  C   UNL     1       5.871  11.062  25.332  0.00  0.00    +0.000 A 
ATOM      7  C   UNL     1       8.768  12.976  23.679  0.00  0.00    +0.000 C 
ATOM      8  C   UNL     1       8.905  12.274  22.325  0.00  0.00    +0.000 C 
ATOM      9  C   UNL     1       9.855  13.043  21.449  0.00  0.00    +0.000 A 
ATOM     10  C   UNL     1      10.645  12.373  20.510  0.00  0.00    +0.000 A 
ATOM     11  C   UNL     1      11.505  13.081  19.667  0.00  0.00    +0.000 A 
ATOM     12  C   UNL     1      11.506  14.486  19.696  0.00  0.00    +0.000 A 
ATOM     13  C   UNL     1      10.726  15.150  20.652  0.00  0.00    +0.000 A 
ATOM     14  C   UNL     1       9.927  14.434  21.558  0.00  0.00    +0.000 A 
ATOM     15  C   UNL     1       9.262  15.185  22.694  0.00  0.00    +0.000 C 
ATOM     16  N   UNL     1       8.409  14.402  23.588  0.00  0.00    +0.000 NA
ATOM     17  C   UNL     1       8.301  15.014  24.944  0.00  0.00    +0.000 C 
ATOM     18  C   UNL     1       8.692  14.084  26.135  0.00  0.00    +0.000 C 
ENDROOT
BRANCH   1  20
ATOM     19  C   UNL     1       4.138  11.743  27.958  0.00  0.00    +0.000 C 
ATOM     20  O   UNL     1       5.212  10.885  27.599  0.00  0.00    +0.000 OA
ENDBRANCH   1  20
BRANCH   6  21
ATOM     21  O   UNL     1       4.735  10.373  24.989  0.00  0.00    +0.000 OA
ATOM     22  H   UNL     1       3.981  10.853  25.367  0.00  0.00    +0.000 HD
ENDBRANCH   6  21
BRANCH  11  23
ATOM     23  O   UNL     1      12.332  12.458  18.764  0.00  0.00    +0.000 OA
ATOM     24  C   UNL     1      11.664  11.792  17.694  0.00  0.00    +0.000 C 
ENDBRANCH  11  23
BRANCH  12  25
ATOM     25  O   UNL     1      12.315  15.122  18.791  0.00  0.00    +0.000 OA
ATOM     26  C   UNL     1      11.685  15.747  17.682  0.00  0.00    +0.000 C 
ENDBRANCH  12  25
TORSDOF 4
ENDMDL
MODEL 7
REMARK VINA RESULT:      -6.0      8.866     11.224
REMARK  Name = 
REMARK  7 active torsions:
REMARK  status: ('A' for Active; 'I' for Inactive)
REMARK    1  A    between atoms: C_1  and  O_2
REMARK    2  A    between atoms: O_2  and  C_3
REMARK    3  A    between atoms: C_8  and  O_9
REMARK    4  A    between atoms: C_14  and  O_15
REMARK    5  A    between atoms: O_15  and  C_16
REMARK    6  A    between atoms: C_17  and  O_18
REMARK    7  A    between atoms: O_18  and  C_19
REMARK                            x       y       z     vdW  Elec       q    Type
REMARK                         _______ _______ _______ _____ _____    ______ ____
ROOT
ATOM      1  C   UNL     1       5.640  10.819  27.128  0.00  0.00    +0.000 A 
ATOM      2  C   UNL     1       6.660  11.669  27.535  0.00  0.00    +0.000 A 
ATOM      3  C   UNL     1       7.398  12.348  26.570  0.00  0.00    +0.000 A 
ATOM      4  C   UNL     1       7.299  12.015  25.205  0.00  0.00    +0.000 A 
ATOM      5  C   UNL     1       6.263  11.181  24.792  0.00  0.00    +0.000 A 
ATOM      6  C   UNL     1       5.416  10.627  25.753  0.00  0.00    +0.000 A 
ATOM      7  C   UNL     1       8.246  12.794  24.311  0.00  0.00    +0.000 C 
ATOM      8  C   UNL     1       8.395  12.249  22.887  0.00  0.00    +0.000 C 
ATOM      9  C   UNL     1       9.317  13.137  22.097  0.00  0.00    +0.000 A 
ATOM     10  C   UNL     1      10.119  12.597  21.088  0.00  0.00    +0.000 A 
ATOM     11  C   UNL     1      10.954  13.418  20.325  0.00  0.00    +0.000 A 
ATOM     12  C   UNL     1      10.915  14.811  20.508  0.00  0.00    +0.000 A 
ATOM     13  C   UNL     1      10.122  15.343  21.534  0.00  0.00    +0.000 A 
ATOM     14  C   UNL     1       9.350  14.509  22.359  0.00  0.00    +0.000 A 
ATOM     15  C   UNL     1       8.671  15.111  23.571  0.00  0.00    +0.000 C 
ATOM     16  N   UNL     1       7.847  14.210  24.377  0.00  0.00    +0.000 NA
ATOM     17  C   UNL     1       7.730  14.667  25.793  0.00  0.00    +0.000 C 
ATOM     18  C   UNL     1       8.154  13.624  26.873  0.00  0.00    +0.000 C 
ENDROOT
BRANCH   1  20
ATOM     19  C   UNL     1       5.221   8.929  28.486  0.00  0.00    +0.000 C 
ATOM     20  O   UNL     1       4.777  10.184  27.988  0.00  0.00    +0.000 OA
ENDBRANCH   1  20
BRANCH   6  21
ATOM     21  O   UNL     1       4.298   9.947  25.340  0.00  0.00    +0.000 OA
ATOM     22  H   UNL     1       4.467   9.002  25.484  0.00  0.00    +0.000 HD
ENDBRANCH   6  21
BRANCH  11  23
ATOM     23  O   UNL     1      11.792  12.922  19.356  0.00  0.00    +0.000 OA
ATOM     24  C   UNL     1      11.566  11.559  19.002  0.00  0.00    +0.000 C 
ENDBRANCH  11  23
BRANCH  12  25
ATOM     25  O   UNL     1      11.700  15.565  19.676  0.00  0.00    +0.000 OA
ATOM     26  C   UNL     1      11.068  16.623  18.968  0.00  0.00    +0.000 C 
ENDBRANCH  12  25
TORSDOF 4
ENDMDL
MODEL 8
REMARK VINA RESULT:      -5.9      1.878      3.264
REMARK  Name = 
REMARK  7 active torsions:
REMARK  status: ('A' for Active; 'I' for Inactive)
REMARK    1  A    between atoms: C_1  and  O_2
REMARK    2  A    between atoms: O_2  and  C_3
REMARK    3  A    between atoms: C_8  and  O_9
REMARK    4  A    between atoms: C_14  and  O_15
REMARK    5  A    between atoms: O_15  and  C_16
REMARK    6  A    between atoms: C_17  and  O_18
REMARK    7  A    between atoms: O_18  and  C_19
REMARK                            x       y       z     vdW  Elec       q    Type
REMARK                         _______ _______ _______ _____ _____    ______ ____
ROOT
ATOM      1  C   UNL     1      -0.997  14.301  20.182  0.00  0.00    +0.000 A 
ATOM      2  C   UNL     1       0.382  14.251  20.026  0.00  0.00    +0.000 A 
ATOM      3  C   UNL     1       0.990  13.024  19.777  0.00  0.00    +0.000 A 
ATOM      4  C   UNL     1       0.282  11.815  19.919  0.00  0.00    +0.000 A 
ATOM      5  C   UNL     1      -1.103  11.862  20.051  0.00  0.00    +0.000 A 
ATOM      6  C   UNL     1      -1.734  13.104  20.136  0.00  0.00    +0.000 A 
ATOM      7  C   UNL     1       1.130  10.575  19.700  0.00  0.00    +0.000 C 
ATOM      8  C   UNL     1       0.488   9.259  20.147  0.00  0.00    +0.000 C 
ATOM      9  C   UNL     1       1.408   8.112  19.831  0.00  0.00    +0.000 A 
ATOM     10  C   UNL     1       1.422   6.977  20.646  0.00  0.00    +0.000 A 
ATOM     11  C   UNL     1       2.247   5.891  20.341  0.00  0.00    +0.000 A 
ATOM     12  C   UNL     1       2.997   5.900  19.152  0.00  0.00    +0.000 A 
ATOM     13  C   UNL     1       2.992   7.048  18.351  0.00  0.00    +0.000 A 
ATOM     14  C   UNL     1       2.230   8.174  18.703  0.00  0.00    +0.000 A 
ATOM     15  C   UNL     1       2.413   9.454  17.914  0.00  0.00    +0.000 C 
ATOM     16  N   UNL     1       1.570  10.587  18.294  0.00  0.00    +0.000 NA
ATOM     17  C   UNL     1       2.189  11.896  17.938  0.00  0.00    +0.000 C 
ATOM     18  C   UNL     1       2.347  12.908  19.116  0.00  0.00    +0.000 C 
ENDROOT
BRANCH   1  20
ATOM     19  C   UNL     1      -1.134  16.616  19.727  0.00  0.00    +0.000 C 
ATOM     20  O   UNL     1      -1.716  15.463  20.320  0.00  0.00    +0.000 OA
ENDBRANCH   1  20
BRANCH   6  21
ATOM     21  O   UNL     1      -3.104  13.157  20.095  0.00  0.00    +0.000 OA
ATOM     22  H   UNL     1      -3.437  12.441  20.659  0.00  0.00    +0.000 HD
ENDBRANCH   6  21
BRANCH  11  23
ATOM     23  O   UNL     1       2.326   4.776  21.140  0.00  0.00    +0.000 OA
ATOM     24  C   UNL     1       1.314   3.797  20.912  0.00  0.00    +0.000 C 
ENDBRANCH  11  23
BRANCH  12  25
ATOM     25  O   UNL     1       3.726   4.772  18.874  0.00  0.00    +0.000 OA
ATOM     26  C   UNL     1       5.131   4.841  19.071  0.00  0.00    +0.000 C 
ENDBRANCH  12  25
TORSDOF 4
ENDMDL
MODEL 9
REMARK VINA RESULT:      -5.9      3.329      7.691
REMARK  Name = 
REMARK  7 active torsions:
REMARK  status: ('A' for Active; 'I' for Inactive)
REMARK    1  A    between atoms: C_1  and  O_2
REMARK    2  A    between atoms: O_2  and  C_3
REMARK    3  A    between atoms: C_8  and  O_9
REMARK    4  A    between atoms: C_14  and  O_15
REMARK    5  A    between atoms: O_15  and  C_16
REMARK    6  A    between atoms: C_17  and  O_18
REMARK    7  A    between atoms: O_18  and  C_19
REMARK                            x       y       z     vdW  Elec       q    Type
REMARK                         _______ _______ _______ _____ _____    ______ ____
ROOT
ATOM      1  C   UNL     1       6.927   5.027  15.211  0.00  0.00    +0.000 A 
ATOM      2  C   UNL     1       7.294   5.265  16.529  0.00  0.00    +0.000 A 
ATOM      3  C   UNL     1       6.335   5.729  17.424  0.00  0.00    +0.000 A 
ATOM      4  C   UNL     1       5.080   6.189  16.978  0.00  0.00    +0.000 A 
ATOM      5  C   UNL     1       4.701   5.930  15.664  0.00  0.00    +0.000 A 
ATOM      6  C   UNL     1       5.611   5.311  14.805  0.00  0.00    +0.000 A 
ATOM      7  C   UNL     1       4.200   6.746  18.082  0.00  0.00    +0.000 C 
ATOM      8  C   UNL     1       2.976   7.533  17.606  0.00  0.00    +0.000 C 
ATOM      9  C   UNL     1       2.169   7.984  18.792  0.00  0.00    +0.000 A 
ATOM     10  C   UNL     1       1.448   9.180  18.738  0.00  0.00    +0.000 A 
ATOM     11  C   UNL     1       0.667   9.591  19.821  0.00  0.00    +0.000 A 
ATOM     12  C   UNL     1       0.528   8.748  20.937  0.00  0.00    +0.000 A 
ATOM     13  C   UNL     1       1.268   7.560  20.992  0.00  0.00    +0.000 A 
ATOM     14  C   UNL     1       2.121   7.189  19.940  0.00  0.00    +0.000 A 
ATOM     15  C   UNL     1       3.044   6.004  20.134  0.00  0.00    +0.000 C 
ATOM     16  N   UNL     1       3.886   5.634  18.996  0.00  0.00    +0.000 NA
ATOM     17  C   UNL     1       5.127   4.923  19.419  0.00  0.00    +0.000 C 
ATOM     18  C   UNL     1       6.466   5.552  18.922  0.00  0.00    +0.000 C 
ENDROOT
BRANCH   1  20
ATOM     19  C   UNL     1       8.149   5.326  13.209  0.00  0.00    +0.000 C 
ATOM     20  O   UNL     1       7.755   4.466  14.269  0.00  0.00    +0.000 OA
ENDBRANCH   1  20
BRANCH   6  21
ATOM     21  O   UNL     1       5.184   4.904  13.567  0.00  0.00    +0.000 OA
ATOM     22  H   UNL     1       5.250   3.936  13.543  0.00  0.00    +0.000 HD
ENDBRANCH   6  21
BRANCH  11  23
ATOM     23  O   UNL     1      -0.020  10.781  19.827  0.00  0.00    +0.000 OA
ATOM     24  C   UNL     1      -1.094  10.863  18.892  0.00  0.00    +0.000 C 
ENDBRANCH  11  23
BRANCH  12  25
ATOM     25  O   UNL     1      -0.314   9.174  21.932  0.00  0.00    +0.000 OA
ATOM     26  C   UNL     1       0.266   9.447  23.200  0.00  0.00    +0.000 C 
ENDBRANCH  12  25
TORSDOF 4
ENDMDL
