MODEL 1
REMARK VINA RESULT:      -6.4      0.000      0.000
REMARK  Name = 
REMARK  7 active torsions:
REMARK  status: ('A' for Active; 'I' for Inactive)
REMARK    1  A    between atoms: C_2  and  O_3
REMARK    2  A    between atoms: C_2  and  C_4
REMARK    3  A    between atoms: C_4  and  N_5
REMARK    4  A    between atoms: N_5  and  S_6
REMARK    5  A    between atoms: S_6  and  C_9
REMARK    6  A    between atoms: C_12  and  N_13
REMARK    7  A    between atoms: C_14  and  C_16
REMARK                            x       y       z     vdW  Elec       q    Type
REMARK                         _______ _______ _______ _____ _____    ______ ____
ROOT
ATOM      1  C   UNL     1       4.140   5.539  18.475  0.00  0.00    +0.000 A 
ATOM      2  C   UNL     1       4.067   6.575  17.548  0.00  0.00    +0.000 A 
ATOM      3  C   UNL     1       3.185   7.639  17.765  0.00  0.00    +0.000 A 
ATOM      4  C   UNL     1       2.372   7.684  18.903  0.00  0.00    +0.000 A 
ATOM      5  C   UNL     1       2.445   6.627  19.823  0.00  0.00    +0.000 A 
ATOM      6  C   UNL     1       3.318   5.550  19.607  0.00  0.00    +0.000 A 
ENDROOT
BRANCH   4   7
ATOM      7  N   UNL     1       1.471   8.736  19.180  0.00  0.00    +0.000 N 
ATOM      8  C   UNL     1       1.365   9.947  18.505  0.00  0.00    +0.000 C 
ATOM      9  O   UNL     1       2.020  10.285  17.523  0.00  0.00    +0.000 OA
ATOM     10  H   UNL     1       0.874   8.617  19.989  0.00  0.00    +0.000 HD
BRANCH   8  11
ATOM     11  C   UNL     1       0.278  10.862  19.043  0.00  0.00    +0.000 C 
ATOM     12  I   UNL     1      -1.550  10.454  18.057  0.00  0.00    +0.000 I 
ENDBRANCH   8  11
ENDBRANCH   4   7
BRANCH   1  13
ATOM     13  S   UNL     1       5.224   4.158  18.186  0.00  0.00    +0.000 S 
ATOM     14  O   UNL     1       6.458   4.363  18.911  0.00  0.00    +0.000 OA
ATOM     15  O   UNL     1       5.191   3.895  16.767  0.00  0.00    +0.000 OA
BRANCH  13  16
ATOM     16  N   UNL     1       4.387   2.869  18.932  0.00  0.00    +0.000 NA
ATOM     17  H   UNL     1       5.046   2.341  19.512  0.00  0.00    +0.000 HD
BRANCH  16  18
ATOM     18  C   UNL     1       3.673   1.964  17.976  0.00  0.00    +0.000 C 
BRANCH  18  20
ATOM     19  O   UNL     1       1.764   3.303  17.293  0.00  0.00    +0.000 OA
ATOM     20  C   UNL     1       2.209   2.367  17.939  0.00  0.00    +0.000 C 
BRANCH  20  21
ATOM     21  O   UNL     1       1.435   1.577  18.726  0.00  0.00    +0.000 OA
ATOM     22  H   UNL     1       1.736   1.652  19.660  0.00  0.00    +0.000 HD
ENDBRANCH  20  21
ENDBRANCH  18  20
ENDBRANCH  16  18
ENDBRANCH  13  16
ENDBRANCH   1  13
TORSDOF 7
ENDMDL
MODEL 2
REMARK VINA RESULT:      -6.4      2.344      3.524
REMARK  Name = 
REMARK  7 active torsions:
REMARK  status: ('A' for Active; 'I' for Inactive)
REMARK    1  A    between atoms: C_2  and  O_3
REMARK    2  A    between atoms: C_2  and  C_4
REMARK    3  A    between atoms: C_4  and  N_5
REMARK    4  A    between atoms: N_5  and  S_6
REMARK    5  A    between atoms: S_6  and  C_9
REMARK    6  A    between atoms: C_12  and  N_13
REMARK    7  A    between atoms: C_14  and  C_16
REMARK                            x       y       z     vdW  Elec       q    Type
REMARK                         _______ _______ _______ _____ _____    ______ ____
ROOT
ATOM      1  C   UNL     1       3.341   5.524  18.905  0.00  0.00    +0.000 A 
ATOM      2  C   UNL     1       2.646   5.431  20.108  0.00  0.00    +0.000 A 
ATOM      3  C   UNL     1       1.891   6.520  20.557  0.00  0.00    +0.000 A 
ATOM      4  C   UNL     1       1.817   7.705  19.817  0.00  0.00    +0.000 A 
ATOM      5  C   UNL     1       2.533   7.790  18.613  0.00  0.00    +0.000 A 
ATOM      6  C   UNL     1       3.303   6.708  18.161  0.00  0.00    +0.000 A 
ENDROOT
BRANCH   4   7
ATOM      7  N   UNL     1       1.064   8.830  20.215  0.00  0.00    +0.000 N 
ATOM      8  C   UNL     1       1.068   9.443  21.464  0.00  0.00    +0.000 C 
ATOM      9  O   UNL     1       1.767   9.122  22.421  0.00  0.00    +0.000 OA
ATOM     10  H   UNL     1       0.410   9.200  19.535  0.00  0.00    +0.000 HD
BRANCH   8  11
ATOM     11  C   UNL     1       0.152  10.650  21.565  0.00  0.00    +0.000 C 
ATOM     12  I   UNL     1      -0.508  11.210  19.634  0.00  0.00    +0.000 I 
ENDBRANCH   8  11
ENDBRANCH   4   7
BRANCH   1  13
ATOM     13  S   UNL     1       4.343   4.163  18.347  0.00  0.00    +0.000 S 
ATOM     14  O   UNL     1       3.528   2.971  18.280  0.00  0.00    +0.000 OA
ATOM     15  O   UNL     1       5.575   4.220  19.096  0.00  0.00    +0.000 OA
BRANCH  13  16
ATOM     16  N   UNL     1       4.731   4.622  16.748  0.00  0.00    +0.000 NA
ATOM     17  H   UNL     1       3.883   4.566  16.175  0.00  0.00    +0.000 HD
BRANCH  16  18
ATOM     18  C   UNL     1       5.843   3.830  16.134  0.00  0.00    +0.000 C 
BRANCH  18  20
ATOM     19  O   UNL     1       7.385   5.611  15.538  0.00  0.00    +0.000 OA
ATOM     20  C   UNL     1       7.122   4.644  16.236  0.00  0.00    +0.000 C 
BRANCH  20  21
ATOM     21  O   UNL     1       7.964   4.169  17.189  0.00  0.00    +0.000 OA
ATOM     22  H   UNL     1       8.084   3.200  17.064  0.00  0.00    +0.000 HD
ENDBRANCH  20  21
ENDBRANCH  18  20
ENDBRANCH  16  18
ENDBRANCH  13  16
ENDBRANCH   1  13
TORSDOF 7
ENDMDL
MODEL 3
REMARK VINA RESULT:      -6.3      1.998      3.390
REMARK  Name = 
REMARK  7 active torsions:
REMARK  status: ('A' for Active; 'I' for Inactive)
REMARK    1  A    between atoms: C_2  and  O_3
REMARK    2  A    between atoms: C_2  and  C_4
REMARK    3  A    between atoms: C_4  and  N_5
REMARK    4  A    between atoms: N_5  and  S_6
REMARK    5  A    between atoms: S_6  and  C_9
REMARK    6  A    between atoms: C_12  and  N_13
REMARK    7  A    between atoms: C_14  and  C_16
REMARK                            x       y       z     vdW  Elec       q    Type
REMARK                         _______ _______ _______ _____ _____    ______ ____
ROOT
ATOM      1  C   UNL     1       3.378   5.235  18.630  0.00  0.00    +0.000 A 
ATOM      2  C   UNL     1       3.340   6.456  17.962  0.00  0.00    +0.000 A 
ATOM      3  C   UNL     1       2.660   7.538  18.532  0.00  0.00    +0.000 A 
ATOM      4  C   UNL     1       2.017   7.417  19.769  0.00  0.00    +0.000 A 
ATOM      5  C   UNL     1       2.052   6.178  20.425  0.00  0.00    +0.000 A 
ATOM      6  C   UNL     1       2.720   5.085  19.855  0.00  0.00    +0.000 A 
ENDROOT
BRANCH   4   7
ATOM      7  N   UNL     1       1.324   8.475  20.397  0.00  0.00    +0.000 N 
ATOM      8  C   UNL     1       0.785   9.602  19.787  0.00  0.00    +0.000 C 
ATOM      9  O   UNL     1       0.790   9.842  18.582  0.00  0.00    +0.000 OA
ATOM     10  H   UNL     1       1.260   8.436  21.407  0.00  0.00    +0.000 HD
BRANCH   8  11
ATOM     11  C   UNL     1       0.084  10.550  20.745  0.00  0.00    +0.000 C 
ATOM     12  I   UNL     1      -0.141   9.619  22.633  0.00  0.00    +0.000 I 
ENDBRANCH   8  11
ENDBRANCH   4   7
BRANCH   1  13
ATOM     13  S   UNL     1       4.200   3.840  17.892  0.00  0.00    +0.000 S 
ATOM     14  O   UNL     1       4.528   4.154  16.520  0.00  0.00    +0.000 OA
ATOM     15  O   UNL     1       3.442   2.669  18.261  0.00  0.00    +0.000 OA
BRANCH  13  16
ATOM     16  N   UNL     1       5.661   3.764  18.774  0.00  0.00    +0.000 NA
ATOM     17  H   UNL     1       5.502   3.217  19.627  0.00  0.00    +0.000 HD
BRANCH  16  18
ATOM     18  C   UNL     1       6.252   5.101  19.101  0.00  0.00    +0.000 C 
BRANCH  18  20
ATOM     19  O   UNL     1       7.923   4.494  17.446  0.00  0.00    +0.000 OA
ATOM     20  C   UNL     1       7.429   5.342  18.171  0.00  0.00    +0.000 C 
BRANCH  20  21
ATOM     21  O   UNL     1       7.892   6.616  18.243  0.00  0.00    +0.000 OA
ATOM     22  H   UNL     1       8.713   6.695  17.706  0.00  0.00    +0.000 HD
ENDBRANCH  20  21
ENDBRANCH  18  20
ENDBRANCH  16  18
ENDBRANCH  13  16
ENDBRANCH   1  13
TORSDOF 7
ENDMDL
MODEL 4
REMARK VINA RESULT:      -6.3      2.034      3.546
REMARK  Name = 
REMARK  7 active torsions:
REMARK  status: ('A' for Active; 'I' for Inactive)
REMARK    1  A    between atoms: C_2  and  O_3
REMARK    2  A    between atoms: C_2  and  C_4
REMARK    3  A    between atoms: C_4  and  N_5
REMARK    4  A    between atoms: N_5  and  S_6
REMARK    5  A    between atoms: S_6  and  C_9
REMARK    6  A    between atoms: C_12  and  N_13
REMARK    7  A    between atoms: C_14  and  C_16
REMARK                            x       y       z     vdW  Elec       q    Type
REMARK                         _______ _______ _______ _____ _____    ______ ____
ROOT
ATOM      1  C   UNL     1       3.268   5.075  18.668  0.00  0.00    +0.000 A 
ATOM      2  C   UNL     1       2.698   4.889  19.925  0.00  0.00    +0.000 A 
ATOM      3  C   UNL     1       2.039   5.953  20.551  0.00  0.00    +0.000 A 
ATOM      4  C   UNL     1       1.940   7.206  19.935  0.00  0.00    +0.000 A 
ATOM      5  C   UNL     1       2.531   7.383  18.675  0.00  0.00    +0.000 A 
ATOM      6  C   UNL     1       3.203   6.325  18.045  0.00  0.00    +0.000 A 
ENDROOT
BRANCH   4   7
ATOM      7  N   UNL     1       1.281   8.312  20.514  0.00  0.00    +0.000 N 
ATOM      8  C   UNL     1       0.994   9.529  19.906  0.00  0.00    +0.000 C 
ATOM      9  O   UNL     1       1.237   9.827  18.740  0.00  0.00    +0.000 OA
ATOM     10  H   UNL     1       1.037   8.230  21.494  0.00  0.00    +0.000 HD
BRANCH   8  11
ATOM     11  C   UNL     1       0.256  10.510  20.800  0.00  0.00    +0.000 C 
ATOM     12  I   UNL     1      -0.206   9.585  22.647  0.00  0.00    +0.000 I 
ENDBRANCH   8  11
ENDBRANCH   4   7
BRANCH   1  13
ATOM     13  S   UNL     1       4.148   3.742  17.884  0.00  0.00    +0.000 S 
ATOM     14  O   UNL     1       4.410   4.092  16.506  0.00  0.00    +0.000 OA
ATOM     15  O   UNL     1       3.475   2.522  18.260  0.00  0.00    +0.000 OA
BRANCH  13  16
ATOM     16  N   UNL     1       5.639   3.744  18.716  0.00  0.00    +0.000 NA
ATOM     17  H   UNL     1       5.472   3.475  19.691  0.00  0.00    +0.000 HD
BRANCH  16  18
ATOM     18  C   UNL     1       6.383   5.042  18.641  0.00  0.00    +0.000 C 
BRANCH  18  20
ATOM     19  O   UNL     1       8.385   4.039  17.700  0.00  0.00    +0.000 OA
ATOM     20  C   UNL     1       7.511   4.888  17.635  0.00  0.00    +0.000 C 
BRANCH  20  21
ATOM     21  O   UNL     1       7.454   5.818  16.648  0.00  0.00    +0.000 OA
ATOM     22  H   UNL     1       8.223   5.700  16.044  0.00  0.00    +0.000 HD
ENDBRANCH  20  21
ENDBRANCH  18  20
ENDBRANCH  16  18
ENDBRANCH  13  16
ENDBRANCH   1  13
TORSDOF 7
ENDMDL
MODEL 5
REMARK VINA RESULT:      -6.3      2.539      3.230
REMARK  Name = 
REMARK  7 active torsions:
REMARK  status: ('A' for Active; 'I' for Inactive)
REMARK    1  A    between atoms: C_2  and  O_3
REMARK    2  A    between atoms: C_2  and  C_4
REMARK    3  A    between atoms: C_4  and  N_5
REMARK    4  A    between atoms: N_5  and  S_6
REMARK    5  A    between atoms: S_6  and  C_9
REMARK    6  A    between atoms: C_12  and  N_13
REMARK    7  A    between atoms: C_14  and  C_16
REMARK                            x       y       z     vdW  Elec       q    Type
REMARK                         _______ _______ _______ _____ _____    ______ ____
ROOT
ATOM      1  C   UNL     1       2.388   7.149  19.167  0.00  0.00    +0.000 A 
ATOM      2  C   UNL     1       1.770   7.793  20.235  0.00  0.00    +0.000 A 
ATOM      3  C   UNL     1       1.218   9.066  20.053  0.00  0.00    +0.000 A 
ATOM      4  C   UNL     1       1.273   9.706  18.810  0.00  0.00    +0.000 A 
ATOM      5  C   UNL     1       1.910   9.052  17.745  0.00  0.00    +0.000 A 
ATOM      6  C   UNL     1       2.477   7.781  17.922  0.00  0.00    +0.000 A 
ENDROOT
BRANCH   4   7
ATOM      7  N   UNL     1       0.725  10.984  18.564  0.00  0.00    +0.000 N 
ATOM      8  C   UNL     1      -0.622  11.323  18.517  0.00  0.00    +0.000 C 
ATOM      9  O   UNL     1      -1.564  10.564  18.724  0.00  0.00    +0.000 OA
ATOM     10  H   UNL     1       1.383  11.723  18.346  0.00  0.00    +0.000 HD
BRANCH   8  11
ATOM     11  C   UNL     1      -0.882  12.796  18.245  0.00  0.00    +0.000 C 
ATOM     12  I   UNL     1       0.653  13.964  19.118  0.00  0.00    +0.000 I 
ENDBRANCH   8  11
ENDBRANCH   4   7
BRANCH   1  13
ATOM     13  S   UNL     1       3.135   5.551  19.400  0.00  0.00    +0.000 S 
ATOM     14  O   UNL     1       4.560   5.714  19.583  0.00  0.00    +0.000 OA
ATOM     15  O   UNL     1       2.576   4.681  18.394  0.00  0.00    +0.000 OA
BRANCH  13  16
ATOM     16  N   UNL     1       2.470   5.048  20.892  0.00  0.00    +0.000 NA
ATOM     17  H   UNL     1       3.187   4.534  21.415  0.00  0.00    +0.000 HD
BRANCH  16  18
ATOM     18  C   UNL     1       1.218   4.237  20.764  0.00  0.00    +0.000 C 
BRANCH  18  20
ATOM     19  O   UNL     1       1.567   2.301  22.191  0.00  0.00    +0.000 OA
ATOM     20  C   UNL     1       1.556   2.788  21.072  0.00  0.00    +0.000 C 
BRANCH  20  21
ATOM     21  O   UNL     1       1.865   2.080  19.955  0.00  0.00    +0.000 OA
ATOM     22  H   UNL     1       2.195   2.695  19.260  0.00  0.00    +0.000 HD
ENDBRANCH  20  21
ENDBRANCH  18  20
ENDBRANCH  16  18
ENDBRANCH  13  16
ENDBRANCH   1  13
TORSDOF 7
ENDMDL
MODEL 6
REMARK VINA RESULT:      -6.3      3.979      6.195
REMARK  Name = 
REMARK  7 active torsions:
REMARK  status: ('A' for Active; 'I' for Inactive)
REMARK    1  A    between atoms: C_2  and  O_3
REMARK    2  A    between atoms: C_2  and  C_4
REMARK    3  A    between atoms: C_4  and  N_5
REMARK    4  A    between atoms: N_5  and  S_6
REMARK    5  A    between atoms: S_6  and  C_9
REMARK    6  A    between atoms: C_12  and  N_13
REMARK    7  A    between atoms: C_14  and  C_16
REMARK                            x       y       z     vdW  Elec       q    Type
REMARK                         _______ _______ _______ _____ _____    ______ ____
ROOT
ATOM      1  C   UNL     1       3.032   4.067  19.321  0.00  0.00    +0.000 A 
ATOM      2  C   UNL     1       2.501   3.853  18.052  0.00  0.00    +0.000 A 
ATOM      3  C   UNL     1       3.356   3.769  16.948  0.00  0.00    +0.000 A 
ATOM      4  C   UNL     1       4.742   3.896  17.095  0.00  0.00    +0.000 A 
ATOM      5  C   UNL     1       5.263   4.125  18.377  0.00  0.00    +0.000 A 
ATOM      6  C   UNL     1       4.412   4.222  19.488  0.00  0.00    +0.000 A 
ENDROOT
BRANCH   4   7
ATOM      7  N   UNL     1       5.653   3.811  16.020  0.00  0.00    +0.000 N 
ATOM      8  C   UNL     1       5.965   4.810  15.104  0.00  0.00    +0.000 C 
ATOM      9  O   UNL     1       5.520   5.954  15.107  0.00  0.00    +0.000 OA
ATOM     10  H   UNL     1       6.088   2.908  15.867  0.00  0.00    +0.000 HD
BRANCH   8  11
ATOM     11  C   UNL     1       7.004   4.403  14.072  0.00  0.00    +0.000 C 
ATOM     12  I   UNL     1       6.046   3.512  12.408  0.00  0.00    +0.000 I 
ENDBRANCH   8  11
ENDBRANCH   4   7
BRANCH   1  13
ATOM     13  S   UNL     1       1.950   4.222  20.725  0.00  0.00    +0.000 S 
ATOM     14  O   UNL     1       2.469   3.424  21.814  0.00  0.00    +0.000 OA
ATOM     15  O   UNL     1       0.603   4.075  20.229  0.00  0.00    +0.000 OA
BRANCH  13  16
ATOM     16  N   UNL     1       2.129   5.866  21.150  0.00  0.00    +0.000 NA
ATOM     17  H   UNL     1       1.425   6.102  21.857  0.00  0.00    +0.000 HD
BRANCH  16  18
ATOM     18  C   UNL     1       2.059   6.811  19.991  0.00  0.00    +0.000 C 
BRANCH  18  20
ATOM     19  O   UNL     1       1.160   9.060  19.798  0.00  0.00    +0.000 OA
ATOM     20  C   UNL     1       1.591   8.162  20.504  0.00  0.00    +0.000 C 
BRANCH  20  21
ATOM     21  O   UNL     1       1.719   8.277  21.851  0.00  0.00    +0.000 OA
ATOM     22  H   UNL     1       0.849   8.102  22.277  0.00  0.00    +0.000 HD
ENDBRANCH  20  21
ENDBRANCH  18  20
ENDBRANCH  16  18
ENDBRANCH  13  16
ENDBRANCH   1  13
TORSDOF 7
ENDMDL
MODEL 7
REMARK VINA RESULT:      -6.3      2.309      3.491
REMARK  Name = 
REMARK  7 active torsions:
REMARK  status: ('A' for Active; 'I' for Inactive)
REMARK    1  A    between atoms: C_2  and  O_3
REMARK    2  A    between atoms: C_2  and  C_4
REMARK    3  A    between atoms: C_4  and  N_5
REMARK    4  A    between atoms: N_5  and  S_6
REMARK    5  A    between atoms: S_6  and  C_9
REMARK    6  A    between atoms: C_12  and  N_13
REMARK    7  A    between atoms: C_14  and  C_16
REMARK                            x       y       z     vdW  Elec       q    Type
REMARK                         _______ _______ _______ _____ _____    ______ ____
ROOT
ATOM      1  C   UNL     1       3.723   5.571  18.635  0.00  0.00    +0.000 A 
ATOM      2  C   UNL     1       2.953   5.529  19.794  0.00  0.00    +0.000 A 
ATOM      3  C   UNL     1       2.135   6.616  20.123  0.00  0.00    +0.000 A 
ATOM      4  C   UNL     1       2.074   7.749  19.304  0.00  0.00    +0.000 A 
ATOM      5  C   UNL     1       2.864   7.783  18.145  0.00  0.00    +0.000 A 
ATOM      6  C   UNL     1       3.697   6.704  17.815  0.00  0.00    +0.000 A 
ENDROOT
BRANCH   4   7
ATOM      7  N   UNL     1       1.260   8.869  19.579  0.00  0.00    +0.000 N 
ATOM      8  C   UNL     1       0.948   9.391  20.830  0.00  0.00    +0.000 C 
ATOM      9  O   UNL     1       1.367   8.978  21.908  0.00  0.00    +0.000 OA
ATOM     10  H   UNL     1       0.813   9.309  18.784  0.00  0.00    +0.000 HD
BRANCH   8  11
ATOM     11  C   UNL     1       0.056  10.620  20.784  0.00  0.00    +0.000 C 
ATOM     12  I   UNL     1      -0.917  10.726  18.906  0.00  0.00    +0.000 I 
ENDBRANCH   8  11
ENDBRANCH   4   7
BRANCH   1  13
ATOM     13  S   UNL     1       4.802   4.215  18.232  0.00  0.00    +0.000 S 
ATOM     14  O   UNL     1       4.031   2.993  18.184  0.00  0.00    +0.000 OA
ATOM     15  O   UNL     1       5.977   4.359  19.058  0.00  0.00    +0.000 OA
BRANCH  13  16
ATOM     16  N   UNL     1       5.287   4.590  16.638  0.00  0.00    +0.000 NA
ATOM     17  H   UNL     1       4.728   4.031  15.984  0.00  0.00    +0.000 HD
BRANCH  16  18
ATOM     18  C   UNL     1       6.750   4.407  16.381  0.00  0.00    +0.000 C 
BRANCH  18  20
ATOM     19  O   UNL     1       7.643   5.429  14.366  0.00  0.00    +0.000 OA
ATOM     20  C   UNL     1       6.992   4.537  14.887  0.00  0.00    +0.000 C 
BRANCH  20  21
ATOM     21  O   UNL     1       6.386   3.552  14.176  0.00  0.00    +0.000 OA
ATOM     22  H   UNL     1       6.719   2.677  14.482  0.00  0.00    +0.000 HD
ENDBRANCH  20  21
ENDBRANCH  18  20
ENDBRANCH  16  18
ENDBRANCH  13  16
ENDBRANCH   1  13
TORSDOF 7
ENDMDL
MODEL 8
REMARK VINA RESULT:      -6.2      2.238      3.260
REMARK  Name = 
REMARK  7 active torsions:
REMARK  status: ('A' for Active; 'I' for Inactive)
REMARK    1  A    between atoms: C_2  and  O_3
REMARK    2  A    between atoms: C_2  and  C_4
REMARK    3  A    between atoms: C_4  and  N_5
REMARK    4  A    between atoms: N_5  and  S_6
REMARK    5  A    between atoms: S_6  and  C_9
REMARK    6  A    between atoms: C_12  and  N_13
REMARK    7  A    between atoms: C_14  and  C_16
REMARK                            x       y       z     vdW  Elec       q    Type
REMARK                         _______ _______ _______ _____ _____    ______ ____
ROOT
ATOM      1  C   UNL     1       3.891   5.514  18.670  0.00  0.00    +0.000 A 
ATOM      2  C   UNL     1       3.899   6.589  17.785  0.00  0.00    +0.000 A 
ATOM      3  C   UNL     1       3.048   7.677  18.008  0.00  0.00    +0.000 A 
ATOM      4  C   UNL     1       2.188   7.708  19.111  0.00  0.00    +0.000 A 
ATOM      5  C   UNL     1       2.180   6.612  19.988  0.00  0.00    +0.000 A 
ATOM      6  C   UNL     1       3.020   5.512  19.764  0.00  0.00    +0.000 A 
ENDROOT
BRANCH   4   7
ATOM      7  N   UNL     1       1.316   8.782  19.393  0.00  0.00    +0.000 N 
ATOM      8  C   UNL     1       1.009   9.306  20.644  0.00  0.00    +0.000 C 
ATOM      9  O   UNL     1       1.483   8.940  21.715  0.00  0.00    +0.000 OA
ATOM     10  H   UNL     1       0.820   9.179  18.604  0.00  0.00    +0.000 HD
BRANCH   8  11
ATOM     11  C   UNL     1       0.042  10.478  20.604  0.00  0.00    +0.000 C 
ATOM     12  I   UNL     1      -0.816  10.631  18.675  0.00  0.00    +0.000 I 
ENDBRANCH   8  11
ENDBRANCH   4   7
BRANCH   1  13
ATOM     13  S   UNL     1       4.934   4.104  18.369  0.00  0.00    +0.000 S 
ATOM     14  O   UNL     1       4.152   2.896  18.509  0.00  0.00    +0.000 OA
ATOM     15  O   UNL     1       6.156   4.327  19.104  0.00  0.00    +0.000 OA
BRANCH  13  16
ATOM     16  N   UNL     1       5.329   4.283  16.716  0.00  0.00    +0.000 NA
ATOM     17  H   UNL     1       5.000   3.456  16.208  0.00  0.00    +0.000 HD
BRANCH  16  18
ATOM     18  C   UNL     1       6.783   4.527  16.455  0.00  0.00    +0.000 C 
BRANCH  18  20
ATOM     19  O   UNL     1       7.647   5.441  14.376  0.00  0.00    +0.000 OA
ATOM     20  C   UNL     1       6.993   4.585  14.951  0.00  0.00    +0.000 C 
BRANCH  20  21
ATOM     21  O   UNL     1       6.356   3.579  14.300  0.00  0.00    +0.000 OA
ATOM     22  H   UNL     1       5.519   3.921  13.911  0.00  0.00    +0.000 HD
ENDBRANCH  20  21
ENDBRANCH  18  20
ENDBRANCH  16  18
ENDBRANCH  13  16
ENDBRANCH   1  13
TORSDOF 7
ENDMDL
MODEL 9
REMARK VINA RESULT:      -6.2      1.668      3.415
REMARK  Name = 
REMARK  7 active torsions:
REMARK  status: ('A' for Active; 'I' for Inactive)
REMARK    1  A    between atoms: C_2  and  O_3
REMARK    2  A    between atoms: C_2  and  C_4
REMARK    3  A    between atoms: C_4  and  N_5
REMARK    4  A    between atoms: N_5  and  S_6
REMARK    5  A    between atoms: S_6  and  C_9
REMARK    6  A    between atoms: C_12  and  N_13
REMARK    7  A    between atoms: C_14  and  C_16
REMARK                            x       y       z     vdW  Elec       q    Type
REMARK                         _______ _______ _______ _____ _____    ______ ____
ROOT
ATOM      1  C   UNL     1       3.955   5.323  17.806  0.00  0.00    +0.000 A 
ATOM      2  C   UNL     1       2.995   5.106  18.792  0.00  0.00    +0.000 A 
ATOM      3  C   UNL     1       2.234   6.180  19.266  0.00  0.00    +0.000 A 
ATOM      4  C   UNL     1       2.417   7.473  18.764  0.00  0.00    +0.000 A 
ATOM      5  C   UNL     1       3.396   7.680  17.781  0.00  0.00    +0.000 A 
ATOM      6  C   UNL     1       4.172   6.612  17.309  0.00  0.00    +0.000 A 
ENDROOT
BRANCH   4   7
ATOM      7  N   UNL     1       1.672   8.592  19.197  0.00  0.00    +0.000 N 
ATOM      8  C   UNL     1       1.498   9.795  18.521  0.00  0.00    +0.000 C 
ATOM      9  O   UNL     1       1.938  10.066  17.408  0.00  0.00    +0.000 OA
ATOM     10  H   UNL     1       1.263   8.532  20.122  0.00  0.00    +0.000 HD
BRANCH   8  11
ATOM     11  C   UNL     1       0.621  10.796  19.254  0.00  0.00    +0.000 C 
ATOM     12  I   UNL     1      -1.353  10.706  18.494  0.00  0.00    +0.000 I 
ENDBRANCH   8  11
ENDBRANCH   4   7
BRANCH   1  13
ATOM     13  S   UNL     1       4.961   3.973  17.230  0.00  0.00    +0.000 S 
ATOM     14  O   UNL     1       5.489   4.298  15.924  0.00  0.00    +0.000 OA
ATOM     15  O   UNL     1       4.219   2.762  17.489  0.00  0.00    +0.000 OA
BRANCH  13  16
ATOM     16  N   UNL     1       6.262   3.984  18.337  0.00  0.00    +0.000 NA
ATOM     17  H   UNL     1       5.944   4.411  19.214  0.00  0.00    +0.000 HD
BRANCH  16  18
ATOM     18  C   UNL     1       7.495   4.666  17.829  0.00  0.00    +0.000 C 
BRANCH  18  20
ATOM     19  O   UNL     1       7.853   7.005  18.377  0.00  0.00    +0.000 OA
ATOM     20  C   UNL     1       7.801   5.841  18.741  0.00  0.00    +0.000 C 
BRANCH  20  21
ATOM     21  O   UNL     1       8.031   5.455  20.023  0.00  0.00    +0.000 OA
ATOM     22  H   UNL     1       8.319   4.514  20.033  0.00  0.00    +0.000 HD
ENDBRANCH  20  21
ENDBRANCH  18  20
ENDBRANCH  16  18
ENDBRANCH  13  16
ENDBRANCH   1  13
TORSDOF 7
ENDMDL
