MODEL 1
REMARK VINA RESULT:      -7.8      0.000      0.000
REMARK  Name = 
REMARK  2 active torsions:
REMARK  status: ('A' for Active; 'I' for Inactive)
REMARK    1  A    between atoms: C_7  and  N_8
REMARK    2  A    between atoms: N_14  and  C_15
REMARK                            x       y       z     vdW  Elec       q    Type
REMARK                         _______ _______ _______ _____ _____    ______ ____
ROOT
ATOM      1  O   UNL     1       1.568   5.550  20.575  0.00  0.00    +0.000 OA
ATOM      2  C   UNL     1       2.263   6.067  19.721  0.00  0.00    +0.000 C 
ATOM      3  C   UNL     1       3.247   5.291  18.971  0.00  0.00    +0.000 A 
ATOM      4  C   UNL     1       3.553   3.940  19.047  0.00  0.00    +0.000 A 
ATOM      5  C   UNL     1       4.538   3.444  18.186  0.00  0.00    +0.000 A 
ATOM      6  C   UNL     1       5.198   4.301  17.285  0.00  0.00    +0.000 A 
ATOM      7  C   UNL     1       4.855   5.660  17.245  0.00  0.00    +0.000 A 
ATOM      8  C   UNL     1       3.870   6.139  18.080  0.00  0.00    +0.000 A 
ATOM      9  C   UNL     1       3.246   7.448  18.218  0.00  0.00    +0.000 C 
ATOM     10  O   UNL     1       3.577   8.382  17.514  0.00  0.00    +0.000 OA
ATOM     11  N   UNL     1       2.300   7.351  19.219  0.00  0.00    +0.000 N 
ENDROOT
BRANCH  11  12
ATOM     12  C   UNL     1       1.454   8.420  19.643  0.00  0.00    +0.000 A 
ATOM     13  C   UNL     1       1.002   9.403  18.731  0.00  0.00    +0.000 A 
ATOM     14  C   UNL     1       0.157  10.451  19.129  0.00  0.00    +0.000 A 
ATOM     15  C   UNL     1      -0.213  10.516  20.455  0.00  0.00    +0.000 A 
ATOM     16  N   UNL     1      -1.035  11.490  21.023  0.00  0.00    +0.000 N 
ATOM     17  C   UNL     1      -1.254  11.361  22.378  0.00  0.00    +0.000 A 
ATOM     18  S   UNL     1      -2.186  12.405  23.264  0.00  0.00    +0.000 S 
ATOM     19  S   UNL     1      -0.395   9.943  22.991  0.00  0.00    +0.000 S 
ATOM     20  C   UNL     1       0.229   9.572  21.373  0.00  0.00    +0.000 A 
ATOM     21  C   UNL     1       1.048   8.524  20.985  0.00  0.00    +0.000 A 
ATOM     22  H   UNL     1      -1.447  12.247  20.495  0.00  0.00    +0.000 HD
ENDBRANCH  11  12
BRANCH   7  23
ATOM     23  N   UNL     1       5.562   6.537  16.346  0.00  0.00    +0.000 N 
ATOM     24  O   UNL     1       5.171   6.559  15.172  0.00  0.00    +0.000 OA
ATOM     25  O   UNL     1       6.554   7.119  16.798  0.00  0.00    +0.000 OA
ENDBRANCH   7  23
TORSDOF 2
ENDMDL
MODEL 2
REMARK VINA RESULT:      -7.8      1.889      3.461
REMARK  Name = 
REMARK  2 active torsions:
REMARK  status: ('A' for Active; 'I' for Inactive)
REMARK    1  A    between atoms: C_7  and  N_8
REMARK    2  A    between atoms: N_14  and  C_15
REMARK                            x       y       z     vdW  Elec       q    Type
REMARK                         _______ _______ _______ _____ _____    ______ ____
ROOT
ATOM      1  O   UNL     1       3.337   8.036  17.519  0.00  0.00    +0.000 OA
ATOM      2  C   UNL     1       2.995   7.116  18.239  0.00  0.00    +0.000 C 
ATOM      3  C   UNL     1       3.451   5.751  17.994  0.00  0.00    +0.000 A 
ATOM      4  C   UNL     1       4.297   5.263  17.008  0.00  0.00    +0.000 A 
ATOM      5  C   UNL     1       4.589   3.895  17.016  0.00  0.00    +0.000 A 
ATOM      6  C   UNL     1       4.027   3.050  17.990  0.00  0.00    +0.000 A 
ATOM      7  C   UNL     1       3.177   3.588  18.966  0.00  0.00    +0.000 A 
ATOM      8  C   UNL     1       2.908   4.938  18.966  0.00  0.00    +0.000 A 
ATOM      9  C   UNL     1       2.150   5.792  19.870  0.00  0.00    +0.000 C 
ATOM     10  O   UNL     1       1.597   5.337  20.853  0.00  0.00    +0.000 OA
ATOM     11  N   UNL     1       2.227   7.081  19.383  0.00  0.00    +0.000 N 
ENDROOT
BRANCH  11  12
ATOM     12  C   UNL     1       1.628   8.220  20.002  0.00  0.00    +0.000 A 
ATOM     13  C   UNL     1       1.506   8.312  21.408  0.00  0.00    +0.000 A 
ATOM     14  C   UNL     1       0.934   9.431  22.032  0.00  0.00    +0.000 A 
ATOM     15  C   UNL     1       0.467  10.450  21.231  0.00  0.00    +0.000 A 
ATOM     16  N   UNL     1      -0.136  11.626  21.680  0.00  0.00    +0.000 N 
ATOM     17  C   UNL     1      -0.541  12.497  20.690  0.00  0.00    +0.000 A 
ATOM     18  S   UNL     1      -1.286  13.945  20.986  0.00  0.00    +0.000 S 
ATOM     19  S   UNL     1      -0.148  11.824  19.104  0.00  0.00    +0.000 S 
ATOM     20  C   UNL     1       0.561  10.379  19.847  0.00  0.00    +0.000 A 
ATOM     21  C   UNL     1       1.141   9.285  19.224  0.00  0.00    +0.000 A 
ATOM     22  H   UNL     1      -0.278  11.842  22.657  0.00  0.00    +0.000 HD
ENDBRANCH  11  12
BRANCH   7  23
ATOM     23  N   UNL     1       2.575   2.708  19.937  0.00  0.00    +0.000 N 
ATOM     24  O   UNL     1       3.221   2.501  20.972  0.00  0.00    +0.000 OA
ATOM     25  O   UNL     1       1.514   2.161  19.615  0.00  0.00    +0.000 OA
ENDBRANCH   7  23
TORSDOF 2
ENDMDL
MODEL 3
REMARK VINA RESULT:      -7.8      1.217      1.568
REMARK  Name = 
REMARK  2 active torsions:
REMARK  status: ('A' for Active; 'I' for Inactive)
REMARK    1  A    between atoms: C_7  and  N_8
REMARK    2  A    between atoms: N_14  and  C_15
REMARK                            x       y       z     vdW  Elec       q    Type
REMARK                         _______ _______ _______ _____ _____    ______ ____
ROOT
ATOM      1  O   UNL     1       1.453   5.104  20.205  0.00  0.00    +0.000 OA
ATOM      2  C   UNL     1       2.196   5.698  19.445  0.00  0.00    +0.000 C 
ATOM      3  C   UNL     1       3.072   4.979  18.524  0.00  0.00    +0.000 A 
ATOM      4  C   UNL     1       3.217   3.614  18.324  0.00  0.00    +0.000 A 
ATOM      5  C   UNL     1       4.126   3.190  17.348  0.00  0.00    +0.000 A 
ATOM      6  C   UNL     1       4.872   4.127  16.611  0.00  0.00    +0.000 A 
ATOM      7  C   UNL     1       4.693   5.497  16.850  0.00  0.00    +0.000 A 
ATOM      8  C   UNL     1       3.781   5.909  17.796  0.00  0.00    +0.000 A 
ATOM      9  C   UNL     1       3.319   7.228  18.210  0.00  0.00    +0.000 C 
ATOM     10  O   UNL     1       3.751   8.239  17.691  0.00  0.00    +0.000 OA
ATOM     11  N   UNL     1       2.379   7.042  19.204  0.00  0.00    +0.000 N 
ENDROOT
BRANCH  11  12
ATOM     12  C   UNL     1       1.671   8.095  19.858  0.00  0.00    +0.000 A 
ATOM     13  C   UNL     1       1.514   8.111  21.264  0.00  0.00    +0.000 A 
ATOM     14  C   UNL     1       0.834   9.146  21.923  0.00  0.00    +0.000 A 
ATOM     15  C   UNL     1       0.293  10.156  21.157  0.00  0.00    +0.000 A 
ATOM     16  N   UNL     1      -0.420  11.253  21.643  0.00  0.00    +0.000 N 
ATOM     17  C   UNL     1      -0.881  12.129  20.684  0.00  0.00    +0.000 A 
ATOM     18  S   UNL     1      -1.757  13.492  21.026  0.00  0.00    +0.000 S 
ATOM     19  S   UNL     1      -0.400  11.567  19.078  0.00  0.00    +0.000 S 
ATOM     20  C   UNL     1       0.420  10.157  19.774  0.00  0.00    +0.000 A 
ATOM     21  C   UNL     1       1.106   9.148  19.116  0.00  0.00    +0.000 A 
ATOM     22  H   UNL     1      -0.598  11.410  22.625  0.00  0.00    +0.000 HD
ENDBRANCH  11  12
BRANCH   7  23
ATOM     23  N   UNL     1       5.489   6.449  16.116  0.00  0.00    +0.000 N 
ATOM     24  O   UNL     1       5.055   6.801  15.012  0.00  0.00    +0.000 OA
ATOM     25  O   UNL     1       6.580   6.760  16.606  0.00  0.00    +0.000 OA
ENDBRANCH   7  23
TORSDOF 2
ENDMDL
MODEL 4
REMARK VINA RESULT:      -7.6      1.267      1.466
REMARK  Name = 
REMARK  2 active torsions:
REMARK  status: ('A' for Active; 'I' for Inactive)
REMARK    1  A    between atoms: C_7  and  N_8
REMARK    2  A    between atoms: N_14  and  C_15
REMARK                            x       y       z     vdW  Elec       q    Type
REMARK                         _______ _______ _______ _____ _____    ______ ____
ROOT
ATOM      1  O   UNL     1       1.501   4.737  18.964  0.00  0.00    +0.000 OA
ATOM      2  C   UNL     1       2.485   5.230  18.444  0.00  0.00    +0.000 C 
ATOM      3  C   UNL     1       3.481   4.403  17.767  0.00  0.00    +0.000 A 
ATOM      4  C   UNL     1       3.507   3.029  17.574  0.00  0.00    +0.000 A 
ATOM      5  C   UNL     1       4.584   2.490  16.863  0.00  0.00    +0.000 A 
ATOM      6  C   UNL     1       5.608   3.324  16.375  0.00  0.00    +0.000 A 
ATOM      7  C   UNL     1       5.538   4.706  16.595  0.00  0.00    +0.000 A 
ATOM      8  C   UNL     1       4.465   5.234  17.278  0.00  0.00    +0.000 A 
ATOM      9  C   UNL     1       4.072   6.602  17.591  0.00  0.00    +0.000 C 
ATOM     10  O   UNL     1       4.746   7.549  17.233  0.00  0.00    +0.000 OA
ATOM     11  N   UNL     1       2.887   6.540  18.296  0.00  0.00    +0.000 N 
ENDROOT
BRANCH  11  12
ATOM     12  C   UNL     1       2.164   7.676  18.768  0.00  0.00    +0.000 A 
ATOM     13  C   UNL     1       1.771   8.713  17.889  0.00  0.00    +0.000 A 
ATOM     14  C   UNL     1       1.046   9.829  18.335  0.00  0.00    +0.000 A 
ATOM     15  C   UNL     1       0.736   9.906  19.676  0.00  0.00    +0.000 A 
ATOM     16  N   UNL     1       0.033  10.943  20.289  0.00  0.00    +0.000 N 
ATOM     17  C   UNL     1      -0.145  10.812  21.650  0.00  0.00    +0.000 A 
ATOM     18  S   UNL     1      -0.938  11.923  22.588  0.00  0.00    +0.000 S 
ATOM     19  S   UNL     1       0.599   9.309  22.209  0.00  0.00    +0.000 S 
ATOM     20  C   UNL     1       1.122   8.909  20.562  0.00  0.00    +0.000 A 
ATOM     21  C   UNL     1       1.822   7.795  20.127  0.00  0.00    +0.000 A 
ATOM     22  H   UNL     1      -0.327  11.744  19.790  0.00  0.00    +0.000 HD
ENDBRANCH  11  12
BRANCH   7  23
ATOM     23  N   UNL     1       6.610   5.548  16.125  0.00  0.00    +0.000 N 
ATOM     24  O   UNL     1       6.578   5.869  14.930  0.00  0.00    +0.000 OA
ATOM     25  O   UNL     1       7.517   5.799  16.926  0.00  0.00    +0.000 OA
ENDBRANCH   7  23
TORSDOF 2
ENDMDL
MODEL 5
REMARK VINA RESULT:      -7.6      1.458      3.155
REMARK  Name = 
REMARK  2 active torsions:
REMARK  status: ('A' for Active; 'I' for Inactive)
REMARK    1  A    between atoms: C_7  and  N_8
REMARK    2  A    between atoms: N_14  and  C_15
REMARK                            x       y       z     vdW  Elec       q    Type
REMARK                         _______ _______ _______ _____ _____    ______ ____
ROOT
ATOM      1  O   UNL     1       3.571   7.796  17.382  0.00  0.00    +0.000 OA
ATOM      2  C   UNL     1       3.140   6.957  18.152  0.00  0.00    +0.000 C 
ATOM      3  C   UNL     1       3.612   5.576  18.111  0.00  0.00    +0.000 A 
ATOM      4  C   UNL     1       4.564   4.989  17.290  0.00  0.00    +0.000 A 
ATOM      5  C   UNL     1       4.844   3.632  17.480  0.00  0.00    +0.000 A 
ATOM      6  C   UNL     1       4.165   2.893  18.467  0.00  0.00    +0.000 A 
ATOM      7  C   UNL     1       3.210   3.529  19.272  0.00  0.00    +0.000 A 
ATOM      8  C   UNL     1       2.953   4.870  19.095  0.00  0.00    +0.000 A 
ATOM      9  C   UNL     1       2.100   5.812  19.806  0.00  0.00    +0.000 C 
ATOM     10  O   UNL     1       1.432   5.463  20.760  0.00  0.00    +0.000 OA
ATOM     11  N   UNL     1       2.243   7.042  19.195  0.00  0.00    +0.000 N 
ENDROOT
BRANCH  11  12
ATOM     12  C   UNL     1       1.584   8.237  19.613  0.00  0.00    +0.000 A 
ATOM     13  C   UNL     1       1.420   9.331  18.730  0.00  0.00    +0.000 A 
ATOM     14  C   UNL     1       0.762  10.507  19.120  0.00  0.00    +0.000 A 
ATOM     15  C   UNL     1       0.286  10.585  20.412  0.00  0.00    +0.000 A 
ATOM     16  N   UNL     1      -0.381  11.677  20.968  0.00  0.00    +0.000 N 
ATOM     17  C   UNL     1      -0.749  11.533  22.289  0.00  0.00    +0.000 A 
ATOM     18  S   UNL     1      -1.540  12.700  23.157  0.00  0.00    +0.000 S 
ATOM     19  S   UNL     1      -0.244   9.946  22.881  0.00  0.00    +0.000 S 
ATOM     20  C   UNL     1       0.447   9.532  21.302  0.00  0.00    +0.000 A 
ATOM     21  C   UNL     1       1.080   8.360  20.920  0.00  0.00    +0.000 A 
ATOM     22  H   UNL     1      -0.586  12.524  20.456  0.00  0.00    +0.000 HD
ENDBRANCH  11  12
BRANCH   7  23
ATOM     23  N   UNL     1       2.492   2.756  20.255  0.00  0.00    +0.000 N 
ATOM     24  O   UNL     1       3.050   2.593  21.348  0.00  0.00    +0.000 OA
ATOM     25  O   UNL     1       1.428   2.242  19.894  0.00  0.00    +0.000 OA
ENDBRANCH   7  23
TORSDOF 2
ENDMDL
MODEL 6
REMARK VINA RESULT:      -7.6      1.487      1.699
REMARK  Name = 
REMARK  2 active torsions:
REMARK  status: ('A' for Active; 'I' for Inactive)
REMARK    1  A    between atoms: C_7  and  N_8
REMARK    2  A    between atoms: N_14  and  C_15
REMARK                            x       y       z     vdW  Elec       q    Type
REMARK                         _______ _______ _______ _____ _____    ______ ____
ROOT
ATOM      1  O   UNL     1       1.049   4.978  20.452  0.00  0.00    +0.000 OA
ATOM      2  C   UNL     1       1.929   5.144  19.628  0.00  0.00    +0.000 C 
ATOM      3  C   UNL     1       2.658   4.015  19.058  0.00  0.00    +0.000 A 
ATOM      4  C   UNL     1       2.507   2.655  19.292  0.00  0.00    +0.000 A 
ATOM      5  C   UNL     1       3.335   1.776  18.585  0.00  0.00    +0.000 A 
ATOM      6  C   UNL     1       4.292   2.267  17.679  0.00  0.00    +0.000 A 
ATOM      7  C   UNL     1       4.408   3.649  17.476  0.00  0.00    +0.000 A 
ATOM      8  C   UNL     1       3.577   4.510  18.159  0.00  0.00    +0.000 A 
ATOM      9  C   UNL     1       3.400   5.955  18.108  0.00  0.00    +0.000 C 
ATOM     10  O   UNL     1       4.059   6.646  17.356  0.00  0.00    +0.000 OA
ATOM     11  N   UNL     1       2.409   6.281  19.013  0.00  0.00    +0.000 N 
ENDROOT
BRANCH  11  12
ATOM     12  C   UNL     1       1.926   7.604  19.246  0.00  0.00    +0.000 A 
ATOM     13  C   UNL     1       1.916   8.573  18.216  0.00  0.00    +0.000 A 
ATOM     14  C   UNL     1       1.430   9.873  18.425  0.00  0.00    +0.000 A 
ATOM     15  C   UNL     1       0.973  10.199  19.684  0.00  0.00    +0.000 A 
ATOM     16  N   UNL     1       0.467  11.440  20.069  0.00  0.00    +0.000 N 
ATOM     17  C   UNL     1       0.083  11.538  21.390  0.00  0.00    +0.000 A 
ATOM     18  S   UNL     1      -0.535  12.915  22.071  0.00  0.00    +0.000 S 
ATOM     19  S   UNL     1       0.360   9.996  22.208  0.00  0.00    +0.000 S 
ATOM     20  C   UNL     1       0.984   9.270  20.716  0.00  0.00    +0.000 A 
ATOM     21  C   UNL     1       1.446   7.979  20.513  0.00  0.00    +0.000 A 
ATOM     22  H   UNL     1       0.382  12.227  19.440  0.00  0.00    +0.000 HD
ENDBRANCH  11  12
BRANCH   7  23
ATOM     23  N   UNL     1       5.418   4.146  16.574  0.00  0.00    +0.000 N 
ATOM     24  O   UNL     1       5.122   4.175  15.373  0.00  0.00    +0.000 OA
ATOM     25  O   UNL     1       6.522   4.410  17.062  0.00  0.00    +0.000 OA
ENDBRANCH   7  23
TORSDOF 2
ENDMDL
MODEL 7
REMARK VINA RESULT:      -7.5      1.982      3.008
REMARK  Name = 
REMARK  2 active torsions:
REMARK  status: ('A' for Active; 'I' for Inactive)
REMARK    1  A    between atoms: C_7  and  N_8
REMARK    2  A    between atoms: N_14  and  C_15
REMARK                            x       y       z     vdW  Elec       q    Type
REMARK                         _______ _______ _______ _____ _____    ______ ____
ROOT
ATOM      1  O   UNL     1       4.593   8.122  17.097  0.00  0.00    +0.000 OA
ATOM      2  C   UNL     1       4.028   7.098  17.436  0.00  0.00    +0.000 C 
ATOM      3  C   UNL     1       4.578   5.785  17.114  0.00  0.00    +0.000 A 
ATOM      4  C   UNL     1       5.748   5.455  16.444  0.00  0.00    +0.000 A 
ATOM      5  C   UNL     1       6.051   4.098  16.289  0.00  0.00    +0.000 A 
ATOM      6  C   UNL     1       5.184   3.110  16.790  0.00  0.00    +0.000 A 
ATOM      7  C   UNL     1       4.013   3.491  17.459  0.00  0.00    +0.000 A 
ATOM      8  C   UNL     1       3.729   4.828  17.627  0.00  0.00    +0.000 A 
ATOM      9  C   UNL     1       2.662   5.528  18.330  0.00  0.00    +0.000 C 
ATOM     10  O   UNL     1       1.790   4.920  18.920  0.00  0.00    +0.000 OA
ATOM     11  N   UNL     1       2.884   6.882  18.175  0.00  0.00    +0.000 N 
ENDROOT
BRANCH  11  12
ATOM     12  C   UNL     1       2.066   7.908  18.737  0.00  0.00    +0.000 A 
ATOM     13  C   UNL     1       1.486   8.910  17.924  0.00  0.00    +0.000 A 
ATOM     14  C   UNL     1       0.667   9.917  18.458  0.00  0.00    +0.000 A 
ATOM     15  C   UNL     1       0.452   9.922  19.820  0.00  0.00    +0.000 A 
ATOM     16  N   UNL     1      -0.322  10.849  20.517  0.00  0.00    +0.000 N 
ATOM     17  C   UNL     1      -0.379  10.663  21.882  0.00  0.00    +0.000 A 
ATOM     18  S   UNL     1      -1.228  11.645  22.911  0.00  0.00    +0.000 S 
ATOM     19  S   UNL     1       0.581   9.250  22.334  0.00  0.00    +0.000 S 
ATOM     20  C   UNL     1       1.022   8.958  20.642  0.00  0.00    +0.000 A 
ATOM     21  C   UNL     1       1.817   7.950  20.120  0.00  0.00    +0.000 A 
ATOM     22  H   UNL     1      -0.813  11.613  20.072  0.00  0.00    +0.000 HD
ENDBRANCH  11  12
BRANCH   7  23
ATOM     23  N   UNL     1       3.112   2.472  17.936  0.00  0.00    +0.000 N 
ATOM     24  O   UNL     1       3.432   1.894  18.982  0.00  0.00    +0.000 OA
ATOM     25  O   UNL     1       2.148   2.195  17.213  0.00  0.00    +0.000 OA
ENDBRANCH   7  23
TORSDOF 2
ENDMDL
MODEL 8
REMARK VINA RESULT:      -7.5      2.052      3.191
REMARK  Name = 
REMARK  2 active torsions:
REMARK  status: ('A' for Active; 'I' for Inactive)
REMARK    1  A    between atoms: C_7  and  N_8
REMARK    2  A    between atoms: N_14  and  C_15
REMARK                            x       y       z     vdW  Elec       q    Type
REMARK                         _______ _______ _______ _____ _____    ______ ____
ROOT
ATOM      1  O   UNL     1       3.948   8.492  17.371  0.00  0.00    +0.000 OA
ATOM      2  C   UNL     1       3.543   7.400  17.726  0.00  0.00    +0.000 C 
ATOM      3  C   UNL     1       4.123   6.168  17.199  0.00  0.00    +0.000 A 
ATOM      4  C   UNL     1       5.161   5.994  16.295  0.00  0.00    +0.000 A 
ATOM      5  C   UNL     1       5.536   4.685  15.975  0.00  0.00    +0.000 A 
ATOM      6  C   UNL     1       4.865   3.589  16.548  0.00  0.00    +0.000 A 
ATOM      7  C   UNL     1       3.821   3.814  17.457  0.00  0.00    +0.000 A 
ATOM      8  C   UNL     1       3.470   5.104  17.784  0.00  0.00    +0.000 A 
ATOM      9  C   UNL     1       2.509   5.654  18.731  0.00  0.00    +0.000 C 
ATOM     10  O   UNL     1       1.821   4.929  19.424  0.00  0.00    +0.000 OA
ATOM     11  N   UNL     1       2.588   7.029  18.648  0.00  0.00    +0.000 N 
ENDROOT
BRANCH  11  12
ATOM     12  C   UNL     1       1.816   7.936  19.437  0.00  0.00    +0.000 A 
ATOM     13  C   UNL     1       1.682   7.761  20.834  0.00  0.00    +0.000 A 
ATOM     14  C   UNL     1       0.940   8.652  21.625  0.00  0.00    +0.000 A 
ATOM     15  C   UNL     1       0.316   9.709  20.998  0.00  0.00    +0.000 A 
ATOM     16  N   UNL     1      -0.466  10.680  21.625  0.00  0.00    +0.000 N 
ATOM     17  C   UNL     1      -1.004  11.635  20.789  0.00  0.00    +0.000 A 
ATOM     18  S   UNL     1      -1.970  12.875  21.309  0.00  0.00    +0.000 S 
ATOM     19  S   UNL     1      -0.510  11.317  19.122  0.00  0.00    +0.000 S 
ATOM     20  C   UNL     1       0.420   9.895  19.626  0.00  0.00    +0.000 A 
ATOM     21  C   UNL     1       1.166   9.030  18.840  0.00  0.00    +0.000 A 
ATOM     22  H   UNL     1      -0.639  10.698  22.621  0.00  0.00    +0.000 HD
ENDBRANCH  11  12
BRANCH   7  23
ATOM     23  N   UNL     1       3.115   2.685  18.011  0.00  0.00    +0.000 N 
ATOM     24  O   UNL     1       3.631   2.136  18.992  0.00  0.00    +0.000 OA
ATOM     25  O   UNL     1       2.108   2.304  17.404  0.00  0.00    +0.000 OA
ENDBRANCH   7  23
TORSDOF 2
ENDMDL
MODEL 9
REMARK VINA RESULT:      -7.4      1.735      3.466
REMARK  Name = 
REMARK  2 active torsions:
REMARK  status: ('A' for Active; 'I' for Inactive)
REMARK    1  A    between atoms: C_7  and  N_8
REMARK    2  A    between atoms: N_14  and  C_15
REMARK                            x       y       z     vdW  Elec       q    Type
REMARK                         _______ _______ _______ _____ _____    ______ ____
ROOT
ATOM      1  O   UNL     1       4.022   7.121  17.432  0.00  0.00    +0.000 OA
ATOM      2  C   UNL     1       3.419   6.513  18.297  0.00  0.00    +0.000 C 
ATOM      3  C   UNL     1       3.739   5.123  18.611  0.00  0.00    +0.000 A 
ATOM      4  C   UNL     1       4.707   4.293  18.065  0.00  0.00    +0.000 A 
ATOM      5  C   UNL     1       4.814   2.993  18.571  0.00  0.00    +0.000 A 
ATOM      6  C   UNL     1       3.954   2.551  19.593  0.00  0.00    +0.000 A 
ATOM      7  C   UNL     1       2.990   3.426  20.113  0.00  0.00    +0.000 A 
ATOM      8  C   UNL     1       2.902   4.710  19.625  0.00  0.00    +0.000 A 
ATOM      9  C   UNL     1       2.083   5.854  20.004  0.00  0.00    +0.000 C 
ATOM     10  O   UNL     1       1.279   5.782  20.913  0.00  0.00    +0.000 OA
ATOM     11  N   UNL     1       2.426   6.901  19.172  0.00  0.00    +0.000 N 
ENDROOT
BRANCH  11  12
ATOM     12  C   UNL     1       1.860   8.210  19.237  0.00  0.00    +0.000 A 
ATOM     13  C   UNL     1       1.872   9.071  18.115  0.00  0.00    +0.000 A 
ATOM     14  C   UNL     1       1.305  10.355  18.159  0.00  0.00    +0.000 A 
ATOM     15  C   UNL     1       0.745  10.775  19.346  0.00  0.00    +0.000 A 
ATOM     16  N   UNL     1       0.149  12.016  19.570  0.00  0.00    +0.000 N 
ATOM     17  C   UNL     1      -0.330  12.220  20.846  0.00  0.00    +0.000 A 
ATOM     18  S   UNL     1      -1.064  13.619  21.342  0.00  0.00    +0.000 S 
ATOM     19  S   UNL     1      -0.031  10.785  21.834  0.00  0.00    +0.000 S 
ATOM     20  C   UNL     1       0.733   9.954  20.467  0.00  0.00    +0.000 A 
ATOM     21  C   UNL     1       1.274   8.678  20.426  0.00  0.00    +0.000 A 
ATOM     22  H   UNL     1       0.068  12.731  18.860  0.00  0.00    +0.000 HD
ENDBRANCH  11  12
BRANCH   7  23
ATOM     23  N   UNL     1       2.088   2.952  21.133  0.00  0.00    +0.000 N 
ATOM     24  O   UNL     1       0.965   2.594  20.757  0.00  0.00    +0.000 OA
ATOM     25  O   UNL     1       2.476   3.033  22.304  0.00  0.00    +0.000 OA
ENDBRANCH   7  23
TORSDOF 2
ENDMDL
