MODEL 1
REMARK VINA RESULT:      -7.7      0.000      0.000
REMARK  Name = 
REMARK  6 active torsions:
REMARK  status: ('A' for Active; 'I' for Inactive)
REMARK    1  A    between atoms: C_1  and  C_2
REMARK    2  A    between atoms: C_4  and  C_5
REMARK    3  A    between atoms: C_11  and  C_13
REMARK    4  A    between atoms: C_13  and  C_14
REMARK    5  A    between atoms: C_14  and  C_15
REMARK    6  A    between atoms: C_14  and  C_16
REMARK                            x       y       z     vdW  Elec       q    Type
REMARK                         _______ _______ _______ _____ _____    ______ ____
ROOT
ATOM      1  C   UNL     1       6.535   4.183  14.349  0.00  0.00    +0.000 C 
ATOM      2  O   UNL     1       7.700   4.541  14.220  0.00  0.00    +0.000 OA
ATOM      3  N   UNL     1       5.855   4.275  15.606  0.00  0.00    +0.000 N 
ATOM      4  C   UNL     1       4.501   3.695  15.713  0.00  0.00    +0.000 C 
ATOM      5  C   UNL     1       3.732   3.972  17.002  0.00  0.00    +0.000 C 
ATOM      6  N   UNL     1       4.583   3.743  18.163  0.00  0.00    +0.000 N 
ATOM      7  C   UNL     1       4.322   2.841  19.188  0.00  0.00    +0.000 C 
ATOM      8  O   UNL     1       5.157   2.626  20.066  0.00  0.00    +0.000 OA
ATOM      9  C   UNL     1       5.859   4.469  18.150  0.00  0.00    +0.000 C 
ATOM     10  C   UNL     1       5.668   5.976  18.294  0.00  0.00    +0.000 C 
ATOM     11  S   UNL     1       7.243   6.652  17.858  0.00  0.00    +0.000 S 
ATOM     12  O   UNL     1       8.022   6.806  19.070  0.00  0.00    +0.000 OA
ATOM     13  O   UNL     1       7.027   7.749  16.940  0.00  0.00    +0.000 OA
ATOM     14  C   UNL     1       7.854   5.240  16.965  0.00  0.00    +0.000 C 
ATOM     15  C   UNL     1       6.685   4.242  16.845  0.00  0.00    +0.000 C 
ENDROOT
BRANCH   1  19
ATOM     16  C   UNL     1       3.346   3.204  10.485  0.00  0.00    +0.000 C 
ATOM     17  C   UNL     1       4.389   3.317  11.517  0.00  0.00    +0.000 A 
ATOM     18  C   UNL     1       4.655   4.184  12.549  0.00  0.00    +0.000 A 
ATOM     19  C   UNL     1       5.816   3.651  13.173  0.00  0.00    +0.000 A 
ATOM     20  N   UNL     1       6.260   2.589  12.479  0.00  0.00    +0.000 NA
ATOM     21  O   UNL     1       5.349   2.362  11.478  0.00  0.00    +0.000 OA
ENDBRANCH   1  19
BRANCH   7  22
ATOM     22  C   UNL     1       2.975   2.123  19.171  0.00  0.00    +0.000 C 
BRANCH  22  23
ATOM     23  C   UNL     1       1.814   2.943  19.769  0.00  0.00    +0.000 C 
ATOM     24  C   UNL     1       0.490   2.707  19.037  0.00  0.00    +0.000 C 
ATOM     25  C   UNL     1       1.631   2.593  21.250  0.00  0.00    +0.000 C 
ENDBRANCH  22  23
ENDBRANCH   7  22
TORSDOF 3
ENDMDL
MODEL 2
REMARK VINA RESULT:      -7.5      3.668      6.210
REMARK  Name = 
REMARK  6 active torsions:
REMARK  status: ('A' for Active; 'I' for Inactive)
REMARK    1  A    between atoms: C_1  and  C_2
REMARK    2  A    between atoms: C_4  and  C_5
REMARK    3  A    between atoms: C_11  and  C_13
REMARK    4  A    between atoms: C_13  and  C_14
REMARK    5  A    between atoms: C_14  and  C_15
REMARK    6  A    between atoms: C_14  and  C_16
REMARK                            x       y       z     vdW  Elec       q    Type
REMARK                         _______ _______ _______ _____ _____    ______ ____
ROOT
ATOM      1  C   UNL     1       2.697   8.119  18.084  0.00  0.00    +0.000 C 
ATOM      2  O   UNL     1       2.936   8.750  17.061  0.00  0.00    +0.000 OA
ATOM      3  N   UNL     1       3.375   6.893  18.385  0.00  0.00    +0.000 N 
ATOM      4  C   UNL     1       2.933   6.121  19.564  0.00  0.00    +0.000 C 
ATOM      5  C   UNL     1       3.789   4.924  19.966  0.00  0.00    +0.000 C 
ATOM      6  N   UNL     1       4.113   4.113  18.797  0.00  0.00    +0.000 N 
ATOM      7  C   UNL     1       3.794   2.770  18.635  0.00  0.00    +0.000 C 
ATOM      8  O   UNL     1       3.998   2.199  17.565  0.00  0.00    +0.000 OA
ATOM      9  C   UNL     1       4.728   4.848  17.685  0.00  0.00    +0.000 C 
ATOM     10  C   UNL     1       6.132   5.339  18.023  0.00  0.00    +0.000 C 
ATOM     11  S   UNL     1       6.502   6.498  16.740  0.00  0.00    +0.000 S 
ATOM     12  O   UNL     1       7.189   5.793  15.676  0.00  0.00    +0.000 OA
ATOM     13  O   UNL     1       7.050   7.690  17.350  0.00  0.00    +0.000 OA
ATOM     14  C   UNL     1       4.827   6.808  16.227  0.00  0.00    +0.000 C 
ATOM     15  C   UNL     1       3.907   6.099  17.240  0.00  0.00    +0.000 C 
ENDROOT
BRANCH   1  19
ATOM     16  C   UNL     1      -0.250   9.257  22.094  0.00  0.00    +0.000 C 
ATOM     17  C   UNL     1       0.481   9.085  20.828  0.00  0.00    +0.000 A 
ATOM     18  C   UNL     1       1.575   8.361  20.420  0.00  0.00    +0.000 A 
ATOM     19  C   UNL     1       1.692   8.643  19.030  0.00  0.00    +0.000 A 
ATOM     20  N   UNL     1       0.777   9.560  18.673  0.00  0.00    +0.000 NA
ATOM     21  O   UNL     1       0.003   9.800  19.781  0.00  0.00    +0.000 OA
ENDBRANCH   1  19
BRANCH   7  22
ATOM     22  C   UNL     1       3.172   2.043  19.825  0.00  0.00    +0.000 C 
BRANCH  22  23
ATOM     23  C   UNL     1       1.634   2.129  19.883  0.00  0.00    +0.000 C 
ATOM     24  C   UNL     1       1.136   2.946  21.079  0.00  0.00    +0.000 C 
ATOM     25  C   UNL     1       1.092   2.757  18.595  0.00  0.00    +0.000 C 
ENDBRANCH  22  23
ENDBRANCH   7  22
TORSDOF 3
ENDMDL
MODEL 3
REMARK VINA RESULT:      -7.0      3.933      7.497
REMARK  Name = 
REMARK  6 active torsions:
REMARK  status: ('A' for Active; 'I' for Inactive)
REMARK    1  A    between atoms: C_1  and  C_2
REMARK    2  A    between atoms: C_4  and  C_5
REMARK    3  A    between atoms: C_11  and  C_13
REMARK    4  A    between atoms: C_13  and  C_14
REMARK    5  A    between atoms: C_14  and  C_15
REMARK    6  A    between atoms: C_14  and  C_16
REMARK                            x       y       z     vdW  Elec       q    Type
REMARK                         _______ _______ _______ _____ _____    ______ ____
ROOT
ATOM      1  C   UNL     1       2.074   6.235  20.136  0.00  0.00    +0.000 C 
ATOM      2  O   UNL     1       1.594   5.462  20.957  0.00  0.00    +0.000 OA
ATOM      3  N   UNL     1       2.997   5.790  19.135  0.00  0.00    +0.000 N 
ATOM      4  C   UNL     1       3.636   6.804  18.272  0.00  0.00    +0.000 C 
ATOM      5  C   UNL     1       4.466   6.289  17.100  0.00  0.00    +0.000 C 
ATOM      6  N   UNL     1       5.354   5.217  17.536  0.00  0.00    +0.000 N 
ATOM      7  C   UNL     1       6.740   5.226  17.429  0.00  0.00    +0.000 C 
ATOM      8  O   UNL     1       7.416   4.331  17.936  0.00  0.00    +0.000 OA
ATOM      9  C   UNL     1       4.691   4.109  18.235  0.00  0.00    +0.000 C 
ATOM     10  C   UNL     1       3.787   3.300  17.310  0.00  0.00    +0.000 C 
ATOM     11  S   UNL     1       2.819   2.313  18.413  0.00  0.00    +0.000 S 
ATOM     12  O   UNL     1       3.490   1.040  18.590  0.00  0.00    +0.000 OA
ATOM     13  O   UNL     1       1.434   2.400  18.002  0.00  0.00    +0.000 OA
ATOM     14  C   UNL     1       3.070   3.295  19.874  0.00  0.00    +0.000 C 
ATOM     15  C   UNL     1       3.809   4.575  19.436  0.00  0.00    +0.000 C 
ENDROOT
BRANCH   1  19
ATOM     16  C   UNL     1       0.820  11.086  19.158  0.00  0.00    +0.000 C 
ATOM     17  C   UNL     1       1.134   9.736  19.654  0.00  0.00    +0.000 A 
ATOM     18  C   UNL     1       1.471   8.536  19.078  0.00  0.00    +0.000 A 
ATOM     19  C   UNL     1       1.681   7.658  20.178  0.00  0.00    +0.000 A 
ATOM     20  N   UNL     1       1.383   8.289  21.327  0.00  0.00    +0.000 NA
ATOM     21  O   UNL     1       1.084   9.588  21.000  0.00  0.00    +0.000 OA
ENDBRANCH   1  19
BRANCH   7  22
ATOM     22  C   UNL     1       7.383   6.388  16.678  0.00  0.00    +0.000 C 
BRANCH  22  23
ATOM     23  C   UNL     1       8.071   7.425  17.589  0.00  0.00    +0.000 C 
ATOM     24  C   UNL     1       7.335   8.768  17.610  0.00  0.00    +0.000 C 
ATOM     25  C   UNL     1       8.163   6.889  19.022  0.00  0.00    +0.000 C 
ENDBRANCH  22  23
ENDBRANCH   7  22
TORSDOF 3
ENDMDL
MODEL 4
REMARK VINA RESULT:      -6.8      3.345      5.705
REMARK  Name = 
REMARK  6 active torsions:
REMARK  status: ('A' for Active; 'I' for Inactive)
REMARK    1  A    between atoms: C_1  and  C_2
REMARK    2  A    between atoms: C_4  and  C_5
REMARK    3  A    between atoms: C_11  and  C_13
REMARK    4  A    between atoms: C_13  and  C_14
REMARK    5  A    between atoms: C_14  and  C_15
REMARK    6  A    between atoms: C_14  and  C_16
REMARK                            x       y       z     vdW  Elec       q    Type
REMARK                         _______ _______ _______ _____ _____    ______ ____
ROOT
ATOM      1  C   UNL     1       3.266   7.751  17.462  0.00  0.00    +0.000 C 
ATOM      2  O   UNL     1       3.563   8.171  16.350  0.00  0.00    +0.000 OA
ATOM      3  N   UNL     1       3.816   6.532  17.977  0.00  0.00    +0.000 N 
ATOM      4  C   UNL     1       3.304   6.021  19.264  0.00  0.00    +0.000 C 
ATOM      5  C   UNL     1       4.035   4.829  19.874  0.00  0.00    +0.000 C 
ATOM      6  N   UNL     1       4.269   3.803  18.866  0.00  0.00    +0.000 N 
ATOM      7  C   UNL     1       3.814   2.491  18.931  0.00  0.00    +0.000 C 
ATOM      8  O   UNL     1       3.953   1.728  17.975  0.00  0.00    +0.000 OA
ATOM      9  C   UNL     1       4.951   4.270  17.652  0.00  0.00    +0.000 C 
ATOM     10  C   UNL     1       6.399   4.667  17.920  0.00  0.00    +0.000 C 
ATOM     11  S   UNL     1       6.880   5.547  16.463  0.00  0.00    +0.000 S 
ATOM     12  O   UNL     1       7.486   4.605  15.543  0.00  0.00    +0.000 OA
ATOM     13  O   UNL     1       7.549   6.763  16.868  0.00  0.00    +0.000 OA
ATOM     14  C   UNL     1       5.243   5.933  15.884  0.00  0.00    +0.000 C 
ATOM     15  C   UNL     1       4.260   5.504  16.990  0.00  0.00    +0.000 C 
ENDROOT
BRANCH   1  19
ATOM     16  C   UNL     1       0.141   9.581  21.060  0.00  0.00    +0.000 C 
ATOM     17  C   UNL     1       1.004   9.246  19.915  0.00  0.00    +0.000 A 
ATOM     18  C   UNL     1       1.861   8.220  19.602  0.00  0.00    +0.000 A 
ATOM     19  C   UNL     1       2.324   8.527  18.293  0.00  0.00    +0.000 A 
ATOM     20  N   UNL     1       1.840   9.720  17.907  0.00  0.00    +0.000 NA
ATOM     21  O   UNL     1       0.990  10.142  18.899  0.00  0.00    +0.000 OA
ENDBRANCH   1  19
BRANCH   7  22
ATOM     22  C   UNL     1       3.127   2.045  20.219  0.00  0.00    +0.000 C 
BRANCH  22  23
ATOM     23  C   UNL     1       1.845   2.832  20.556  0.00  0.00    +0.000 C 
ATOM     24  C   UNL     1       0.737   2.622  19.520  0.00  0.00    +0.000 C 
ATOM     25  C   UNL     1       1.319   2.417  21.934  0.00  0.00    +0.000 C 
ENDBRANCH  22  23
ENDBRANCH   7  22
TORSDOF 3
ENDMDL
MODEL 5
REMARK VINA RESULT:      -6.7      4.319      7.497
REMARK  Name = 
REMARK  6 active torsions:
REMARK  status: ('A' for Active; 'I' for Inactive)
REMARK    1  A    between atoms: C_1  and  C_2
REMARK    2  A    between atoms: C_4  and  C_5
REMARK    3  A    between atoms: C_11  and  C_13
REMARK    4  A    between atoms: C_13  and  C_14
REMARK    5  A    between atoms: C_14  and  C_15
REMARK    6  A    between atoms: C_14  and  C_16
REMARK                            x       y       z     vdW  Elec       q    Type
REMARK                         _______ _______ _______ _____ _____    ______ ____
ROOT
ATOM      1  C   UNL     1       1.756   7.718  19.948  0.00  0.00    +0.000 C 
ATOM      2  O   UNL     1       1.256   7.476  21.041  0.00  0.00    +0.000 OA
ATOM      3  N   UNL     1       2.539   6.744  19.248  0.00  0.00    +0.000 N 
ATOM      4  C   UNL     1       3.222   7.157  18.005  0.00  0.00    +0.000 C 
ATOM      5  C   UNL     1       3.892   6.057  17.188  0.00  0.00    +0.000 C 
ATOM      6  N   UNL     1       4.681   5.186  18.052  0.00  0.00    +0.000 N 
ATOM      7  C   UNL     1       6.045   4.952  17.930  0.00  0.00    +0.000 C 
ATOM      8  O   UNL     1       6.651   4.300  18.780  0.00  0.00    +0.000 OA
ATOM      9  C   UNL     1       3.951   4.620  19.193  0.00  0.00    +0.000 C 
ATOM     10  C   UNL     1       2.889   3.615  18.759  0.00  0.00    +0.000 C 
ATOM     11  S   UNL     1       1.902   3.380  20.207  0.00  0.00    +0.000 S 
ATOM     12  O   UNL     1       2.432   2.246  20.938  0.00  0.00    +0.000 OA
ATOM     13  O   UNL     1       0.509   3.464  19.826  0.00  0.00    +0.000 OA
ATOM     14  C   UNL     1       2.380   4.872  21.050  0.00  0.00    +0.000 C 
ATOM     15  C   UNL     1       3.226   5.697  20.060  0.00  0.00    +0.000 C 
ENDROOT
BRANCH   1  19
ATOM     16  C   UNL     1       0.422  12.508  18.792  0.00  0.00    +0.000 C 
ATOM     17  C   UNL     1       0.925  11.131  18.934  0.00  0.00    +0.000 A 
ATOM     18  C   UNL     1       0.857  10.160  19.903  0.00  0.00    +0.000 A 
ATOM     19  C   UNL     1       1.536   9.045  19.338  0.00  0.00    +0.000 A 
ATOM     20  N   UNL     1       2.059   9.385  18.148  0.00  0.00    +0.000 NA
ATOM     21  O   UNL     1       1.642  10.666  17.884  0.00  0.00    +0.000 OA
ENDBRANCH   1  19
BRANCH   7  22
ATOM     22  C   UNL     1       6.758   5.546  16.718  0.00  0.00    +0.000 C 
BRANCH  22  23
ATOM     23  C   UNL     1       7.023   4.535  15.584  0.00  0.00    +0.000 C 
ATOM     24  C   UNL     1       5.864   3.554  15.389  0.00  0.00    +0.000 C 
ATOM     25  C   UNL     1       7.271   5.277  14.266  0.00  0.00    +0.000 C 
ENDBRANCH  22  23
ENDBRANCH   7  22
TORSDOF 3
ENDMDL
MODEL 6
REMARK VINA RESULT:      -6.4      4.325      7.932
REMARK  Name = 
REMARK  6 active torsions:
REMARK  status: ('A' for Active; 'I' for Inactive)
REMARK    1  A    between atoms: C_1  and  C_2
REMARK    2  A    between atoms: C_4  and  C_5
REMARK    3  A    between atoms: C_11  and  C_13
REMARK    4  A    between atoms: C_13  and  C_14
REMARK    5  A    between atoms: C_14  and  C_15
REMARK    6  A    between atoms: C_14  and  C_16
REMARK                            x       y       z     vdW  Elec       q    Type
REMARK                         _______ _______ _______ _____ _____    ______ ____
ROOT
ATOM      1  C   UNL     1       1.694   6.718  20.423  0.00  0.00    +0.000 C 
ATOM      2  O   UNL     1       1.111   5.933  21.163  0.00  0.00    +0.000 OA
ATOM      3  N   UNL     1       2.595   6.263  19.406  0.00  0.00    +0.000 N 
ATOM      4  C   UNL     1       3.363   7.273  18.650  0.00  0.00    +0.000 C 
ATOM      5  C   UNL     1       4.169   6.774  17.455  0.00  0.00    +0.000 C 
ATOM      6  N   UNL     1       4.926   5.579  17.812  0.00  0.00    +0.000 N 
ATOM      7  C   UNL     1       6.307   5.448  17.736  0.00  0.00    +0.000 C 
ATOM      8  O   UNL     1       6.870   4.445  18.175  0.00  0.00    +0.000 OA
ATOM      9  C   UNL     1       4.129   4.493  18.396  0.00  0.00    +0.000 C 
ATOM     10  C   UNL     1       3.173   3.869  17.385  0.00  0.00    +0.000 C 
ATOM     11  S   UNL     1       2.073   2.901  18.375  0.00  0.00    +0.000 S 
ATOM     12  O   UNL     1       2.600   1.553  18.453  0.00  0.00    +0.000 OA
ATOM     13  O   UNL     1       0.718   3.171  17.945  0.00  0.00    +0.000 OA
ATOM     14  C   UNL     1       2.382   3.721  19.923  0.00  0.00    +0.000 C 
ATOM     15  C   UNL     1       3.265   4.947  19.615  0.00  0.00    +0.000 C 
ENDROOT
BRANCH   1  19
ATOM     16  C   UNL     1       0.677  11.689  19.861  0.00  0.00    +0.000 C 
ATOM     17  C   UNL     1       0.981  10.300  20.242  0.00  0.00    +0.000 A 
ATOM     18  C   UNL     1       1.057   9.097  19.583  0.00  0.00    +0.000 A 
ATOM     19  C   UNL     1       1.453   8.166  20.583  0.00  0.00    +0.000 A 
ATOM     20  N   UNL     1       1.504   8.776  21.779  0.00  0.00    +0.000 NA
ATOM     21  O   UNL     1       1.251  10.107  21.556  0.00  0.00    +0.000 OA
ENDBRANCH   1  19
BRANCH   7  22
ATOM     22  C   UNL     1       7.092   6.594  17.104  0.00  0.00    +0.000 C 
BRANCH  22  23
ATOM     23  C   UNL     1       7.517   7.692  18.100  0.00  0.00    +0.000 C 
ATOM     24  C   UNL     1       8.511   7.182  19.147  0.00  0.00    +0.000 C 
ATOM     25  C   UNL     1       8.151   8.868  17.348  0.00  0.00    +0.000 C 
ENDBRANCH  22  23
ENDBRANCH   7  22
TORSDOF 3
ENDMDL
MODEL 7
REMARK VINA RESULT:      -6.3      4.403      7.663
REMARK  Name = 
REMARK  6 active torsions:
REMARK  status: ('A' for Active; 'I' for Inactive)
REMARK    1  A    between atoms: C_1  and  C_2
REMARK    2  A    between atoms: C_4  and  C_5
REMARK    3  A    between atoms: C_11  and  C_13
REMARK    4  A    between atoms: C_13  and  C_14
REMARK    5  A    between atoms: C_14  and  C_15
REMARK    6  A    between atoms: C_14  and  C_16
REMARK                            x       y       z     vdW  Elec       q    Type
REMARK                         _______ _______ _______ _____ _____    ______ ____
ROOT
ATOM      1  C   UNL     1       1.624   7.642  20.057  0.00  0.00    +0.000 C 
ATOM      2  O   UNL     1       1.056   7.324  21.096  0.00  0.00    +0.000 OA
ATOM      3  N   UNL     1       2.443   6.716  19.334  0.00  0.00    +0.000 N 
ATOM      4  C   UNL     1       3.203   7.214  18.170  0.00  0.00    +0.000 C 
ATOM      5  C   UNL     1       3.915   6.172  17.313  0.00  0.00    +0.000 C 
ATOM      6  N   UNL     1       4.644   5.230  18.155  0.00  0.00    +0.000 N 
ATOM      7  C   UNL     1       6.012   4.991  18.099  0.00  0.00    +0.000 C 
ATOM      8  O   UNL     1       6.560   4.269  18.932  0.00  0.00    +0.000 OA
ATOM      9  C   UNL     1       3.841   4.587  19.203  0.00  0.00    +0.000 C 
ATOM     10  C   UNL     1       2.802   3.629  18.629  0.00  0.00    +0.000 C 
ATOM     11  S   UNL     1       1.726   3.296  19.992  0.00  0.00    +0.000 S 
ATOM     12  O   UNL     1       2.204   2.104  20.665  0.00  0.00    +0.000 OA
ATOM     13  O   UNL     1       0.360   3.423  19.534  0.00  0.00    +0.000 OA
ATOM     14  C   UNL     1       2.161   4.714  20.974  0.00  0.00    +0.000 C 
ATOM     15  C   UNL     1       3.071   5.603  20.104  0.00  0.00    +0.000 C 
ENDROOT
BRANCH   1  19
ATOM     16  C   UNL     1       0.685  12.606  19.318  0.00  0.00    +0.000 C 
ATOM     17  C   UNL     1       1.032  11.175  19.320  0.00  0.00    +0.000 A 
ATOM     18  C   UNL     1       1.042  10.171  20.258  0.00  0.00    +0.000 A 
ATOM     19  C   UNL     1       1.450   9.014  19.538  0.00  0.00    +0.000 A 
ATOM     20  N   UNL     1       1.758   9.349  18.274  0.00  0.00    +0.000 NA
ATOM     21  O   UNL     1       1.458  10.681  18.133  0.00  0.00    +0.000 OA
ENDBRANCH   1  19
BRANCH   7  22
ATOM     22  C   UNL     1       6.802   5.668  16.982  0.00  0.00    +0.000 C 
BRANCH  22  23
ATOM     23  C   UNL     1       7.718   6.812  17.460  0.00  0.00    +0.000 C 
ATOM     24  C   UNL     1       7.052   8.186  17.341  0.00  0.00    +0.000 C 
ATOM     25  C   UNL     1       8.127   6.585  18.919  0.00  0.00    +0.000 C 
ENDBRANCH  22  23
ENDBRANCH   7  22
TORSDOF 3
ENDMDL
MODEL 8
REMARK VINA RESULT:      -6.3      3.633      7.090
REMARK  Name = 
REMARK  6 active torsions:
REMARK  status: ('A' for Active; 'I' for Inactive)
REMARK    1  A    between atoms: C_1  and  C_2
REMARK    2  A    between atoms: C_4  and  C_5
REMARK    3  A    between atoms: C_11  and  C_13
REMARK    4  A    between atoms: C_13  and  C_14
REMARK    5  A    between atoms: C_14  and  C_15
REMARK    6  A    between atoms: C_14  and  C_16
REMARK                            x       y       z     vdW  Elec       q    Type
REMARK                         _______ _______ _______ _____ _____    ______ ____
ROOT
ATOM      1  C   UNL     1       2.630   6.839  19.315  0.00  0.00    +0.000 C 
ATOM      2  O   UNL     1       2.357   6.480  20.454  0.00  0.00    +0.000 OA
ATOM      3  N   UNL     1       3.427   6.029  18.442  0.00  0.00    +0.000 N 
ATOM      4  C   UNL     1       3.829   6.592  17.137  0.00  0.00    +0.000 C 
ATOM      5  C   UNL     1       4.515   5.644  16.158  0.00  0.00    +0.000 C 
ATOM      6  N   UNL     1       5.556   4.879  16.834  0.00  0.00    +0.000 N 
ATOM      7  C   UNL     1       6.902   4.870  16.488  0.00  0.00    +0.000 C 
ATOM      8  O   UNL     1       7.729   4.290  17.191  0.00  0.00    +0.000 OA
ATOM      9  C   UNL     1       5.115   4.161  18.037  0.00  0.00    +0.000 C 
ATOM     10  C   UNL     1       4.161   3.017  17.710  0.00  0.00    +0.000 C 
ATOM     11  S   UNL     1       3.470   2.573  19.276  0.00  0.00    +0.000 S 
ATOM     12  O   UNL     1       4.278   1.511  19.843  0.00  0.00    +0.000 OA
ATOM     13  O   UNL     1       2.037   2.448  19.121  0.00  0.00    +0.000 OA
ATOM     14  C   UNL     1       3.848   4.089  20.126  0.00  0.00    +0.000 C 
ATOM     15  C   UNL     1       4.387   5.075  19.071  0.00  0.00    +0.000 C 
ENDROOT
BRANCH   1  19
ATOM     16  C   UNL     1       0.380  11.375  18.666  0.00  0.00    +0.000 C 
ATOM     17  C   UNL     1       1.119  10.102  18.650  0.00  0.00    +0.000 A 
ATOM     18  C   UNL     1       1.338   9.087  19.548  0.00  0.00    +0.000 A 
ATOM     19  C   UNL     1       2.116   8.136  18.830  0.00  0.00    +0.000 A 
ATOM     20  N   UNL     1       2.418   8.621  17.614  0.00  0.00    +0.000 NA
ATOM     21  O   UNL     1       1.763   9.821  17.492  0.00  0.00    +0.000 OA
ENDBRANCH   1  19
BRANCH   7  22
ATOM     22  C   UNL     1       7.311   5.615  15.220  0.00  0.00    +0.000 C 
BRANCH  22  23
ATOM     23  C   UNL     1       7.530   4.704  13.996  0.00  0.00    +0.000 C 
ATOM     24  C   UNL     1       6.259   3.955  13.586  0.00  0.00    +0.000 C 
ATOM     25  C   UNL     1       8.022   5.532  12.804  0.00  0.00    +0.000 C 
ENDBRANCH  22  23
ENDBRANCH   7  22
TORSDOF 3
ENDMDL
MODEL 9
REMARK VINA RESULT:      -6.2      4.685      7.966
REMARK  Name = 
REMARK  6 active torsions:
REMARK  status: ('A' for Active; 'I' for Inactive)
REMARK    1  A    between atoms: C_1  and  C_2
REMARK    2  A    between atoms: C_4  and  C_5
REMARK    3  A    between atoms: C_11  and  C_13
REMARK    4  A    between atoms: C_13  and  C_14
REMARK    5  A    between atoms: C_14  and  C_15
REMARK    6  A    between atoms: C_14  and  C_16
REMARK                            x       y       z     vdW  Elec       q    Type
REMARK                         _______ _______ _______ _____ _____    ______ ____
ROOT
ATOM      1  C   UNL     1       1.282   7.730  20.611  0.00  0.00    +0.000 C 
ATOM      2  O   UNL     1       0.742   7.249  21.601  0.00  0.00    +0.000 OA
ATOM      3  N   UNL     1       2.141   6.950  19.770  0.00  0.00    +0.000 N 
ATOM      4  C   UNL     1       2.863   7.635  18.679  0.00  0.00    +0.000 C 
ATOM      5  C   UNL     1       3.620   6.753  17.691  0.00  0.00    +0.000 C 
ATOM      6  N   UNL     1       4.405   5.749  18.400  0.00  0.00    +0.000 N 
ATOM      7  C   UNL     1       5.783   5.592  18.310  0.00  0.00    +0.000 C 
ATOM      8  O   UNL     1       6.376   4.798  19.039  0.00  0.00    +0.000 OA
ATOM      9  C   UNL     1       3.647   4.933  19.358  0.00  0.00    +0.000 C 
ATOM     10  C   UNL     1       2.653   4.005  18.667  0.00  0.00    +0.000 C 
ATOM     11  S   UNL     1       1.610   3.440  19.978  0.00  0.00    +0.000 S 
ATOM     12  O   UNL     1       2.156   2.197  20.488  0.00  0.00    +0.000 OA
ATOM     13  O   UNL     1       0.235   3.554  19.545  0.00  0.00    +0.000 OA
ATOM     14  C   UNL     1       1.980   4.739  21.135  0.00  0.00    +0.000 C 
ATOM     15  C   UNL     1       2.834   5.781  20.386  0.00  0.00    +0.000 C 
ENDROOT
BRANCH   1  19
ATOM     16  C   UNL     1       0.125  12.206  18.447  0.00  0.00    +0.000 C 
ATOM     17  C   UNL     1       0.491  11.034  19.259  0.00  0.00    +0.000 A 
ATOM     18  C   UNL     1       0.521   9.675  19.059  0.00  0.00    +0.000 A 
ATOM     19  C   UNL     1       1.032   9.146  20.276  0.00  0.00    +0.000 A 
ATOM     20  N   UNL     1       1.194  10.136  21.170  0.00  0.00    +0.000 NA
ATOM     21  O   UNL     1       0.896  11.308  20.522  0.00  0.00    +0.000 OA
ENDBRANCH   1  19
BRANCH   7  22
ATOM     22  C   UNL     1       6.525   6.449  17.288  0.00  0.00    +0.000 C 
BRANCH  22  23
ATOM     23  C   UNL     1       6.825   5.728  15.958  0.00  0.00    +0.000 C 
ATOM     24  C   UNL     1       7.330   4.298  16.167  0.00  0.00    +0.000 C 
ATOM     25  C   UNL     1       5.565   5.686  15.087  0.00  0.00    +0.000 C 
ENDBRANCH  22  23
ENDBRANCH   7  22
TORSDOF 3
ENDMDL
