MODEL 1
REMARK VINA RESULT:      -6.7      0.000      0.000
REMARK  Name = 
REMARK  15 active torsions:
REMARK  status: ('A' for Active; 'I' for Inactive)
REMARK    1  A    between atoms: C_1  and  C_2
REMARK    2  A    between atoms: C_2  and  C_3
REMARK    3  A    between atoms: C_2  and  C_4
REMARK    4  A    between atoms: C_4  and  C_5
REMARK    5  A    between atoms: C_7  and  C_8
REMARK    6  A    between atoms: C_14  and  C_15
REMARK    7  A    between atoms: N_17  and  C_18
REMARK    8  A    between atoms: C_18  and  C_19
REMARK    9  A    between atoms: C_19  and  C_20
REMARK   10  A    between atoms: C_20  and  C_21
REMARK   11  A    between atoms: C_21  and  C_22
REMARK   12  A    between atoms: C_22  and  C_23
REMARK   13  A    between atoms: C_23  and  N_24
REMARK   14  A    between atoms: C_25  and  C_27
REMARK   15  A    between atoms: C_27  and  S_28
REMARK                            x       y       z     vdW  Elec       q    Type
REMARK                         _______ _______ _______ _____ _____    ______ ____
ROOT
ATOM      1  C   UNL     1       7.180   5.471  18.665  0.00  0.00    +0.000 C 
ATOM      2  O   UNL     1       8.190   4.990  19.174  0.00  0.00    +0.000 OA
ATOM      3  N   UNL     1       7.163   6.777  18.236  0.00  0.00    +0.000 N 
ATOM      4  H   UNL     1       6.318   7.119  17.790  0.00  0.00    +0.000 HD
ENDROOT
BRANCH   1   9
ATOM      5  C   UNL     1       5.672   4.056  17.245  0.00  0.00    +0.000 A 
ATOM      6  S   UNL     1       4.080   3.415  17.289  0.00  0.00    +0.000 S 
ATOM      7  C   UNL     1       3.919   3.890  18.939  0.00  0.00    +0.000 A 
ATOM      8  N   UNL     1       4.941   4.584  19.419  0.00  0.00    +0.000 NA
ATOM      9  C   UNL     1       5.943   4.708  18.440  0.00  0.00    +0.000 A 
BRANCH   7  10
ATOM     10  C   UNL     1       2.729   3.555  19.696  0.00  0.00    +0.000 A 
ATOM     11  N   UNL     1       1.504   3.788  19.259  0.00  0.00    +0.000 NA
ATOM     12  C   UNL     1       0.578   3.370  20.192  0.00  0.00    +0.000 A 
ATOM     13  C   UNL     1       1.098   2.838  21.351  0.00  0.00    +0.000 A 
ATOM     14  S   UNL     1       2.813   2.827  21.257  0.00  0.00    +0.000 S 
ENDBRANCH   7  10
BRANCH   5  15
ATOM     15  C   UNL     1       6.536   3.930  16.015  0.00  0.00    +0.000 C 
BRANCH  15  17
ATOM     16  C   UNL     1       6.898   4.855  13.685  0.00  0.00    +0.000 C 
ATOM     17  C   UNL     1       6.618   5.202  15.142  0.00  0.00    +0.000 C 
ATOM     18  C   UNL     1       5.316   6.014  15.228  0.00  0.00    +0.000 C 
ENDBRANCH  15  17
ENDBRANCH   5  15
ENDBRANCH   1   9
BRANCH   3  19
ATOM     19  C   UNL     1       8.341   7.605  18.396  0.00  0.00    +0.000 C 
BRANCH  19  20
ATOM     20  C   UNL     1       8.111   9.047  17.940  0.00  0.00    +0.000 C 
BRANCH  20  21
ATOM     21  C   UNL     1       9.013  10.023  18.705  0.00  0.00    +0.000 C 
BRANCH  21  22
ATOM     22  C   UNL     1       9.095  11.380  18.004  0.00  0.00    +0.000 C 
BRANCH  22  23
ATOM     23  C   UNL     1      10.546  11.837  17.815  0.00  0.00    +0.000 C 
BRANCH  23  24
ATOM     24  C   UNL     1      10.600  13.243  17.219  0.00  0.00    +0.000 C 
BRANCH  24  25
ATOM     25  N   UNL     1       9.642  14.139  17.828  0.00  0.00    +0.000 N 
ATOM     26  C   UNL     1       9.771  15.501  17.696  0.00  0.00    +0.000 C 
ATOM     27  O   UNL     1      10.729  16.020  17.094  0.00  0.00    +0.000 OA
ATOM     28  H   UNL     1       8.836  13.758  18.324  0.00  0.00    +0.000 HD
BRANCH  26  29
ATOM     29  C   UNL     1       8.705  16.336  18.385  0.00  0.00    +0.000 C 
BRANCH  29  30
ATOM     30  S   UNL     1       7.060  15.581  18.243  0.00  0.00    +0.000 S 
ATOM     31  H   UNL     1       6.354  16.710  18.399  0.00  0.00    +0.000 HD
ENDBRANCH  29  30
ENDBRANCH  26  29
ENDBRANCH  24  25
ENDBRANCH  23  24
ENDBRANCH  22  23
ENDBRANCH  21  22
ENDBRANCH  20  21
ENDBRANCH  19  20
ENDBRANCH   3  19
TORSDOF 13
ENDMDL
MODEL 2
REMARK VINA RESULT:      -6.6      3.286      4.750
REMARK  Name = 
REMARK  15 active torsions:
REMARK  status: ('A' for Active; 'I' for Inactive)
REMARK    1  A    between atoms: C_1  and  C_2
REMARK    2  A    between atoms: C_2  and  C_3
REMARK    3  A    between atoms: C_2  and  C_4
REMARK    4  A    between atoms: C_4  and  C_5
REMARK    5  A    between atoms: C_7  and  C_8
REMARK    6  A    between atoms: C_14  and  C_15
REMARK    7  A    between atoms: N_17  and  C_18
REMARK    8  A    between atoms: C_18  and  C_19
REMARK    9  A    between atoms: C_19  and  C_20
REMARK   10  A    between atoms: C_20  and  C_21
REMARK   11  A    between atoms: C_21  and  C_22
REMARK   12  A    between atoms: C_22  and  C_23
REMARK   13  A    between atoms: C_23  and  N_24
REMARK   14  A    between atoms: C_25  and  C_27
REMARK   15  A    between atoms: C_27  and  S_28
REMARK                            x       y       z     vdW  Elec       q    Type
REMARK                         _______ _______ _______ _____ _____    ______ ____
ROOT
ATOM      1  C   UNL     1       4.920   4.596  18.825  0.00  0.00    +0.000 C 
ATOM      2  O   UNL     1       5.747   3.886  19.393  0.00  0.00    +0.000 OA
ATOM      3  N   UNL     1       5.069   4.926  17.499  0.00  0.00    +0.000 N 
ATOM      4  H   UNL     1       4.342   5.485  17.064  0.00  0.00    +0.000 HD
ENDROOT
BRANCH   1   9
ATOM      5  C   UNL     1       2.800   4.291  20.131  0.00  0.00    +0.000 A 
ATOM      6  S   UNL     1       1.442   5.216  20.628  0.00  0.00    +0.000 S 
ATOM      7  C   UNL     1       2.220   6.664  20.106  0.00  0.00    +0.000 A 
ATOM      8  N   UNL     1       3.382   6.481  19.495  0.00  0.00    +0.000 NA
ATOM      9  C   UNL     1       3.709   5.114  19.480  0.00  0.00    +0.000 A 
BRANCH   7  10
ATOM     10  C   UNL     1       1.602   7.958  20.318  0.00  0.00    +0.000 A 
ATOM     11  N   UNL     1       1.122   8.347  21.487  0.00  0.00    +0.000 NA
ATOM     12  C   UNL     1       0.592   9.617  21.385  0.00  0.00    +0.000 A 
ATOM     13  C   UNL     1       0.646  10.186  20.131  0.00  0.00    +0.000 A 
ATOM     14  S   UNL     1       1.423   9.107  19.045  0.00  0.00    +0.000 S 
ENDBRANCH   7  10
BRANCH   5  15
ATOM     15  C   UNL     1       2.862   2.801  20.359  0.00  0.00    +0.000 C 
BRANCH  15  17
ATOM     16  C   UNL     1       0.947   2.554  18.720  0.00  0.00    +0.000 C 
ATOM     17  C   UNL     1       2.245   1.943  19.233  0.00  0.00    +0.000 C 
ATOM     18  C   UNL     1       3.226   1.781  18.062  0.00  0.00    +0.000 C 
ENDBRANCH  15  17
ENDBRANCH   5  15
ENDBRANCH   1   9
BRANCH   3  19
ATOM     19  C   UNL     1       6.220   4.447  16.761  0.00  0.00    +0.000 C 
BRANCH  19  20
ATOM     20  C   UNL     1       7.359   5.467  16.723  0.00  0.00    +0.000 C 
BRANCH  20  21
ATOM     21  C   UNL     1       6.897   6.837  17.233  0.00  0.00    +0.000 C 
BRANCH  21  22
ATOM     22  C   UNL     1       8.005   7.550  18.011  0.00  0.00    +0.000 C 
BRANCH  22  23
ATOM     23  C   UNL     1       7.966   9.068  17.797  0.00  0.00    +0.000 C 
BRANCH  23  24
ATOM     24  C   UNL     1       8.953   9.773  18.726  0.00  0.00    +0.000 C 
BRANCH  24  25
ATOM     25  N   UNL     1       9.436  11.020  18.175  0.00  0.00    +0.000 N 
ATOM     26  C   UNL     1       9.488  12.156  18.947  0.00  0.00    +0.000 C 
ATOM     27  O   UNL     1       9.086  12.175  20.125  0.00  0.00    +0.000 OA
ATOM     28  H   UNL     1       9.785  11.049  17.217  0.00  0.00    +0.000 HD
BRANCH  26  29
ATOM     29  C   UNL     1      10.010  13.403  18.254  0.00  0.00    +0.000 C 
BRANCH  29  30
ATOM     30  S   UNL     1      11.388  13.026  17.134  0.00  0.00    +0.000 S 
ATOM     31  H   UNL     1      12.337  12.932  18.077  0.00  0.00    +0.000 HD
ENDBRANCH  29  30
ENDBRANCH  26  29
ENDBRANCH  24  25
ENDBRANCH  23  24
ENDBRANCH  22  23
ENDBRANCH  21  22
ENDBRANCH  20  21
ENDBRANCH  19  20
ENDBRANCH   3  19
TORSDOF 13
ENDMDL
MODEL 3
REMARK VINA RESULT:      -6.6      1.374      1.441
REMARK  Name = 
REMARK  15 active torsions:
REMARK  status: ('A' for Active; 'I' for Inactive)
REMARK    1  A    between atoms: C_1  and  C_2
REMARK    2  A    between atoms: C_2  and  C_3
REMARK    3  A    between atoms: C_2  and  C_4
REMARK    4  A    between atoms: C_4  and  C_5
REMARK    5  A    between atoms: C_7  and  C_8
REMARK    6  A    between atoms: C_14  and  C_15
REMARK    7  A    between atoms: N_17  and  C_18
REMARK    8  A    between atoms: C_18  and  C_19
REMARK    9  A    between atoms: C_19  and  C_20
REMARK   10  A    between atoms: C_20  and  C_21
REMARK   11  A    between atoms: C_21  and  C_22
REMARK   12  A    between atoms: C_22  and  C_23
REMARK   13  A    between atoms: C_23  and  N_24
REMARK   14  A    between atoms: C_25  and  C_27
REMARK   15  A    between atoms: C_27  and  S_28
REMARK                            x       y       z     vdW  Elec       q    Type
REMARK                         _______ _______ _______ _____ _____    ______ ____
ROOT
ATOM      1  C   UNL     1       7.308   6.124  18.422  0.00  0.00    +0.000 C 
ATOM      2  O   UNL     1       8.233   5.984  19.219  0.00  0.00    +0.000 OA
ATOM      3  N   UNL     1       7.287   7.187  17.550  0.00  0.00    +0.000 N 
ATOM      4  H   UNL     1       6.521   7.241  16.886  0.00  0.00    +0.000 HD
ENDROOT
BRANCH   1   9
ATOM      5  C   UNL     1       6.015   4.357  17.198  0.00  0.00    +0.000 A 
ATOM      6  S   UNL     1       4.525   3.514  17.336  0.00  0.00    +0.000 S 
ATOM      7  C   UNL     1       4.293   4.157  18.920  0.00  0.00    +0.000 A 
ATOM      8  N   UNL     1       5.208   5.036  19.303  0.00  0.00    +0.000 NA
ATOM      9  C   UNL     1       6.188   5.178  18.304  0.00  0.00    +0.000 A 
BRANCH   7  10
ATOM     10  C   UNL     1       3.156   3.755  19.725  0.00  0.00    +0.000 A 
ATOM     11  N   UNL     1       3.271   3.059  20.843  0.00  0.00    +0.000 NA
ATOM     12  C   UNL     1       2.026   2.821  21.385  0.00  0.00    +0.000 A 
ATOM     13  C   UNL     1       0.959   3.317  20.668  0.00  0.00    +0.000 A 
ATOM     14  S   UNL     1       1.537   4.144  19.280  0.00  0.00    +0.000 S 
ENDBRANCH   7  10
BRANCH   5  15
ATOM     15  C   UNL     1       6.895   4.204  15.982  0.00  0.00    +0.000 C 
BRANCH  15  17
ATOM     16  C   UNL     1       5.853   3.898  13.694  0.00  0.00    +0.000 C 
ATOM     17  C   UNL     1       6.375   4.907  14.709  0.00  0.00    +0.000 C 
ATOM     18  C   UNL     1       5.260   5.908  15.048  0.00  0.00    +0.000 C 
ENDBRANCH  15  17
ENDBRANCH   5  15
ENDBRANCH   1   9
BRANCH   3  19
ATOM     19  C   UNL     1       8.357   8.163  17.576  0.00  0.00    +0.000 C 
BRANCH  19  20
ATOM     20  C   UNL     1       7.893   9.529  18.083  0.00  0.00    +0.000 C 
BRANCH  20  21
ATOM     21  C   UNL     1       8.995  10.229  18.887  0.00  0.00    +0.000 C 
BRANCH  21  22
ATOM     22  C   UNL     1       9.782  11.215  18.022  0.00  0.00    +0.000 C 
BRANCH  22  23
ATOM     23  C   UNL     1      11.178  11.487  18.594  0.00  0.00    +0.000 C 
BRANCH  23  24
ATOM     24  C   UNL     1      11.801  12.722  17.944  0.00  0.00    +0.000 C 
BRANCH  24  25
ATOM     25  N   UNL     1      10.828  13.762  17.690  0.00  0.00    +0.000 N 
ATOM     26  C   UNL     1      11.138  15.083  17.911  0.00  0.00    +0.000 C 
ATOM     27  O   UNL     1      12.237  15.436  18.376  0.00  0.00    +0.000 OA
ATOM     28  H   UNL     1       9.917  13.520  17.299  0.00  0.00    +0.000 HD
BRANCH  26  29
ATOM     29  C   UNL     1      10.033  16.081  17.611  0.00  0.00    +0.000 C 
BRANCH  29  30
ATOM     30  S   UNL     1      10.673  17.774  17.473  0.00  0.00    +0.000 S 
ATOM     31  H   UNL     1       9.521  18.401  17.751  0.00  0.00    +0.000 HD
ENDBRANCH  29  30
ENDBRANCH  26  29
ENDBRANCH  24  25
ENDBRANCH  23  24
ENDBRANCH  22  23
ENDBRANCH  21  22
ENDBRANCH  20  21
ENDBRANCH  19  20
ENDBRANCH   3  19
TORSDOF 13
ENDMDL
MODEL 4
REMARK VINA RESULT:      -6.5      4.213      5.632
REMARK  Name = 
REMARK  15 active torsions:
REMARK  status: ('A' for Active; 'I' for Inactive)
REMARK    1  A    between atoms: C_1  and  C_2
REMARK    2  A    between atoms: C_2  and  C_3
REMARK    3  A    between atoms: C_2  and  C_4
REMARK    4  A    between atoms: C_4  and  C_5
REMARK    5  A    between atoms: C_7  and  C_8
REMARK    6  A    between atoms: C_14  and  C_15
REMARK    7  A    between atoms: N_17  and  C_18
REMARK    8  A    between atoms: C_18  and  C_19
REMARK    9  A    between atoms: C_19  and  C_20
REMARK   10  A    between atoms: C_20  and  C_21
REMARK   11  A    between atoms: C_21  and  C_22
REMARK   12  A    between atoms: C_22  and  C_23
REMARK   13  A    between atoms: C_23  and  N_24
REMARK   14  A    between atoms: C_25  and  C_27
REMARK   15  A    between atoms: C_27  and  S_28
REMARK                            x       y       z     vdW  Elec       q    Type
REMARK                         _______ _______ _______ _____ _____    ______ ____
ROOT
ATOM      1  C   UNL     1       3.629   5.820  17.896  0.00  0.00    +0.000 C 
ATOM      2  O   UNL     1       3.202   4.919  17.177  0.00  0.00    +0.000 OA
ATOM      3  N   UNL     1       4.960   6.163  17.877  0.00  0.00    +0.000 N 
ATOM      4  H   UNL     1       5.259   6.937  18.460  0.00  0.00    +0.000 HD
ENDROOT
BRANCH   1   9
ATOM      5  C   UNL     1       2.272   6.120  19.984  0.00  0.00    +0.000 A 
ATOM      6  S   UNL     1       1.194   7.265  20.674  0.00  0.00    +0.000 S 
ATOM      7  C   UNL     1       1.598   8.406  19.444  0.00  0.00    +0.000 A 
ATOM      8  N   UNL     1       2.406   7.943  18.501  0.00  0.00    +0.000 NA
ATOM      9  C   UNL     1       2.776   6.618  18.790  0.00  0.00    +0.000 A 
BRANCH   7  10
ATOM     10  C   UNL     1       1.051   9.748  19.468  0.00  0.00    +0.000 A 
ATOM     11  N   UNL     1       1.350  10.667  18.566  0.00  0.00    +0.000 NA
ATOM     12  C   UNL     1       0.687  11.844  18.848  0.00  0.00    +0.000 A 
ATOM     13  C   UNL     1      -0.099  11.828  19.979  0.00  0.00    +0.000 A 
ATOM     14  S   UNL     1      -0.037  10.271  20.699  0.00  0.00    +0.000 S 
ENDBRANCH   7  10
BRANCH   5  15
ATOM     15  C   UNL     1       2.509   4.777  20.628  0.00  0.00    +0.000 C 
BRANCH  15  17
ATOM     16  C   UNL     1       0.883   3.382  19.277  0.00  0.00    +0.000 C 
ATOM     17  C   UNL     1       1.276   3.848  20.673  0.00  0.00    +0.000 C 
ATOM     18  C   UNL     1       1.541   2.622  21.560  0.00  0.00    +0.000 C 
ENDBRANCH  15  17
ENDBRANCH   5  15
ENDBRANCH   1   9
BRANCH   3  19
ATOM     19  C   UNL     1       5.877   5.448  17.013  0.00  0.00    +0.000 C 
BRANCH  19  20
ATOM     20  C   UNL     1       7.197   6.194  16.814  0.00  0.00    +0.000 C 
BRANCH  20  21
ATOM     21  C   UNL     1       7.509   7.104  18.008  0.00  0.00    +0.000 C 
BRANCH  21  22
ATOM     22  C   UNL     1       8.054   8.459  17.554  0.00  0.00    +0.000 C 
BRANCH  22  23
ATOM     23  C   UNL     1       8.817   9.172  18.677  0.00  0.00    +0.000 C 
BRANCH  23  24
ATOM     24  C   UNL     1       8.853  10.680  18.437  0.00  0.00    +0.000 C 
BRANCH  24  25
ATOM     25  N   UNL     1      10.203  11.191  18.336  0.00  0.00    +0.000 N 
ATOM     26  C   UNL     1      10.784  11.854  19.390  0.00  0.00    +0.000 C 
ATOM     27  O   UNL     1      10.169  12.082  20.449  0.00  0.00    +0.000 OA
ATOM     28  H   UNL     1      10.748  11.019  17.491  0.00  0.00    +0.000 HD
BRANCH  26  29
ATOM     29  C   UNL     1      12.203  12.346  19.162  0.00  0.00    +0.000 C 
BRANCH  29  30
ATOM     30  S   UNL     1      12.321  14.152  19.302  0.00  0.00    +0.000 S 
ATOM     31  H   UNL     1      11.391  14.298  20.256  0.00  0.00    +0.000 HD
ENDBRANCH  29  30
ENDBRANCH  26  29
ENDBRANCH  24  25
ENDBRANCH  23  24
ENDBRANCH  22  23
ENDBRANCH  21  22
ENDBRANCH  20  21
ENDBRANCH  19  20
ENDBRANCH   3  19
TORSDOF 13
ENDMDL
MODEL 5
REMARK VINA RESULT:      -6.4      6.167      9.030
REMARK  Name = 
REMARK  15 active torsions:
REMARK  status: ('A' for Active; 'I' for Inactive)
REMARK    1  A    between atoms: C_1  and  C_2
REMARK    2  A    between atoms: C_2  and  C_3
REMARK    3  A    between atoms: C_2  and  C_4
REMARK    4  A    between atoms: C_4  and  C_5
REMARK    5  A    between atoms: C_7  and  C_8
REMARK    6  A    between atoms: C_14  and  C_15
REMARK    7  A    between atoms: N_17  and  C_18
REMARK    8  A    between atoms: C_18  and  C_19
REMARK    9  A    between atoms: C_19  and  C_20
REMARK   10  A    between atoms: C_20  and  C_21
REMARK   11  A    between atoms: C_21  and  C_22
REMARK   12  A    between atoms: C_22  and  C_23
REMARK   13  A    between atoms: C_23  and  N_24
REMARK   14  A    between atoms: C_25  and  C_27
REMARK   15  A    between atoms: C_27  and  S_28
REMARK                            x       y       z     vdW  Elec       q    Type
REMARK                         _______ _______ _______ _____ _____    ______ ____
ROOT
ATOM      1  C   UNL     1       2.321   7.550  19.349  0.00  0.00    +0.000 C 
ATOM      2  O   UNL     1       1.951   8.554  18.744  0.00  0.00    +0.000 OA
ATOM      3  N   UNL     1       2.150   7.446  20.709  0.00  0.00    +0.000 N 
ATOM      4  H   UNL     1       2.439   6.584  21.159  0.00  0.00    +0.000 HD
ENDROOT
BRANCH   1   9
ATOM      5  C   UNL     1       2.592   5.078  19.016  0.00  0.00    +0.000 A 
ATOM      6  S   UNL     1       3.615   3.991  18.168  0.00  0.00    +0.000 S 
ATOM      7  C   UNL     1       4.318   5.307  17.302  0.00  0.00    +0.000 A 
ATOM      8  N   UNL     1       3.905   6.507  17.683  0.00  0.00    +0.000 NA
ATOM      9  C   UNL     1       2.931   6.384  18.691  0.00  0.00    +0.000 A 
BRANCH   7  10
ATOM     10  C   UNL     1       5.299   5.071  16.261  0.00  0.00    +0.000 A 
ATOM     11  N   UNL     1       5.035   4.393  15.158  0.00  0.00    +0.000 NA
ATOM     12  C   UNL     1       6.158   4.327  14.359  0.00  0.00    +0.000 A 
ATOM     13  C   UNL     1       7.285   4.936  14.865  0.00  0.00    +0.000 A 
ATOM     14  S   UNL     1       6.918   5.650  16.382  0.00  0.00    +0.000 S 
ENDBRANCH   7  10
BRANCH   5  15
ATOM     15  C   UNL     1       1.558   4.581  19.995  0.00  0.00    +0.000 C 
BRANCH  15  17
ATOM     16  C   UNL     1       1.292   2.733  21.706  0.00  0.00    +0.000 C 
ATOM     17  C   UNL     1       1.574   3.057  20.244  0.00  0.00    +0.000 C 
ATOM     18  C   UNL     1       0.541   2.343  19.359  0.00  0.00    +0.000 C 
ENDBRANCH  15  17
ENDBRANCH   5  15
ENDBRANCH   1   9
BRANCH   3  19
ATOM     19  C   UNL     1       1.540   8.535  21.444  0.00  0.00    +0.000 C 
BRANCH  19  20
ATOM     20  C   UNL     1       0.012   8.485  21.407  0.00  0.00    +0.000 C 
BRANCH  20  21
ATOM     21  C   UNL     1      -0.594   9.890  21.498  0.00  0.00    +0.000 C 
BRANCH  21  22
ATOM     22  C   UNL     1      -0.226  10.741  20.281  0.00  0.00    +0.000 C 
BRANCH  22  23
ATOM     23  C   UNL     1      -1.392  11.630  19.834  0.00  0.00    +0.000 C 
BRANCH  23  24
ATOM     24  C   UNL     1      -1.465  11.704  18.309  0.00  0.00    +0.000 C 
BRANCH  24  25
ATOM     25  N   UNL     1      -2.783  12.066  17.836  0.00  0.00    +0.000 N 
ATOM     26  C   UNL     1      -3.688  11.100  17.467  0.00  0.00    +0.000 C 
ATOM     27  O   UNL     1      -3.404   9.888  17.480  0.00  0.00    +0.000 OA
ATOM     28  H   UNL     1      -3.063  13.048  17.818  0.00  0.00    +0.000 HD
BRANCH  26  29
ATOM     29  C   UNL     1      -5.036  11.606  16.984  0.00  0.00    +0.000 C 
BRANCH  29  30
ATOM     30  S   UNL     1      -6.353  11.271  18.188  0.00  0.00    +0.000 S 
ATOM     31  H   UNL     1      -7.111  12.338  17.894  0.00  0.00    +0.000 HD
ENDBRANCH  29  30
ENDBRANCH  26  29
ENDBRANCH  24  25
ENDBRANCH  23  24
ENDBRANCH  22  23
ENDBRANCH  21  22
ENDBRANCH  20  21
ENDBRANCH  19  20
ENDBRANCH   3  19
TORSDOF 13
ENDMDL
MODEL 6
REMARK VINA RESULT:      -6.4      2.043      2.065
REMARK  Name = 
REMARK  15 active torsions:
REMARK  status: ('A' for Active; 'I' for Inactive)
REMARK    1  A    between atoms: C_1  and  C_2
REMARK    2  A    between atoms: C_2  and  C_3
REMARK    3  A    between atoms: C_2  and  C_4
REMARK    4  A    between atoms: C_4  and  C_5
REMARK    5  A    between atoms: C_7  and  C_8
REMARK    6  A    between atoms: C_14  and  C_15
REMARK    7  A    between atoms: N_17  and  C_18
REMARK    8  A    between atoms: C_18  and  C_19
REMARK    9  A    between atoms: C_19  and  C_20
REMARK   10  A    between atoms: C_20  and  C_21
REMARK   11  A    between atoms: C_21  and  C_22
REMARK   12  A    between atoms: C_22  and  C_23
REMARK   13  A    between atoms: C_23  and  N_24
REMARK   14  A    between atoms: C_25  and  C_27
REMARK   15  A    between atoms: C_27  and  S_28
REMARK                            x       y       z     vdW  Elec       q    Type
REMARK                         _______ _______ _______ _____ _____    ______ ____
ROOT
ATOM      1  C   UNL     1       7.258   6.370  18.223  0.00  0.00    +0.000 C 
ATOM      2  O   UNL     1       8.210   6.222  18.987  0.00  0.00    +0.000 OA
ATOM      3  N   UNL     1       7.217   7.429  17.349  0.00  0.00    +0.000 N 
ATOM      4  H   UNL     1       6.428   7.490  16.713  0.00  0.00    +0.000 HD
ENDROOT
BRANCH   1   9
ATOM      5  C   UNL     1       5.983   4.507  17.129  0.00  0.00    +0.000 A 
ATOM      6  S   UNL     1       4.470   3.710  17.282  0.00  0.00    +0.000 S 
ATOM      7  C   UNL     1       4.179   4.519  18.778  0.00  0.00    +0.000 A 
ATOM      8  N   UNL     1       5.095   5.417  19.110  0.00  0.00    +0.000 NA
ATOM      9  C   UNL     1       6.123   5.436  18.151  0.00  0.00    +0.000 A 
BRANCH   7  10
ATOM     10  C   UNL     1       2.999   4.224  19.564  0.00  0.00    +0.000 A 
ATOM     11  N   UNL     1       2.116   5.142  19.918  0.00  0.00    +0.000 NA
ATOM     12  C   UNL     1       1.106   4.571  20.663  0.00  0.00    +0.000 A 
ATOM     13  C   UNL     1       1.231   3.219  20.898  0.00  0.00    +0.000 A 
ATOM     14  S   UNL     1       2.647   2.632  20.126  0.00  0.00    +0.000 S 
ENDBRANCH   7  10
BRANCH   5  15
ATOM     15  C   UNL     1       6.913   4.212  15.979  0.00  0.00    +0.000 C 
BRANCH  15  17
ATOM     16  C   UNL     1       6.141   3.828  13.598  0.00  0.00    +0.000 C 
ATOM     17  C   UNL     1       6.523   4.873  14.638  0.00  0.00    +0.000 C 
ATOM     18  C   UNL     1       5.354   5.853  14.826  0.00  0.00    +0.000 C 
ENDBRANCH  15  17
ENDBRANCH   5  15
ENDBRANCH   1   9
BRANCH   3  19
ATOM     19  C   UNL     1       8.298   8.393  17.331  0.00  0.00    +0.000 C 
BRANCH  19  20
ATOM     20  C   UNL     1       7.988   9.639  18.162  0.00  0.00    +0.000 C 
BRANCH  20  21
ATOM     21  C   UNL     1       9.120   9.947  19.149  0.00  0.00    +0.000 C 
BRANCH  21  22
ATOM     22  C   UNL     1       9.954  11.145  18.691  0.00  0.00    +0.000 C 
BRANCH  22  23
ATOM     23  C   UNL     1       9.117  12.148  17.889  0.00  0.00    +0.000 C 
BRANCH  23  24
ATOM     24  C   UNL     1       9.011  13.481  18.628  0.00  0.00    +0.000 C 
BRANCH  24  25
ATOM     25  N   UNL     1       8.698  13.312  20.030  0.00  0.00    +0.000 N 
ATOM     26  C   UNL     1       9.528  13.816  21.002  0.00  0.00    +0.000 C 
ATOM     27  O   UNL     1      10.596  14.393  20.726  0.00  0.00    +0.000 OA
ATOM     28  H   UNL     1       7.828  12.853  20.304  0.00  0.00    +0.000 HD
BRANCH  26  29
ATOM     29  C   UNL     1       9.094  13.571  22.437  0.00  0.00    +0.000 C 
BRANCH  29  30
ATOM     30  S   UNL     1       8.194  12.003  22.610  0.00  0.00    +0.000 S 
ATOM     31  H   UNL     1       7.436  12.135  21.512  0.00  0.00    +0.000 HD
ENDBRANCH  29  30
ENDBRANCH  26  29
ENDBRANCH  24  25
ENDBRANCH  23  24
ENDBRANCH  22  23
ENDBRANCH  21  22
ENDBRANCH  20  21
ENDBRANCH  19  20
ENDBRANCH   3  19
TORSDOF 13
ENDMDL
MODEL 7
REMARK VINA RESULT:      -6.3      1.228      1.441
REMARK  Name = 
REMARK  15 active torsions:
REMARK  status: ('A' for Active; 'I' for Inactive)
REMARK    1  A    between atoms: C_1  and  C_2
REMARK    2  A    between atoms: C_2  and  C_3
REMARK    3  A    between atoms: C_2  and  C_4
REMARK    4  A    between atoms: C_4  and  C_5
REMARK    5  A    between atoms: C_7  and  C_8
REMARK    6  A    between atoms: C_14  and  C_15
REMARK    7  A    between atoms: N_17  and  C_18
REMARK    8  A    between atoms: C_18  and  C_19
REMARK    9  A    between atoms: C_19  and  C_20
REMARK   10  A    between atoms: C_20  and  C_21
REMARK   11  A    between atoms: C_21  and  C_22
REMARK   12  A    between atoms: C_22  and  C_23
REMARK   13  A    between atoms: C_23  and  N_24
REMARK   14  A    between atoms: C_25  and  C_27
REMARK   15  A    between atoms: C_27  and  S_28
REMARK                            x       y       z     vdW  Elec       q    Type
REMARK                         _______ _______ _______ _____ _____    ______ ____
ROOT
ATOM      1  C   UNL     1       7.052   6.261  18.112  0.00  0.00    +0.000 C 
ATOM      2  O   UNL     1       8.098   5.676  18.382  0.00  0.00    +0.000 OA
ATOM      3  N   UNL     1       7.064   7.577  17.717  0.00  0.00    +0.000 N 
ATOM      4  H   UNL     1       6.178   8.007  17.470  0.00  0.00    +0.000 HD
ENDROOT
BRANCH   1   9
ATOM      5  C   UNL     1       4.911   5.522  17.032  0.00  0.00    +0.000 A 
ATOM      6  S   UNL     1       3.393   4.861  17.486  0.00  0.00    +0.000 S 
ATOM      7  C   UNL     1       3.977   4.584  19.085  0.00  0.00    +0.000 A 
ATOM      8  N   UNL     1       5.196   5.049  19.320  0.00  0.00    +0.000 NA
ATOM      9  C   UNL     1       5.730   5.617  18.149  0.00  0.00    +0.000 A 
BRANCH   7  10
ATOM     10  C   UNL     1       3.154   3.913  20.071  0.00  0.00    +0.000 A 
ATOM     11  N   UNL     1       3.474   2.749  20.610  0.00  0.00    +0.000 NA
ATOM     12  C   UNL     1       2.502   2.356  21.506  0.00  0.00    +0.000 A 
ATOM     13  C   UNL     1       1.429   3.211  21.634  0.00  0.00    +0.000 A 
ATOM     14  S   UNL     1       1.660   4.577  20.620  0.00  0.00    +0.000 S 
ENDBRANCH   7  10
BRANCH   5  15
ATOM     15  C   UNL     1       5.183   5.964  15.615  0.00  0.00    +0.000 C 
BRANCH  15  17
ATOM     16  C   UNL     1       7.268   5.226  14.380  0.00  0.00    +0.000 C 
ATOM     17  C   UNL     1       5.818   4.889  14.706  0.00  0.00    +0.000 C 
ATOM     18  C   UNL     1       5.757   3.503  15.367  0.00  0.00    +0.000 C 
ENDBRANCH  15  17
ENDBRANCH   5  15
ENDBRANCH   1   9
BRANCH   3  19
ATOM     19  C   UNL     1       8.320   8.293  17.631  0.00  0.00    +0.000 C 
BRANCH  19  20
ATOM     20  C   UNL     1       8.220   9.722  18.167  0.00  0.00    +0.000 C 
BRANCH  20  21
ATOM     21  C   UNL     1       9.104   9.915  19.406  0.00  0.00    +0.000 C 
BRANCH  21  22
ATOM     22  C   UNL     1       9.980  11.163  19.281  0.00  0.00    +0.000 C 
BRANCH  22  23
ATOM     23  C   UNL     1      10.366  11.444  17.824  0.00  0.00    +0.000 C 
BRANCH  23  24
ATOM     24  C   UNL     1      10.025  12.883  17.440  0.00  0.00    +0.000 C 
BRANCH  24  25
ATOM     25  N   UNL     1       9.002  13.454  18.289  0.00  0.00    +0.000 N 
ATOM     26  C   UNL     1       8.944  14.810  18.505  0.00  0.00    +0.000 C 
ATOM     27  O   UNL     1       9.784  15.594  18.024  0.00  0.00    +0.000 OA
ATOM     28  H   UNL     1       8.287  12.851  18.697  0.00  0.00    +0.000 HD
BRANCH  26  29
ATOM     29  C   UNL     1       7.829  15.288  19.418  0.00  0.00    +0.000 C 
BRANCH  29  30
ATOM     30  S   UNL     1       7.061  16.814  18.803  0.00  0.00    +0.000 S 
ATOM     31  H   UNL     1       5.928  16.252  18.357  0.00  0.00    +0.000 HD
ENDBRANCH  29  30
ENDBRANCH  26  29
ENDBRANCH  24  25
ENDBRANCH  23  24
ENDBRANCH  22  23
ENDBRANCH  21  22
ENDBRANCH  20  21
ENDBRANCH  19  20
ENDBRANCH   3  19
TORSDOF 13
ENDMDL
MODEL 8
REMARK VINA RESULT:      -6.3      6.905      9.688
REMARK  Name = 
REMARK  15 active torsions:
REMARK  status: ('A' for Active; 'I' for Inactive)
REMARK    1  A    between atoms: C_1  and  C_2
REMARK    2  A    between atoms: C_2  and  C_3
REMARK    3  A    between atoms: C_2  and  C_4
REMARK    4  A    between atoms: C_4  and  C_5
REMARK    5  A    between atoms: C_7  and  C_8
REMARK    6  A    between atoms: C_14  and  C_15
REMARK    7  A    between atoms: N_17  and  C_18
REMARK    8  A    between atoms: C_18  and  C_19
REMARK    9  A    between atoms: C_19  and  C_20
REMARK   10  A    between atoms: C_20  and  C_21
REMARK   11  A    between atoms: C_21  and  C_22
REMARK   12  A    between atoms: C_22  and  C_23
REMARK   13  A    between atoms: C_23  and  N_24
REMARK   14  A    between atoms: C_25  and  C_27
REMARK   15  A    between atoms: C_27  and  S_28
REMARK                            x       y       z     vdW  Elec       q    Type
REMARK                         _______ _______ _______ _____ _____    ______ ____
ROOT
ATOM      1  C   UNL     1       2.084   7.542  19.529  0.00  0.00    +0.000 C 
ATOM      2  O   UNL     1       1.656   7.605  20.679  0.00  0.00    +0.000 OA
ATOM      3  N   UNL     1       1.809   8.536  18.621  0.00  0.00    +0.000 N 
ATOM      4  H   UNL     1       2.215   8.458  17.694  0.00  0.00    +0.000 HD
ENDROOT
BRANCH   1   9
ATOM      5  C   UNL     1       3.103   5.259  19.739  0.00  0.00    +0.000 A 
ATOM      6  S   UNL     1       4.284   4.292  18.954  0.00  0.00    +0.000 S 
ATOM      7  C   UNL     1       4.370   5.426  17.656  0.00  0.00    +0.000 A 
ATOM      8  N   UNL     1       3.647   6.523  17.829  0.00  0.00    +0.000 NA
ATOM      9  C   UNL     1       2.936   6.447  19.040  0.00  0.00    +0.000 A 
BRANCH   7  10
ATOM     10  C   UNL     1       5.201   5.167  16.497  0.00  0.00    +0.000 A 
ATOM     11  N   UNL     1       5.662   6.123  15.710  0.00  0.00    +0.000 NA
ATOM     12  C   UNL     1       6.415   5.578  14.691  0.00  0.00    +0.000 A 
ATOM     13  C   UNL     1       6.508   4.203  14.688  0.00  0.00    +0.000 A 
ATOM     14  S   UNL     1       5.651   3.569  16.033  0.00  0.00    +0.000 S 
ENDBRANCH   7  10
BRANCH   5  15
ATOM     15  C   UNL     1       2.455   4.816  21.027  0.00  0.00    +0.000 C 
BRANCH  15  17
ATOM     16  C   UNL     1       0.987   3.559  19.391  0.00  0.00    +0.000 C 
ATOM     17  C   UNL     1       1.283   3.824  20.861  0.00  0.00    +0.000 C 
ATOM     18  C   UNL     1       1.586   2.491  21.565  0.00  0.00    +0.000 C 
ENDBRANCH  15  17
ENDBRANCH   5  15
ENDBRANCH   1   9
BRANCH   3  19
ATOM     19  C   UNL     1       0.995   9.667  19.014  0.00  0.00    +0.000 C 
BRANCH  19  20
ATOM     20  C   UNL     1      -0.066  10.018  17.969  0.00  0.00    +0.000 C 
BRANCH  20  21
ATOM     21  C   UNL     1      -1.384  10.438  18.632  0.00  0.00    +0.000 C 
BRANCH  21  22
ATOM     22  C   UNL     1      -2.593  10.006  17.802  0.00  0.00    +0.000 C 
BRANCH  22  23
ATOM     23  C   UNL     1      -2.884  10.992  16.663  0.00  0.00    +0.000 C 
BRANCH  23  24
ATOM     24  C   UNL     1      -4.388  11.201  16.496  0.00  0.00    +0.000 C 
BRANCH  24  25
ATOM     25  N   UNL     1      -4.902  12.239  17.363  0.00  0.00    +0.000 N 
ATOM     26  C   UNL     1      -6.032  12.031  18.116  0.00  0.00    +0.000 C 
ATOM     27  O   UNL     1      -6.683  10.972  18.055  0.00  0.00    +0.000 OA
ATOM     28  H   UNL     1      -4.395  13.121  17.453  0.00  0.00    +0.000 HD
BRANCH  26  29
ATOM     29  C   UNL     1      -6.473  13.198  18.983  0.00  0.00    +0.000 C 
BRANCH  29  30
ATOM     30  S   UNL     1      -5.319  13.495  20.353  0.00  0.00    +0.000 S 
ATOM     31  H   UNL     1      -4.712  12.300  20.309  0.00  0.00    +0.000 HD
ENDBRANCH  29  30
ENDBRANCH  26  29
ENDBRANCH  24  25
ENDBRANCH  23  24
ENDBRANCH  22  23
ENDBRANCH  21  22
ENDBRANCH  20  21
ENDBRANCH  19  20
ENDBRANCH   3  19
TORSDOF 13
ENDMDL
MODEL 9
REMARK VINA RESULT:      -6.3      1.210      1.243
REMARK  Name = 
REMARK  15 active torsions:
REMARK  status: ('A' for Active; 'I' for Inactive)
REMARK    1  A    between atoms: C_1  and  C_2
REMARK    2  A    between atoms: C_2  and  C_3
REMARK    3  A    between atoms: C_2  and  C_4
REMARK    4  A    between atoms: C_4  and  C_5
REMARK    5  A    between atoms: C_7  and  C_8
REMARK    6  A    between atoms: C_14  and  C_15
REMARK    7  A    between atoms: N_17  and  C_18
REMARK    8  A    between atoms: C_18  and  C_19
REMARK    9  A    between atoms: C_19  and  C_20
REMARK   10  A    between atoms: C_20  and  C_21
REMARK   11  A    between atoms: C_21  and  C_22
REMARK   12  A    between atoms: C_22  and  C_23
REMARK   13  A    between atoms: C_23  and  N_24
REMARK   14  A    between atoms: C_25  and  C_27
REMARK   15  A    between atoms: C_27  and  S_28
REMARK                            x       y       z     vdW  Elec       q    Type
REMARK                         _______ _______ _______ _____ _____    ______ ____
ROOT
ATOM      1  C   UNL     1       7.190   5.316  18.470  0.00  0.00    +0.000 C 
ATOM      2  O   UNL     1       8.246   4.785  18.808  0.00  0.00    +0.000 OA
ATOM      3  N   UNL     1       7.118   6.675  18.277  0.00  0.00    +0.000 N 
ATOM      4  H   UNL     1       6.235   7.064  17.964  0.00  0.00    +0.000 HD
ENDROOT
BRANCH   1   9
ATOM      5  C   UNL     1       5.676   3.970  16.992  0.00  0.00    +0.000 A 
ATOM      6  S   UNL     1       4.082   3.332  17.009  0.00  0.00    +0.000 S 
ATOM      7  C   UNL     1       3.925   3.734  18.679  0.00  0.00    +0.000 A 
ATOM      8  N   UNL     1       4.949   4.403  19.188  0.00  0.00    +0.000 NA
ATOM      9  C   UNL     1       5.950   4.568  18.214  0.00  0.00    +0.000 A 
BRANCH   7  10
ATOM     10  C   UNL     1       2.735   3.370  19.422  0.00  0.00    +0.000 A 
ATOM     11  N   UNL     1       1.829   2.522  18.967  0.00  0.00    +0.000 NA
ATOM     12  C   UNL     1       0.810   2.375  19.885  0.00  0.00    +0.000 A 
ATOM     13  C   UNL     1       0.928   3.129  21.032  0.00  0.00    +0.000 A 
ATOM     14  S   UNL     1       2.388   4.030  20.976  0.00  0.00    +0.000 S 
ENDBRANCH   7  10
BRANCH   5  15
ATOM     15  C   UNL     1       6.538   3.895  15.756  0.00  0.00    +0.000 C 
BRANCH  15  17
ATOM     16  C   UNL     1       6.922   4.928  13.476  0.00  0.00    +0.000 C 
ATOM     17  C   UNL     1       6.630   5.206  14.945  0.00  0.00    +0.000 C 
ATOM     18  C   UNL     1       5.330   6.017  15.058  0.00  0.00    +0.000 C 
ENDBRANCH  15  17
ENDBRANCH   5  15
ENDBRANCH   1   9
BRANCH   3  19
ATOM     19  C   UNL     1       8.292   7.497  18.486  0.00  0.00    +0.000 C 
BRANCH  19  20
ATOM     20  C   UNL     1       8.134   8.905  17.909  0.00  0.00    +0.000 C 
BRANCH  20  21
ATOM     21  C   UNL     1       8.928   9.933  18.724  0.00  0.00    +0.000 C 
BRANCH  21  22
ATOM     22  C   UNL     1       9.108  11.242  17.954  0.00  0.00    +0.000 C 
BRANCH  22  23
ATOM     23  C   UNL     1      10.229  12.103  18.549  0.00  0.00    +0.000 C 
BRANCH  23  24
ATOM     24  C   UNL     1       9.681  13.442  19.042  0.00  0.00    +0.000 C 
BRANCH  24  25
ATOM     25  N   UNL     1       9.720  14.466  18.021  0.00  0.00    +0.000 N 
ATOM     26  C   UNL     1      10.714  15.413  18.012  0.00  0.00    +0.000 C 
ATOM     27  O   UNL     1      11.590  15.462  18.896  0.00  0.00    +0.000 OA
ATOM     28  H   UNL     1       9.027  14.459  17.271  0.00  0.00    +0.000 HD
BRANCH  26  29
ATOM     29  C   UNL     1      10.644  16.436  16.892  0.00  0.00    +0.000 C 
BRANCH  29  30
ATOM     30  S   UNL     1      10.791  18.134  17.518  0.00  0.00    +0.000 S 
ATOM     31  H   UNL     1      11.433  18.640  16.455  0.00  0.00    +0.000 HD
ENDBRANCH  29  30
ENDBRANCH  26  29
ENDBRANCH  24  25
ENDBRANCH  23  24
ENDBRANCH  22  23
ENDBRANCH  21  22
ENDBRANCH  20  21
ENDBRANCH  19  20
ENDBRANCH   3  19
TORSDOF 13
ENDMDL
