MODEL 1
REMARK VINA RESULT:      -8.6      0.000      0.000
REMARK  Name = 
REMARK  10 active torsions:
REMARK  status: ('A' for Active; 'I' for Inactive)
REMARK    1  A    between atoms: C_1  and  O_2
REMARK    2  A    between atoms: O_2  and  C_3
REMARK    3  A    between atoms: C_3  and  C_4
REMARK    4  A    between atoms: C_4  and  N_5
REMARK    5  A    between atoms: N_5  and  C_6
REMARK    6  A    between atoms: C_7  and  C_9
REMARK    7  A    between atoms: C_11  and  C_12
REMARK    8  A    between atoms: C_16  and  C_17
REMARK    9  A    between atoms: C_18  and  C_19
REMARK   10  A    between atoms: C_20  and  C_21
REMARK                            x       y       z     vdW  Elec       q    Type
REMARK                         _______ _______ _______ _____ _____    ______ ____
ROOT
ATOM      1  C   UNL     1       2.340   4.786  20.130  0.00  0.00    +0.000 A 
ATOM      2  C   UNL     1       1.465   4.352  21.145  0.00  0.00    +0.000 A 
ATOM      3  C   UNL     1       1.645   3.115  21.735  0.00  0.00    +0.000 A 
ATOM      4  N   UNL     1       2.655   2.287  21.423  0.00  0.00    +0.000 NA
ATOM      5  C   UNL     1       3.512   2.686  20.456  0.00  0.00    +0.000 A 
ATOM      6  C   UNL     1       4.672   1.759  20.202  0.00  0.00    +0.000 C 
ATOM      7  C   UNL     1       3.380   3.900  19.763  0.00  0.00    +0.000 A 
ENDROOT
BRANCH   1  10
ATOM      8  C   UNL     1       1.568   8.524  19.902  0.00  0.00    +0.000 A 
ATOM      9  C   UNL     1       1.559   7.177  20.314  0.00  0.00    +0.000 A 
ATOM     10  C   UNL     1       2.149   6.147  19.553  0.00  0.00    +0.000 A 
ATOM     11  C   UNL     1       2.614   6.491  18.275  0.00  0.00    +0.000 A 
ATOM     12  C   UNL     1       2.520   7.799  17.794  0.00  0.00    +0.000 A 
ATOM     13  C   UNL     1       2.044   8.824  18.617  0.00  0.00    +0.000 A 
ATOM     14 CL   UNL     1       2.163  10.424  17.971  0.00  0.00    +0.000 Cl
BRANCH   8  17
ATOM     15  N   UNL     1      -0.119  10.329  20.450  0.00  0.00    +0.000 N 
ATOM     16  C   UNL     1      -0.971  10.092  19.291  0.00  0.00    +0.000 C 
ATOM     17  C   UNL     1       1.025   9.591  20.797  0.00  0.00    +0.000 C 
ATOM     18  O   UNL     1       1.621   9.806  21.852  0.00  0.00    +0.000 OA
BRANCH  15  19
ATOM     19  C   UNL     1      -0.595  11.338  21.411  0.00  0.00    +0.000 C 
BRANCH  19  20
ATOM     20  C   UNL     1      -0.208  12.790  21.106  0.00  0.00    +0.000 C 
BRANCH  20  22
ATOM     21  C   UNL     1       2.021  13.314  20.596  0.00  0.00    +0.000 C 
ATOM     22  O   UNL     1       1.083  13.100  21.646  0.00  0.00    +0.000 OA
ENDBRANCH  20  22
ENDBRANCH  19  20
ENDBRANCH  15  19
ENDBRANCH   8  17
ENDBRANCH   1  10
BRANCH   7  23
ATOM     23  C   UNL     1       4.270   4.213  18.684  0.00  0.00    +0.000 C 
ATOM     24  C   UNL     1       4.957   4.465  17.732  0.00  0.00    +0.000 C 
BRANCH  24  25
ATOM     25  C   UNL     1       5.713   4.739  16.553  0.00  0.00    +0.000 A 
ATOM     26  C   UNL     1       5.393   4.144  15.336  0.00  0.00    +0.000 A 
ATOM     27  C   UNL     1       6.184   4.408  14.222  0.00  0.00    +0.000 A 
ATOM     28  C   UNL     1       7.279   5.252  14.358  0.00  0.00    +0.000 A 
ATOM     29  N   UNL     1       8.087   5.546  13.265  0.00  0.00    +0.000 N 
ATOM     30  N   UNL     1       7.597   5.854  15.518  0.00  0.00    +0.000 NA
ATOM     31  C   UNL     1       6.810   5.585  16.587  0.00  0.00    +0.000 A 
ATOM     32  H   UNL     1       8.424   4.707  12.809  0.00  0.00    +0.000 HD
ATOM     33  H   UNL     1       8.850   6.121  13.613  0.00  0.00    +0.000 HD
ENDBRANCH  24  25
ENDBRANCH   7  23
TORSDOF 7
ENDMDL
MODEL 2
REMARK VINA RESULT:      -8.5      0.994      1.342
REMARK  Name = 
REMARK  10 active torsions:
REMARK  status: ('A' for Active; 'I' for Inactive)
REMARK    1  A    between atoms: C_1  and  O_2
REMARK    2  A    between atoms: O_2  and  C_3
REMARK    3  A    between atoms: C_3  and  C_4
REMARK    4  A    between atoms: C_4  and  N_5
REMARK    5  A    between atoms: N_5  and  C_6
REMARK    6  A    between atoms: C_7  and  C_9
REMARK    7  A    between atoms: C_11  and  C_12
REMARK    8  A    between atoms: C_16  and  C_17
REMARK    9  A    between atoms: C_18  and  C_19
REMARK   10  A    between atoms: C_20  and  C_21
REMARK                            x       y       z     vdW  Elec       q    Type
REMARK                         _______ _______ _______ _____ _____    ______ ____
ROOT
ATOM      1  C   UNL     1       2.257   4.972  20.031  0.00  0.00    +0.000 A 
ATOM      2  C   UNL     1       1.449   4.504  21.085  0.00  0.00    +0.000 A 
ATOM      3  C   UNL     1       1.648   3.238  21.603  0.00  0.00    +0.000 A 
ATOM      4  N   UNL     1       2.620   2.411  21.184  0.00  0.00    +0.000 NA
ATOM      5  C   UNL     1       3.414   2.842  20.177  0.00  0.00    +0.000 A 
ATOM      6  C   UNL     1       4.536   1.912  19.800  0.00  0.00    +0.000 C 
ATOM      7  C   UNL     1       3.254   4.090  19.551  0.00  0.00    +0.000 A 
ENDROOT
BRANCH   1  10
ATOM      8  C   UNL     1       1.487   8.716  20.020  0.00  0.00    +0.000 A 
ATOM      9  C   UNL     1       1.489   7.350  20.364  0.00  0.00    +0.000 A 
ATOM     10  C   UNL     1       2.050   6.361  19.531  0.00  0.00    +0.000 A 
ATOM     11  C   UNL     1       2.471   6.770  18.257  0.00  0.00    +0.000 A 
ATOM     12  C   UNL     1       2.363   8.100  17.847  0.00  0.00    +0.000 A 
ATOM     13  C   UNL     1       1.919   9.082  18.737  0.00  0.00    +0.000 A 
ATOM     14 CL   UNL     1       2.019  10.712  18.169  0.00  0.00    +0.000 Cl
BRANCH   8  17
ATOM     15  N   UNL     1      -0.192  10.473  20.730  0.00  0.00    +0.000 N 
ATOM     16  C   UNL     1      -1.098  10.275  19.605  0.00  0.00    +0.000 C 
ATOM     17  C   UNL     1       0.977   9.737  20.987  0.00  0.00    +0.000 C 
ATOM     18  O   UNL     1       1.622   9.915  22.020  0.00  0.00    +0.000 OA
BRANCH  15  19
ATOM     19  C   UNL     1      -0.631  11.433  21.756  0.00  0.00    +0.000 C 
BRANCH  19  20
ATOM     20  C   UNL     1      -1.199  10.825  23.044  0.00  0.00    +0.000 C 
BRANCH  20  22
ATOM     21  C   UNL     1      -2.753  12.491  22.485  0.00  0.00    +0.000 C 
ATOM     22  O   UNL     1      -2.386  11.514  23.455  0.00  0.00    +0.000 OA
ENDBRANCH  20  22
ENDBRANCH  19  20
ENDBRANCH  15  19
ENDBRANCH   8  17
ENDBRANCH   1  10
BRANCH   7  23
ATOM     23  C   UNL     1       4.070   4.439  18.427  0.00  0.00    +0.000 C 
ATOM     24  C   UNL     1       4.759   4.658  17.468  0.00  0.00    +0.000 C 
BRANCH  24  25
ATOM     25  C   UNL     1       5.592   4.838  16.322  0.00  0.00    +0.000 A 
ATOM     26  C   UNL     1       5.284   4.240  15.105  0.00  0.00    +0.000 A 
ATOM     27  C   UNL     1       6.147   4.408  14.026  0.00  0.00    +0.000 A 
ATOM     28  C   UNL     1       7.300   5.163  14.198  0.00  0.00    +0.000 A 
ATOM     29  N   UNL     1       8.182   5.362  13.141  0.00  0.00    +0.000 N 
ATOM     30  N   UNL     1       7.610   5.768  15.359  0.00  0.00    +0.000 NA
ATOM     31  C   UNL     1       6.753   5.593  16.393  0.00  0.00    +0.000 A 
ATOM     32  H   UNL     1       8.470   4.486  12.722  0.00  0.00    +0.000 HD
ATOM     33  H   UNL     1       8.972   5.881  13.515  0.00  0.00    +0.000 HD
ENDBRANCH  24  25
ENDBRANCH   7  23
TORSDOF 7
ENDMDL
MODEL 3
REMARK VINA RESULT:      -8.0      1.047      1.339
REMARK  Name = 
REMARK  10 active torsions:
REMARK  status: ('A' for Active; 'I' for Inactive)
REMARK    1  A    between atoms: C_1  and  O_2
REMARK    2  A    between atoms: O_2  and  C_3
REMARK    3  A    between atoms: C_3  and  C_4
REMARK    4  A    between atoms: C_4  and  N_5
REMARK    5  A    between atoms: N_5  and  C_6
REMARK    6  A    between atoms: C_7  and  C_9
REMARK    7  A    between atoms: C_11  and  C_12
REMARK    8  A    between atoms: C_16  and  C_17
REMARK    9  A    between atoms: C_18  and  C_19
REMARK   10  A    between atoms: C_20  and  C_21
REMARK                            x       y       z     vdW  Elec       q    Type
REMARK                         _______ _______ _______ _____ _____    ______ ____
ROOT
ATOM      1  C   UNL     1       2.482   4.943  19.951  0.00  0.00    +0.000 A 
ATOM      2  C   UNL     1       1.745   4.623  21.107  0.00  0.00    +0.000 A 
ATOM      3  C   UNL     1       1.922   3.401  21.728  0.00  0.00    +0.000 A 
ATOM      4  N   UNL     1       2.810   2.483  21.314  0.00  0.00    +0.000 NA
ATOM      5  C   UNL     1       3.537   2.772  20.210  0.00  0.00    +0.000 A 
ATOM      6  C   UNL     1       4.573   1.745  19.836  0.00  0.00    +0.000 C 
ATOM      7  C   UNL     1       3.388   3.963  19.481  0.00  0.00    +0.000 A 
ENDROOT
BRANCH   1  10
ATOM      8  C   UNL     1       1.290   8.540  19.446  0.00  0.00    +0.000 A 
ATOM      9  C   UNL     1       1.339   7.187  19.835  0.00  0.00    +0.000 A 
ATOM     10  C   UNL     1       2.305   6.290  19.337  0.00  0.00    +0.000 A 
ATOM     11  C   UNL     1       3.132   6.758  18.305  0.00  0.00    +0.000 A 
ATOM     12  C   UNL     1       3.017   8.061  17.815  0.00  0.00    +0.000 A 
ATOM     13  C   UNL     1       2.136   8.966  18.411  0.00  0.00    +0.000 A 
ATOM     14 CL   UNL     1       2.233  10.596  17.840  0.00  0.00    +0.000 Cl
BRANCH   8  17
ATOM     15  N   UNL     1       0.370   9.767  21.459  0.00  0.00    +0.000 N 
ATOM     16  C   UNL     1       1.404   9.328  22.386  0.00  0.00    +0.000 C 
ATOM     17  C   UNL     1       0.314   9.475  20.085  0.00  0.00    +0.000 C 
ATOM     18  O   UNL     1      -0.549   9.978  19.366  0.00  0.00    +0.000 OA
BRANCH  15  19
ATOM     19  C   UNL     1      -0.616  10.723  21.991  0.00  0.00    +0.000 C 
BRANCH  19  20
ATOM     20  C   UNL     1      -0.217  12.203  21.928  0.00  0.00    +0.000 C 
BRANCH  20  22
ATOM     21  C   UNL     1      -1.115  14.048  23.064  0.00  0.00    +0.000 C 
ATOM     22  O   UNL     1      -0.385  12.833  23.204  0.00  0.00    +0.000 OA
ENDBRANCH  20  22
ENDBRANCH  19  20
ENDBRANCH  15  19
ENDBRANCH   8  17
ENDBRANCH   1  10
BRANCH   7  23
ATOM     23  C   UNL     1       4.122   4.158  18.266  0.00  0.00    +0.000 C 
ATOM     24  C   UNL     1       4.791   4.358  17.289  0.00  0.00    +0.000 C 
BRANCH  24  25
ATOM     25  C   UNL     1       5.632   4.646  16.172  0.00  0.00    +0.000 A 
ATOM     26  C   UNL     1       5.381   4.097  14.919  0.00  0.00    +0.000 A 
ATOM     27  C   UNL     1       6.253   4.371  13.869  0.00  0.00    +0.000 A 
ATOM     28  C   UNL     1       7.357   5.180  14.105  0.00  0.00    +0.000 A 
ATOM     29  N   UNL     1       8.245   5.484  13.078  0.00  0.00    +0.000 N 
ATOM     30  N   UNL     1       7.611   5.738  15.302  0.00  0.00    +0.000 NA
ATOM     31  C   UNL     1       6.747   5.460  16.307  0.00  0.00    +0.000 A 
ATOM     32  H   UNL     1       8.590   4.650  12.620  0.00  0.00    +0.000 HD
ATOM     33  H   UNL     1       8.997   6.026  13.495  0.00  0.00    +0.000 HD
ENDBRANCH  24  25
ENDBRANCH   7  23
TORSDOF 7
ENDMDL
MODEL 4
REMARK VINA RESULT:      -7.5      4.299      9.786
REMARK  Name = 
REMARK  10 active torsions:
REMARK  status: ('A' for Active; 'I' for Inactive)
REMARK    1  A    between atoms: C_1  and  O_2
REMARK    2  A    between atoms: O_2  and  C_3
REMARK    3  A    between atoms: C_3  and  C_4
REMARK    4  A    between atoms: C_4  and  N_5
REMARK    5  A    between atoms: N_5  and  C_6
REMARK    6  A    between atoms: C_7  and  C_9
REMARK    7  A    between atoms: C_11  and  C_12
REMARK    8  A    between atoms: C_16  and  C_17
REMARK    9  A    between atoms: C_18  and  C_19
REMARK   10  A    between atoms: C_20  and  C_21
REMARK                            x       y       z     vdW  Elec       q    Type
REMARK                         _______ _______ _______ _____ _____    ______ ____
ROOT
ATOM      1  C   UNL     1      -4.081  13.147  22.339  0.00  0.00    +0.000 A 
ATOM      2  C   UNL     1      -4.659  13.658  23.517  0.00  0.00    +0.000 A 
ATOM      3  C   UNL     1      -6.033  13.653  23.676  0.00  0.00    +0.000 A 
ATOM      4  N   UNL     1      -6.880  13.140  22.770  0.00  0.00    +0.000 NA
ATOM      5  C   UNL     1      -6.347  12.636  21.633  0.00  0.00    +0.000 A 
ATOM      6  C   UNL     1      -7.332  12.000  20.688  0.00  0.00    +0.000 C 
ATOM      7  C   UNL     1      -4.969  12.646  21.359  0.00  0.00    +0.000 A 
ENDROOT
BRANCH   1  10
ATOM      8  C   UNL     1      -0.518  11.794  22.039  0.00  0.00    +0.000 A 
ATOM      9  C   UNL     1      -1.884  11.911  22.366  0.00  0.00    +0.000 A 
ATOM     10  C   UNL     1      -2.595  13.119  22.223  0.00  0.00    +0.000 A 
ATOM     11  C   UNL     1      -1.848  14.259  21.890  0.00  0.00    +0.000 A 
ATOM     12  C   UNL     1      -0.469  14.190  21.684  0.00  0.00    +0.000 A 
ATOM     13  C   UNL     1       0.190  12.959  21.709  0.00  0.00    +0.000 A 
ATOM     14 CL   UNL     1       1.856  12.987  21.244  0.00  0.00    +0.000 Cl
BRANCH   8  17
ATOM     15  N   UNL     1       0.439   9.722  20.944  0.00  0.00    +0.000 N 
ATOM     16  C   UNL     1       0.231  10.170  19.572  0.00  0.00    +0.000 C 
ATOM     17  C   UNL     1       0.162  10.464  22.105  0.00  0.00    +0.000 C 
ATOM     18  O   UNL     1       0.467  10.035  23.218  0.00  0.00    +0.000 OA
BRANCH  15  19
ATOM     19  C   UNL     1       1.139   8.438  21.108  0.00  0.00    +0.000 C 
BRANCH  19  20
ATOM     20  C   UNL     1       1.939   7.949  19.895  0.00  0.00    +0.000 C 
BRANCH  20  22
ATOM     21  C   UNL     1       2.647   6.038  18.734  0.00  0.00    +0.000 C 
ATOM     22  O   UNL     1       2.209   6.545  19.991  0.00  0.00    +0.000 OA
ENDBRANCH  20  22
ENDBRANCH  19  20
ENDBRANCH  15  19
ENDBRANCH   8  17
ENDBRANCH   1  10
BRANCH   7  23
ATOM     23  C   UNL     1      -4.486  12.183  20.092  0.00  0.00    +0.000 C 
ATOM     24  C   UNL     1      -4.151  11.771  19.015  0.00  0.00    +0.000 C 
BRANCH  24  25
ATOM     25  C   UNL     1      -3.826  11.244  17.728  0.00  0.00    +0.000 A 
ATOM     26  C   UNL     1      -2.739  10.395  17.549  0.00  0.00    +0.000 A 
ATOM     27  C   UNL     1      -2.434   9.941  16.269  0.00  0.00    +0.000 A 
ATOM     28  C   UNL     1      -3.220  10.357  15.202  0.00  0.00    +0.000 A 
ATOM     29  N   UNL     1      -2.952   9.916  13.911  0.00  0.00    +0.000 N 
ATOM     30  N   UNL     1      -4.287  11.162  15.352  0.00  0.00    +0.000 NA
ATOM     31  C   UNL     1      -4.566  11.588  16.607  0.00  0.00    +0.000 A 
ATOM     32  H   UNL     1      -1.990  10.089  13.646  0.00  0.00    +0.000 HD
ATOM     33  H   UNL     1      -3.606  10.397  13.298  0.00  0.00    +0.000 HD
ENDBRANCH  24  25
ENDBRANCH   7  23
TORSDOF 7
ENDMDL
MODEL 5
REMARK VINA RESULT:      -7.4      7.711     11.819
REMARK  Name = 
REMARK  10 active torsions:
REMARK  status: ('A' for Active; 'I' for Inactive)
REMARK    1  A    between atoms: C_1  and  O_2
REMARK    2  A    between atoms: O_2  and  C_3
REMARK    3  A    between atoms: C_3  and  C_4
REMARK    4  A    between atoms: C_4  and  N_5
REMARK    5  A    between atoms: N_5  and  C_6
REMARK    6  A    between atoms: C_7  and  C_9
REMARK    7  A    between atoms: C_11  and  C_12
REMARK    8  A    between atoms: C_16  and  C_17
REMARK    9  A    between atoms: C_18  and  C_19
REMARK   10  A    between atoms: C_20  and  C_21
REMARK                            x       y       z     vdW  Elec       q    Type
REMARK                         _______ _______ _______ _____ _____    ______ ____
ROOT
ATOM      1  C   UNL     1      -3.867  12.975  22.631  0.00  0.00    +0.000 A 
ATOM      2  C   UNL     1      -3.588  12.507  23.930  0.00  0.00    +0.000 A 
ATOM      3  C   UNL     1      -4.620  12.260  24.816  0.00  0.00    +0.000 A 
ATOM      4  N   UNL     1      -5.917  12.401  24.499  0.00  0.00    +0.000 NA
ATOM      5  C   UNL     1      -6.210  12.843  23.254  0.00  0.00    +0.000 A 
ATOM      6  C   UNL     1      -7.677  12.906  22.923  0.00  0.00    +0.000 C 
ATOM      7  C   UNL     1      -5.229  13.171  22.303  0.00  0.00    +0.000 A 
ENDROOT
BRANCH   1  10
ATOM      8  C   UNL     1      -1.525  12.459  19.654  0.00  0.00    +0.000 A 
ATOM      9  C   UNL     1      -2.426  12.212  20.708  0.00  0.00    +0.000 A 
ATOM     10  C   UNL     1      -2.734  13.180  21.684  0.00  0.00    +0.000 A 
ATOM     11  C   UNL     1      -1.982  14.364  21.662  0.00  0.00    +0.000 A 
ATOM     12  C   UNL     1      -0.994  14.580  20.699  0.00  0.00    +0.000 A 
ATOM     13  C   UNL     1      -0.795  13.657  19.669  0.00  0.00    +0.000 A 
ATOM     14 CL   UNL     1       0.318  14.136  18.435  0.00  0.00    +0.000 Cl
BRANCH   8  17
ATOM     15  N   UNL     1      -2.367  11.026  17.745  0.00  0.00    +0.000 N 
ATOM     16  C   UNL     1      -3.708  11.595  17.713  0.00  0.00    +0.000 C 
ATOM     17  C   UNL     1      -1.316  11.436  18.583  0.00  0.00    +0.000 C 
ATOM     18  O   UNL     1      -0.188  10.959  18.464  0.00  0.00    +0.000 OA
BRANCH  15  19
ATOM     19  C   UNL     1      -2.056  10.036  16.701  0.00  0.00    +0.000 C 
BRANCH  19  20
ATOM     20  C   UNL     1      -3.143   9.814  15.642  0.00  0.00    +0.000 C 
BRANCH  20  22
ATOM     21  C   UNL     1      -3.617   9.845  13.345  0.00  0.00    +0.000 C 
ATOM     22  O   UNL     1      -2.702  10.262  14.354  0.00  0.00    +0.000 OA
ENDBRANCH  20  22
ENDBRANCH  19  20
ENDBRANCH  15  19
ENDBRANCH   8  17
ENDBRANCH   1  10
BRANCH   7  23
ATOM     23  C   UNL     1      -5.612  13.724  21.038  0.00  0.00    +0.000 C 
ATOM     24  C   UNL     1      -5.987  14.134  19.974  0.00  0.00    +0.000 C 
BRANCH  24  25
ATOM     25  C   UNL     1      -6.481  14.556  18.702  0.00  0.00    +0.000 A 
ATOM     26  C   UNL     1      -6.756  13.638  17.694  0.00  0.00    +0.000 A 
ATOM     27  C   UNL     1      -7.195  14.099  16.456  0.00  0.00    +0.000 A 
ATOM     28  C   UNL     1      -7.338  15.467  16.259  0.00  0.00    +0.000 A 
ATOM     29  N   UNL     1      -7.783  15.964  15.039  0.00  0.00    +0.000 N 
ATOM     30  N   UNL     1      -7.097  16.373  17.223  0.00  0.00    +0.000 NA
ATOM     31  C   UNL     1      -6.674  15.900  18.420  0.00  0.00    +0.000 A 
ATOM     32  H   UNL     1      -7.229  15.616  14.265  0.00  0.00    +0.000 HD
ATOM     33  H   UNL     1      -7.745  16.978  15.106  0.00  0.00    +0.000 HD
ENDBRANCH  24  25
ENDBRANCH   7  23
TORSDOF 7
ENDMDL
MODEL 6
REMARK VINA RESULT:      -7.3      4.365     10.743
REMARK  Name = 
REMARK  10 active torsions:
REMARK  status: ('A' for Active; 'I' for Inactive)
REMARK    1  A    between atoms: C_1  and  O_2
REMARK    2  A    between atoms: O_2  and  C_3
REMARK    3  A    between atoms: C_3  and  C_4
REMARK    4  A    between atoms: C_4  and  N_5
REMARK    5  A    between atoms: N_5  and  C_6
REMARK    6  A    between atoms: C_7  and  C_9
REMARK    7  A    between atoms: C_11  and  C_12
REMARK    8  A    between atoms: C_16  and  C_17
REMARK    9  A    between atoms: C_18  and  C_19
REMARK   10  A    between atoms: C_20  and  C_21
REMARK                            x       y       z     vdW  Elec       q    Type
REMARK                         _______ _______ _______ _____ _____    ______ ____
ROOT
ATOM      1  C   UNL     1       1.840  14.512  19.487  0.00  0.00    +0.000 A 
ATOM      2  C   UNL     1       2.864  15.047  18.681  0.00  0.00    +0.000 A 
ATOM      3  C   UNL     1       3.667  16.064  19.162  0.00  0.00    +0.000 A 
ATOM      4  N   UNL     1       3.560  16.567  20.403  0.00  0.00    +0.000 NA
ATOM      5  C   UNL     1       2.589  16.064  21.198  0.00  0.00    +0.000 A 
ATOM      6  C   UNL     1       2.564  16.604  22.604  0.00  0.00    +0.000 C 
ATOM      7  C   UNL     1       1.691  15.068  20.780  0.00  0.00    +0.000 A 
ENDROOT
BRANCH   1  10
ATOM      8  C   UNL     1       0.793  10.951  18.572  0.00  0.00    +0.000 A 
ATOM      9  C   UNL     1       1.579  12.089  18.844  0.00  0.00    +0.000 A 
ATOM     10  C   UNL     1       1.028  13.381  18.957  0.00  0.00    +0.000 A 
ATOM     11  C   UNL     1      -0.329  13.522  18.627  0.00  0.00    +0.000 A 
ATOM     12  C   UNL     1      -1.099  12.426  18.232  0.00  0.00    +0.000 A 
ATOM     13  C   UNL     1      -0.559  11.138  18.249  0.00  0.00    +0.000 A 
ATOM     14 CL   UNL     1      -1.671   9.852  17.929  0.00  0.00    +0.000 Cl
BRANCH   8  17
ATOM     15  N   UNL     1       1.500   8.823  19.744  0.00  0.00    +0.000 N 
ATOM     16  C   UNL     1       0.923   9.167  21.038  0.00  0.00    +0.000 C 
ATOM     17  C   UNL     1       1.411   9.590  18.570  0.00  0.00    +0.000 C 
ATOM     18  O   UNL     1       1.847   9.164  17.501  0.00  0.00    +0.000 OA
BRANCH  15  19
ATOM     19  C   UNL     1       2.098   7.481  19.636  0.00  0.00    +0.000 C 
BRANCH  19  20
ATOM     20  C   UNL     1       1.614   6.446  20.660  0.00  0.00    +0.000 C 
BRANCH  20  22
ATOM     21  C   UNL     1       1.418   4.110  20.696  0.00  0.00    +0.000 C 
ATOM     22  O   UNL     1       2.309   5.204  20.499  0.00  0.00    +0.000 OA
ENDBRANCH  20  22
ENDBRANCH  19  20
ENDBRANCH  15  19
ENDBRANCH   8  17
ENDBRANCH   1  10
BRANCH   7  23
ATOM     23  C   UNL     1       0.626  14.651  21.644  0.00  0.00    +0.000 C 
ATOM     24  C   UNL     1      -0.290  14.256  22.312  0.00  0.00    +0.000 C 
BRANCH  24  25
ATOM     25  C   UNL     1      -1.409  13.750  23.040  0.00  0.00    +0.000 A 
ATOM     26  C   UNL     1      -1.912  12.476  22.796  0.00  0.00    +0.000 A 
ATOM     27  C   UNL     1      -3.031  12.041  23.500  0.00  0.00    +0.000 A 
ATOM     28  C   UNL     1      -3.622  12.896  24.422  0.00  0.00    +0.000 A 
ATOM     29  N   UNL     1      -4.735  12.493  25.151  0.00  0.00    +0.000 N 
ATOM     30  N   UNL     1      -3.143  14.125  24.689  0.00  0.00    +0.000 NA
ATOM     31  C   UNL     1      -2.051  14.525  23.994  0.00  0.00    +0.000 A 
ATOM     32  H   UNL     1      -5.478  12.159  24.549  0.00  0.00    +0.000 HD
ATOM     33  H   UNL     1      -5.027  13.295  25.704  0.00  0.00    +0.000 HD
ENDBRANCH  24  25
ENDBRANCH   7  23
TORSDOF 7
ENDMDL
MODEL 7
REMARK VINA RESULT:      -7.3      3.783     10.842
REMARK  Name = 
REMARK  10 active torsions:
REMARK  status: ('A' for Active; 'I' for Inactive)
REMARK    1  A    between atoms: C_1  and  O_2
REMARK    2  A    between atoms: O_2  and  C_3
REMARK    3  A    between atoms: C_3  and  C_4
REMARK    4  A    between atoms: C_4  and  N_5
REMARK    5  A    between atoms: N_5  and  C_6
REMARK    6  A    between atoms: C_7  and  C_9
REMARK    7  A    between atoms: C_11  and  C_12
REMARK    8  A    between atoms: C_16  and  C_17
REMARK    9  A    between atoms: C_18  and  C_19
REMARK   10  A    between atoms: C_20  and  C_21
REMARK                            x       y       z     vdW  Elec       q    Type
REMARK                         _______ _______ _______ _____ _____    ______ ____
ROOT
ATOM      1  C   UNL     1       1.740  14.499  19.913  0.00  0.00    +0.000 A 
ATOM      2  C   UNL     1       2.826  15.022  19.185  0.00  0.00    +0.000 A 
ATOM      3  C   UNL     1       3.569  16.068  19.700  0.00  0.00    +0.000 A 
ATOM      4  N   UNL     1       3.343  16.611  20.907  0.00  0.00    +0.000 NA
ATOM      5  C   UNL     1       2.309  16.120  21.628  0.00  0.00    +0.000 A 
ATOM      6  C   UNL     1       2.150  16.708  23.005  0.00  0.00    +0.000 C 
ATOM      7  C   UNL     1       1.466  15.096  21.166  0.00  0.00    +0.000 A 
ENDROOT
BRANCH   1  10
ATOM      8  C   UNL     1       0.518  10.913  19.402  0.00  0.00    +0.000 A 
ATOM      9  C   UNL     1       1.331  12.019  19.720  0.00  0.00    +0.000 A 
ATOM     10  C   UNL     1       0.994  13.337  19.352  0.00  0.00    +0.000 A 
ATOM     11  C   UNL     1      -0.116  13.496  18.509  0.00  0.00    +0.000 A 
ATOM     12  C   UNL     1      -0.865  12.398  18.079  0.00  0.00    +0.000 A 
ATOM     13  C   UNL     1      -0.584  11.116  18.558  0.00  0.00    +0.000 A 
ATOM     14 CL   UNL     1      -1.705   9.880  18.104  0.00  0.00    +0.000 Cl
BRANCH   8  17
ATOM     15  N   UNL     1       1.657   8.667  19.157  0.00  0.00    +0.000 N 
ATOM     16  C   UNL     1       2.325   8.975  17.898  0.00  0.00    +0.000 C 
ATOM     17  C   UNL     1       0.865   9.550  19.910  0.00  0.00    +0.000 C 
ATOM     18  O   UNL     1       0.427   9.224  21.013  0.00  0.00    +0.000 OA
BRANCH  15  19
ATOM     19  C   UNL     1       1.971   7.358  19.754  0.00  0.00    +0.000 C 
BRANCH  19  20
ATOM     20  C   UNL     1       2.665   6.348  18.832  0.00  0.00    +0.000 C 
BRANCH  20  22
ATOM     21  C   UNL     1       2.103   4.859  20.554  0.00  0.00    +0.000 C 
ATOM     22  O   UNL     1       2.266   5.008  19.147  0.00  0.00    +0.000 OA
ENDBRANCH  20  22
ENDBRANCH  19  20
ENDBRANCH  15  19
ENDBRANCH   8  17
ENDBRANCH   1  10
BRANCH   7  23
ATOM     23  C   UNL     1       0.332  14.693  21.944  0.00  0.00    +0.000 C 
ATOM     24  C   UNL     1      -0.631  14.301  22.543  0.00  0.00    +0.000 C 
BRANCH  24  25
ATOM     25  C   UNL     1      -1.795  13.789  23.193  0.00  0.00    +0.000 A 
ATOM     26  C   UNL     1      -2.528  14.568  24.082  0.00  0.00    +0.000 A 
ATOM     27  C   UNL     1      -3.631  14.013  24.724  0.00  0.00    +0.000 A 
ATOM     28  C   UNL     1      -3.964  12.689  24.466  0.00  0.00    +0.000 A 
ATOM     29  N   UNL     1      -5.065  12.102  25.080  0.00  0.00    +0.000 N 
ATOM     30  N   UNL     1      -3.283  11.921  23.596  0.00  0.00    +0.000 NA
ATOM     31  C   UNL     1      -2.216  12.485  22.980  0.00  0.00    +0.000 A 
ATOM     32  H   UNL     1      -5.030  12.200  26.088  0.00  0.00    +0.000 HD
ATOM     33  H   UNL     1      -5.072  11.126  24.795  0.00  0.00    +0.000 HD
ENDBRANCH  24  25
ENDBRANCH   7  23
TORSDOF 7
ENDMDL
MODEL 8
REMARK VINA RESULT:      -7.3      4.158     10.858
REMARK  Name = 
REMARK  10 active torsions:
REMARK  status: ('A' for Active; 'I' for Inactive)
REMARK    1  A    between atoms: C_1  and  O_2
REMARK    2  A    between atoms: O_2  and  C_3
REMARK    3  A    between atoms: C_3  and  C_4
REMARK    4  A    between atoms: C_4  and  N_5
REMARK    5  A    between atoms: N_5  and  C_6
REMARK    6  A    between atoms: C_7  and  C_9
REMARK    7  A    between atoms: C_11  and  C_12
REMARK    8  A    between atoms: C_16  and  C_17
REMARK    9  A    between atoms: C_18  and  C_19
REMARK   10  A    between atoms: C_20  and  C_21
REMARK                            x       y       z     vdW  Elec       q    Type
REMARK                         _______ _______ _______ _____ _____    ______ ____
ROOT
ATOM      1  C   UNL     1      -3.275  11.857  18.843  0.00  0.00    +0.000 A 
ATOM      2  C   UNL     1      -3.921  11.323  17.712  0.00  0.00    +0.000 A 
ATOM      3  C   UNL     1      -5.302  11.300  17.646  0.00  0.00    +0.000 A 
ATOM      4  N   UNL     1      -6.096  11.807  18.602  0.00  0.00    +0.000 NA
ATOM      5  C   UNL     1      -5.498  12.333  19.696  0.00  0.00    +0.000 A 
ATOM      6  C   UNL     1      -6.430  12.959  20.700  0.00  0.00    +0.000 C 
ATOM      7  C   UNL     1      -4.105  12.352  19.877  0.00  0.00    +0.000 A 
ENDROOT
BRANCH   1  10
ATOM      8  C   UNL     1       0.373  10.720  18.713  0.00  0.00    +0.000 A 
ATOM      9  C   UNL     1      -1.020  10.733  18.928  0.00  0.00    +0.000 A 
ATOM     10  C   UNL     1      -1.786  11.914  18.858  0.00  0.00    +0.000 A 
ATOM     11  C   UNL     1      -1.081  13.120  18.723  0.00  0.00    +0.000 A 
ATOM     12  C   UNL     1       0.313  13.141  18.634  0.00  0.00    +0.000 A 
ATOM     13  C   UNL     1       1.038  11.948  18.580  0.00  0.00    +0.000 A 
ATOM     14 CL   UNL     1       2.732  12.110  18.272  0.00  0.00    +0.000 Cl
BRANCH   8  17
ATOM     15  N   UNL     1       1.450   8.747  19.876  0.00  0.00    +0.000 N 
ATOM     16  C   UNL     1       1.027   9.118  21.221  0.00  0.00    +0.000 C 
ATOM     17  C   UNL     1       1.120   9.426  18.690  0.00  0.00    +0.000 C 
ATOM     18  O   UNL     1       1.445   8.975  17.592  0.00  0.00    +0.000 OA
BRANCH  15  19
ATOM     19  C   UNL     1       2.161   7.464  19.750  0.00  0.00    +0.000 C 
BRANCH  19  20
ATOM     20  C   UNL     1       1.576   6.291  20.547  0.00  0.00    +0.000 C 
BRANCH  20  22
ATOM     21  C   UNL     1       2.227   4.162  19.812  0.00  0.00    +0.000 C 
ATOM     22  O   UNL     1       2.538   5.239  20.690  0.00  0.00    +0.000 OA
ENDBRANCH  20  22
ENDBRANCH  19  20
ENDBRANCH  15  19
ENDBRANCH   8  17
ENDBRANCH   1  10
BRANCH   7  23
ATOM     23  C   UNL     1      -3.547  12.837  21.104  0.00  0.00    +0.000 C 
ATOM     24  C   UNL     1      -3.115  13.310  22.120  0.00  0.00    +0.000 C 
BRANCH  24  25
ATOM     25  C   UNL     1      -2.630  13.944  23.303  0.00  0.00    +0.000 A 
ATOM     26  C   UNL     1      -3.475  14.219  24.373  0.00  0.00    +0.000 A 
ATOM     27  C   UNL     1      -2.968  14.877  25.489  0.00  0.00    +0.000 A 
ATOM     28  C   UNL     1      -1.630  15.252  25.500  0.00  0.00    +0.000 A 
ATOM     29  N   UNL     1      -1.085  15.902  26.601  0.00  0.00    +0.000 N 
ATOM     30  N   UNL     1      -0.788  14.980  24.487  0.00  0.00    +0.000 NA
ATOM     31  C   UNL     1      -1.304  14.335  23.413  0.00  0.00    +0.000 A 
ATOM     32  H   UNL     1      -1.618  16.726  26.854  0.00  0.00    +0.000 HD
ATOM     33  H   UNL     1      -0.125  16.132  26.358  0.00  0.00    +0.000 HD
ENDBRANCH  24  25
ENDBRANCH   7  23
TORSDOF 7
ENDMDL
MODEL 9
REMARK VINA RESULT:      -7.3      3.623     10.813
REMARK  Name = 
REMARK  10 active torsions:
REMARK  status: ('A' for Active; 'I' for Inactive)
REMARK    1  A    between atoms: C_1  and  O_2
REMARK    2  A    between atoms: O_2  and  C_3
REMARK    3  A    between atoms: C_3  and  C_4
REMARK    4  A    between atoms: C_4  and  N_5
REMARK    5  A    between atoms: N_5  and  C_6
REMARK    6  A    between atoms: C_7  and  C_9
REMARK    7  A    between atoms: C_11  and  C_12
REMARK    8  A    between atoms: C_16  and  C_17
REMARK    9  A    between atoms: C_18  and  C_19
REMARK   10  A    between atoms: C_20  and  C_21
REMARK                            x       y       z     vdW  Elec       q    Type
REMARK                         _______ _______ _______ _____ _____    ______ ____
ROOT
ATOM      1  C   UNL     1       1.841  14.527  19.823  0.00  0.00    +0.000 A 
ATOM      2  C   UNL     1       2.887  15.066  19.050  0.00  0.00    +0.000 A 
ATOM      3  C   UNL     1       3.650  16.108  19.543  0.00  0.00    +0.000 A 
ATOM      4  N   UNL     1       3.481  16.633  20.767  0.00  0.00    +0.000 NA
ATOM      5  C   UNL     1       2.486  16.126  21.531  0.00  0.00    +0.000 A 
ATOM      6  C   UNL     1       2.393  16.694  22.923  0.00  0.00    +0.000 C 
ATOM      7  C   UNL     1       1.626  15.105  21.097  0.00  0.00    +0.000 A 
ENDROOT
BRANCH   1  10
ATOM      8  C   UNL     1       0.577  10.949  19.354  0.00  0.00    +0.000 A 
ATOM      9  C   UNL     1       1.406  12.050  19.649  0.00  0.00    +0.000 A 
ATOM     10  C   UNL     1       1.073  13.369  19.283  0.00  0.00    +0.000 A 
ATOM     11  C   UNL     1      -0.053  13.534  18.462  0.00  0.00    +0.000 A 
ATOM     12  C   UNL     1      -0.820  12.441  18.052  0.00  0.00    +0.000 A 
ATOM     13  C   UNL     1      -0.540  11.159  18.532  0.00  0.00    +0.000 A 
ATOM     14 CL   UNL     1      -1.681   9.931  18.106  0.00  0.00    +0.000 Cl
BRANCH   8  17
ATOM     15  N   UNL     1       1.666   8.681  19.082  0.00  0.00    +0.000 N 
ATOM     16  C   UNL     1       2.281   8.965  17.791  0.00  0.00    +0.000 C 
ATOM     17  C   UNL     1       0.924   9.586  19.860  0.00  0.00    +0.000 C 
ATOM     18  O   UNL     1       0.530   9.279  20.984  0.00  0.00    +0.000 OA
BRANCH  15  19
ATOM     19  C   UNL     1       1.984   7.373  19.678  0.00  0.00    +0.000 C 
BRANCH  19  20
ATOM     20  C   UNL     1       2.967   6.497  18.891  0.00  0.00    +0.000 C 
BRANCH  20  22
ATOM     21  C   UNL     1       4.929   5.231  19.109  0.00  0.00    +0.000 C 
ATOM     22  O   UNL     1       3.759   5.695  19.775  0.00  0.00    +0.000 OA
ENDBRANCH  20  22
ENDBRANCH  19  20
ENDBRANCH  15  19
ENDBRANCH   8  17
ENDBRANCH   1  10
BRANCH   7  23
ATOM     23  C   UNL     1       0.534  14.685  21.924  0.00  0.00    +0.000 C 
ATOM     24  C   UNL     1      -0.406  14.291  22.558  0.00  0.00    +0.000 C 
BRANCH  24  25
ATOM     25  C   UNL     1      -1.555  13.792  23.243  0.00  0.00    +0.000 A 
ATOM     26  C   UNL     1      -2.068  12.529  22.967  0.00  0.00    +0.000 A 
ATOM     27  C   UNL     1      -3.215  12.101  23.629  0.00  0.00    +0.000 A 
ATOM     28  C   UNL     1      -3.823  12.953  24.542  0.00  0.00    +0.000 A 
ATOM     29  N   UNL     1      -4.965  12.557  25.230  0.00  0.00    +0.000 N 
ATOM     30  N   UNL     1      -3.336  14.171  24.840  0.00  0.00    +0.000 NA
ATOM     31  C   UNL     1      -2.217  14.564  24.186  0.00  0.00    +0.000 A 
ATOM     32  H   UNL     1      -5.693  12.241  24.601  0.00  0.00    +0.000 HD
ATOM     33  H   UNL     1      -5.263  13.356  25.783  0.00  0.00    +0.000 HD
ENDBRANCH  24  25
ENDBRANCH   7  23
TORSDOF 7
ENDMDL
