MODEL 1
REMARK VINA RESULT:      -7.3      0.000      0.000
REMARK  Name = 
REMARK  3 active torsions:
REMARK  status: ('A' for Active; 'I' for Inactive)
REMARK    1  A    between atoms: C_1  and  O_2
REMARK    2  A    between atoms: O_2  and  C_3
REMARK    3  A    between atoms: C_3  and  C_5
REMARK                            x       y       z     vdW  Elec       q    Type
REMARK                         _______ _______ _______ _____ _____    ______ ____
ROOT
ATOM      1  C   UNL     1       5.917   5.610  17.325  0.00  0.00    +0.000 A 
ATOM      2  C   UNL     1       4.854   6.516  17.454  0.00  0.00    +0.000 A 
ATOM      3  C   UNL     1       3.744   6.183  18.231  0.00  0.00    +0.000 A 
ATOM      4  C   UNL     1       3.704   4.951  18.885  0.00  0.00    +0.000 A 
ATOM      5  C   UNL     1       4.768   4.037  18.790  0.00  0.00    +0.000 A 
ATOM      6  C   UNL     1       5.864   4.376  17.993  0.00  0.00    +0.000 A 
ATOM      7  N   UNL     1       4.824   2.865  19.557  0.00  0.00    +0.000 N 
ATOM      8  C   UNL     1       3.686   2.621  20.432  0.00  0.00    +0.000 C 
ATOM      9  C   UNL     1       2.439   3.251  19.874  0.00  0.00    +0.000 C 
ATOM     10  C   UNL     1       1.081   2.790  20.340  0.00  0.00    +0.000 C 
ATOM     11  C   UNL     1       1.538   2.477  18.942  0.00  0.00    +0.000 C 
ATOM     12  O   UNL     1       2.563   4.667  19.603  0.00  0.00    +0.000 OA
ATOM     13  H   UNL     1       5.183   2.059  19.056  0.00  0.00    +0.000 HD
ENDROOT
BRANCH   1  14
ATOM     14  C   UNL     1       7.129   5.912  16.523  0.00  0.00    +0.000 C 
ATOM     15  O   UNL     1       7.702   6.993  16.546  0.00  0.00    +0.000 OA
BRANCH  14  17
ATOM     16  C   UNL     1       6.849   4.800  14.494  0.00  0.00    +0.000 C 
ATOM     17  O   UNL     1       7.486   4.844  15.769  0.00  0.00    +0.000 OA
ENDBRANCH  14  17
ENDBRANCH   1  14
TORSDOF 2
ENDMDL
MODEL 2
REMARK VINA RESULT:      -7.2      1.506      1.780
REMARK  Name = 
REMARK  3 active torsions:
REMARK  status: ('A' for Active; 'I' for Inactive)
REMARK    1  A    between atoms: C_1  and  O_2
REMARK    2  A    between atoms: O_2  and  C_3
REMARK    3  A    between atoms: C_3  and  C_5
REMARK                            x       y       z     vdW  Elec       q    Type
REMARK                         _______ _______ _______ _____ _____    ______ ____
ROOT
ATOM      1  C   UNL     1       5.793   4.960  15.617  0.00  0.00    +0.000 A 
ATOM      2  C   UNL     1       5.255   6.223  15.904  0.00  0.00    +0.000 A 
ATOM      3  C   UNL     1       4.430   6.392  17.016  0.00  0.00    +0.000 A 
ATOM      4  C   UNL     1       4.153   5.303  17.843  0.00  0.00    +0.000 A 
ATOM      5  C   UNL     1       4.699   4.033  17.587  0.00  0.00    +0.000 A 
ATOM      6  C   UNL     1       5.508   3.874  16.460  0.00  0.00    +0.000 A 
ATOM      7  N   UNL     1       4.565   2.963  18.483  0.00  0.00    +0.000 N 
ATOM      8  C   UNL     1       3.781   3.228  19.681  0.00  0.00    +0.000 C 
ATOM      9  C   UNL     1       2.752   4.294  19.420  0.00  0.00    +0.000 C 
ATOM     10  C   UNL     1       1.560   4.438  20.332  0.00  0.00    +0.000 C 
ATOM     11  C   UNL     1       1.371   3.925  18.931  0.00  0.00    +0.000 C 
ATOM     12  O   UNL     1       3.298   5.528  18.900  0.00  0.00    +0.000 OA
ATOM     13  H   UNL     1       4.407   2.066  18.036  0.00  0.00    +0.000 HD
ENDROOT
BRANCH   1  14
ATOM     14  C   UNL     1       6.687   4.719  14.455  0.00  0.00    +0.000 C 
ATOM     15  O   UNL     1       7.631   5.442  14.170  0.00  0.00    +0.000 OA
BRANCH  14  17
ATOM     16  C   UNL     1       6.522   3.703  12.364  0.00  0.00    +0.000 C 
ATOM     17  O   UNL     1       6.300   3.616  13.771  0.00  0.00    +0.000 OA
ENDBRANCH  14  17
ENDBRANCH   1  14
TORSDOF 2
ENDMDL
MODEL 3
REMARK VINA RESULT:      -7.2      1.553      1.901
REMARK  Name = 
REMARK  3 active torsions:
REMARK  status: ('A' for Active; 'I' for Inactive)
REMARK    1  A    between atoms: C_1  and  O_2
REMARK    2  A    between atoms: O_2  and  C_3
REMARK    3  A    between atoms: C_3  and  C_5
REMARK                            x       y       z     vdW  Elec       q    Type
REMARK                         _______ _______ _______ _____ _____    ______ ____
ROOT
ATOM      1  C   UNL     1       5.553   4.584  16.788  0.00  0.00    +0.000 A 
ATOM      2  C   UNL     1       6.057   4.877  18.064  0.00  0.00    +0.000 A 
ATOM      3  C   UNL     1       5.372   4.446  19.200  0.00  0.00    +0.000 A 
ATOM      4  C   UNL     1       4.192   3.715  19.059  0.00  0.00    +0.000 A 
ATOM      5  C   UNL     1       3.680   3.390  17.790  0.00  0.00    +0.000 A 
ATOM      6  C   UNL     1       4.367   3.844  16.662  0.00  0.00    +0.000 A 
ATOM      7  N   UNL     1       2.588   2.529  17.619  0.00  0.00    +0.000 N 
ATOM      8  C   UNL     1       1.976   2.023  18.839  0.00  0.00    +0.000 C 
ATOM      9  C   UNL     1       2.164   2.994  19.973  0.00  0.00    +0.000 C 
ATOM     10  C   UNL     1       1.278   2.921  21.191  0.00  0.00    +0.000 C 
ATOM     11  C   UNL     1       1.142   4.074  20.235  0.00  0.00    +0.000 C 
ATOM     12  O   UNL     1       3.543   3.355  20.219  0.00  0.00    +0.000 OA
ATOM     13  H   UNL     1       1.948   2.813  16.884  0.00  0.00    +0.000 HD
ENDROOT
BRANCH   1  14
ATOM     14  C   UNL     1       6.243   5.005  15.542  0.00  0.00    +0.000 C 
ATOM     15  O   UNL     1       7.308   5.607  15.531  0.00  0.00    +0.000 OA
BRANCH  14  17
ATOM     16  C   UNL     1       6.271   3.890  13.495  0.00  0.00    +0.000 C 
ATOM     17  O   UNL     1       5.527   4.645  14.450  0.00  0.00    +0.000 OA
ENDBRANCH  14  17
ENDBRANCH   1  14
TORSDOF 2
ENDMDL
MODEL 4
REMARK VINA RESULT:      -7.1      1.574      2.310
REMARK  Name = 
REMARK  3 active torsions:
REMARK  status: ('A' for Active; 'I' for Inactive)
REMARK    1  A    between atoms: C_1  and  O_2
REMARK    2  A    between atoms: O_2  and  C_3
REMARK    3  A    between atoms: C_3  and  C_5
REMARK                            x       y       z     vdW  Elec       q    Type
REMARK                         _______ _______ _______ _____ _____    ______ ____
ROOT
ATOM      1  C   UNL     1       5.401   5.376  17.164  0.00  0.00    +0.000 A 
ATOM      2  C   UNL     1       4.854   4.220  16.589  0.00  0.00    +0.000 A 
ATOM      3  C   UNL     1       3.781   3.575  17.204  0.00  0.00    +0.000 A 
ATOM      4  C   UNL     1       3.252   4.093  18.387  0.00  0.00    +0.000 A 
ATOM      5  C   UNL     1       3.769   5.263  18.970  0.00  0.00    +0.000 A 
ATOM      6  C   UNL     1       4.855   5.887  18.353  0.00  0.00    +0.000 A 
ATOM      7  N   UNL     1       3.159   5.889  20.067  0.00  0.00    +0.000 N 
ATOM      8  C   UNL     1       1.978   5.228  20.603  0.00  0.00    +0.000 C 
ATOM      9  C   UNL     1       2.037   3.746  20.355  0.00  0.00    +0.000 C 
ATOM     10  C   UNL     1       1.184   2.805  21.168  0.00  0.00    +0.000 C 
ATOM     11  C   UNL     1       2.675   2.823  21.366  0.00  0.00    +0.000 C 
ATOM     12  O   UNL     1       2.220   3.386  18.966  0.00  0.00    +0.000 OA
ATOM     13  H   UNL     1       3.814   6.257  20.749  0.00  0.00    +0.000 HD
ENDROOT
BRANCH   1  14
ATOM     14  C   UNL     1       6.535   6.113  16.550  0.00  0.00    +0.000 C 
ATOM     15  O   UNL     1       7.359   5.590  15.813  0.00  0.00    +0.000 OA
BRANCH  14  17
ATOM     16  C   UNL     1       7.737   7.838  17.557  0.00  0.00    +0.000 C 
ATOM     17  O   UNL     1       6.527   7.413  16.932  0.00  0.00    +0.000 OA
ENDBRANCH  14  17
ENDBRANCH   1  14
TORSDOF 2
ENDMDL
MODEL 5
REMARK VINA RESULT:      -7.0      0.783      1.504
REMARK  Name = 
REMARK  3 active torsions:
REMARK  status: ('A' for Active; 'I' for Inactive)
REMARK    1  A    between atoms: C_1  and  O_2
REMARK    2  A    between atoms: O_2  and  C_3
REMARK    3  A    between atoms: C_3  and  C_5
REMARK                            x       y       z     vdW  Elec       q    Type
REMARK                         _______ _______ _______ _____ _____    ______ ____
ROOT
ATOM      1  C   UNL     1       5.744   5.930  17.343  0.00  0.00    +0.000 A 
ATOM      2  C   UNL     1       4.587   6.708  17.497  0.00  0.00    +0.000 A 
ATOM      3  C   UNL     1       3.508   6.215  18.231  0.00  0.00    +0.000 A 
ATOM      4  C   UNL     1       3.591   4.951  18.816  0.00  0.00    +0.000 A 
ATOM      5  C   UNL     1       4.749   4.163  18.695  0.00  0.00    +0.000 A 
ATOM      6  C   UNL     1       5.814   4.662  17.942  0.00  0.00    +0.000 A 
ATOM      7  N   UNL     1       4.918   2.963  19.399  0.00  0.00    +0.000 N 
ATOM      8  C   UNL     1       3.800   2.549  20.234  0.00  0.00    +0.000 C 
ATOM      9  C   UNL     1       2.501   3.073  19.683  0.00  0.00    +0.000 C 
ATOM     10  C   UNL     1       1.193   2.443  20.094  0.00  0.00    +0.000 C 
ATOM     11  C   UNL     1       1.704   2.260  18.691  0.00  0.00    +0.000 C 
ATOM     12  O   UNL     1       2.476   4.507  19.492  0.00  0.00    +0.000 OA
ATOM     13  H   UNL     1       5.370   2.229  18.863  0.00  0.00    +0.000 HD
ENDROOT
BRANCH   1  14
ATOM     14  C   UNL     1       6.929   6.404  16.585  0.00  0.00    +0.000 C 
ATOM     15  O   UNL     1       7.546   5.707  15.791  0.00  0.00    +0.000 OA
BRANCH  14  17
ATOM     16  C   UNL     1       8.062   7.813  18.057  0.00  0.00    +0.000 C 
ATOM     17  O   UNL     1       7.226   7.686  16.908  0.00  0.00    +0.000 OA
ENDBRANCH  14  17
ENDBRANCH   1  14
TORSDOF 2
ENDMDL
MODEL 6
REMARK VINA RESULT:      -7.0      1.540      1.802
REMARK  Name = 
REMARK  3 active torsions:
REMARK  status: ('A' for Active; 'I' for Inactive)
REMARK    1  A    between atoms: C_1  and  O_2
REMARK    2  A    between atoms: O_2  and  C_3
REMARK    3  A    between atoms: C_3  and  C_5
REMARK                            x       y       z     vdW  Elec       q    Type
REMARK                         _______ _______ _______ _____ _____    ______ ____
ROOT
ATOM      1  C   UNL     1       5.120   5.366  16.947  0.00  0.00    +0.000 A 
ATOM      2  C   UNL     1       5.674   5.571  18.219  0.00  0.00    +0.000 A 
ATOM      3  C   UNL     1       5.129   4.925  19.329  0.00  0.00    +0.000 A 
ATOM      4  C   UNL     1       4.041   4.069  19.163  0.00  0.00    +0.000 A 
ATOM      5  C   UNL     1       3.483   3.830  17.895  0.00  0.00    +0.000 A 
ATOM      6  C   UNL     1       4.027   4.498  16.795  0.00  0.00    +0.000 A 
ATOM      7  N   UNL     1       2.495   2.860  17.679  0.00  0.00    +0.000 N 
ATOM      8  C   UNL     1       2.038   2.140  18.859  0.00  0.00    +0.000 C 
ATOM      9  C   UNL     1       2.186   2.989  20.092  0.00  0.00    +0.000 C 
ATOM     10  C   UNL     1       1.405   2.659  21.339  0.00  0.00    +0.000 C 
ATOM     11  C   UNL     1       1.061   3.888  20.544  0.00  0.00    +0.000 C 
ATOM     12  O   UNL     1       3.525   3.494  20.305  0.00  0.00    +0.000 OA
ATOM     13  H   UNL     1       1.775   3.142  17.022  0.00  0.00    +0.000 HD
ENDROOT
BRANCH   1  14
ATOM     14  C   UNL     1       5.662   6.016  15.726  0.00  0.00    +0.000 C 
ATOM     15  O   UNL     1       5.085   6.912  15.125  0.00  0.00    +0.000 OA
BRANCH  14  17
ATOM     16  C   UNL     1       6.776   4.575  14.271  0.00  0.00    +0.000 C 
ATOM     17  O   UNL     1       6.852   5.470  15.379  0.00  0.00    +0.000 OA
ENDBRANCH  14  17
ENDBRANCH   1  14
TORSDOF 2
ENDMDL
MODEL 7
REMARK VINA RESULT:      -7.0      1.047      1.439
REMARK  Name = 
REMARK  3 active torsions:
REMARK  status: ('A' for Active; 'I' for Inactive)
REMARK    1  A    between atoms: C_1  and  O_2
REMARK    2  A    between atoms: O_2  and  C_3
REMARK    3  A    between atoms: C_3  and  C_5
REMARK                            x       y       z     vdW  Elec       q    Type
REMARK                         _______ _______ _______ _____ _____    ______ ____
ROOT
ATOM      1  C   UNL     1       5.142   5.690  17.250  0.00  0.00    +0.000 A 
ATOM      2  C   UNL     1       4.193   6.563  17.801  0.00  0.00    +0.000 A 
ATOM      3  C   UNL     1       3.411   6.152  18.880  0.00  0.00    +0.000 A 
ATOM      4  C   UNL     1       3.586   4.874  19.412  0.00  0.00    +0.000 A 
ATOM      5  C   UNL     1       4.547   3.990  18.891  0.00  0.00    +0.000 A 
ATOM      6  C   UNL     1       5.310   4.409  17.799  0.00  0.00    +0.000 A 
ATOM      7  N   UNL     1       4.851   2.765  19.502  0.00  0.00    +0.000 N 
ATOM      8  C   UNL     1       4.077   2.434  20.689  0.00  0.00    +0.000 C 
ATOM      9  C   UNL     1       2.719   3.080  20.637  0.00  0.00    +0.000 C 
ATOM     10  C   UNL     1       1.596   2.560  21.499  0.00  0.00    +0.000 C 
ATOM     11  C   UNL     1       1.550   2.361  20.009  0.00  0.00    +0.000 C 
ATOM     12  O   UNL     1       2.754   4.515  20.450  0.00  0.00    +0.000 OA
ATOM     13  H   UNL     1       5.013   2.006  18.848  0.00  0.00    +0.000 HD
ENDROOT
BRANCH   1  14
ATOM     14  C   UNL     1       6.012   6.075  16.109  0.00  0.00    +0.000 C 
ATOM     15  O   UNL     1       5.595   6.259  14.974  0.00  0.00    +0.000 OA
BRANCH  14  17
ATOM     16  C   UNL     1       7.561   7.270  17.377  0.00  0.00    +0.000 C 
ATOM     17  O   UNL     1       7.305   6.173  16.502  0.00  0.00    +0.000 OA
ENDBRANCH  14  17
ENDBRANCH   1  14
TORSDOF 2
ENDMDL
MODEL 8
REMARK VINA RESULT:      -7.0      1.135      1.203
REMARK  Name = 
REMARK  3 active torsions:
REMARK  status: ('A' for Active; 'I' for Inactive)
REMARK    1  A    between atoms: C_1  and  O_2
REMARK    2  A    between atoms: O_2  and  C_3
REMARK    3  A    between atoms: C_3  and  C_5
REMARK                            x       y       z     vdW  Elec       q    Type
REMARK                         _______ _______ _______ _____ _____    ______ ____
ROOT
ATOM      1  C   UNL     1       4.808   5.796  17.063  0.00  0.00    +0.000 A 
ATOM      2  C   UNL     1       3.945   6.665  17.746  0.00  0.00    +0.000 A 
ATOM      3  C   UNL     1       3.290   6.233  18.900  0.00  0.00    +0.000 A 
ATOM      4  C   UNL     1       3.507   4.938  19.373  0.00  0.00    +0.000 A 
ATOM      5  C   UNL     1       4.386   4.058  18.718  0.00  0.00    +0.000 A 
ATOM      6  C   UNL     1       5.021   4.498  17.554  0.00  0.00    +0.000 A 
ATOM      7  N   UNL     1       4.741   2.813  19.255  0.00  0.00    +0.000 N 
ATOM      8  C   UNL     1       4.108   2.458  20.517  0.00  0.00    +0.000 C 
ATOM      9  C   UNL     1       2.764   3.122  20.644  0.00  0.00    +0.000 C 
ATOM     10  C   UNL     1       1.743   2.591  21.619  0.00  0.00    +0.000 C 
ATOM     11  C   UNL     1       1.517   2.434  20.141  0.00  0.00    +0.000 C 
ATOM     12  O   UNL     1       2.799   4.560  20.493  0.00  0.00    +0.000 OA
ATOM     13  H   UNL     1       4.813   2.070  18.567  0.00  0.00    +0.000 HD
ENDROOT
BRANCH   1  14
ATOM     14  C   UNL     1       5.543   6.202  15.838  0.00  0.00    +0.000 C 
ATOM     15  O   UNL     1       5.087   6.967  15.000  0.00  0.00    +0.000 OA
BRANCH  14  17
ATOM     16  C   UNL     1       6.978   4.860  14.584  0.00  0.00    +0.000 C 
ATOM     17  O   UNL     1       6.756   5.601  15.782  0.00  0.00    +0.000 OA
ENDBRANCH  14  17
ENDBRANCH   1  14
TORSDOF 2
ENDMDL
MODEL 9
REMARK VINA RESULT:      -7.0      1.542      2.017
REMARK  Name = 
REMARK  3 active torsions:
REMARK  status: ('A' for Active; 'I' for Inactive)
REMARK    1  A    between atoms: C_1  and  O_2
REMARK    2  A    between atoms: O_2  and  C_3
REMARK    3  A    between atoms: C_3  and  C_5
REMARK                            x       y       z     vdW  Elec       q    Type
REMARK                         _______ _______ _______ _____ _____    ______ ____
ROOT
ATOM      1  C   UNL     1       5.719   4.883  15.499  0.00  0.00    +0.000 A 
ATOM      2  C   UNL     1       5.280   6.176  15.822  0.00  0.00    +0.000 A 
ATOM      3  C   UNL     1       4.545   6.391  16.988  0.00  0.00    +0.000 A 
ATOM      4  C   UNL     1       4.259   5.318  17.831  0.00  0.00    +0.000 A 
ATOM      5  C   UNL     1       4.708   4.018  17.540  0.00  0.00    +0.000 A 
ATOM      6  C   UNL     1       5.427   3.813  16.360  0.00  0.00    +0.000 A 
ATOM      7  N   UNL     1       4.569   2.955  18.443  0.00  0.00    +0.000 N 
ATOM      8  C   UNL     1       3.887   3.262  19.692  0.00  0.00    +0.000 C 
ATOM      9  C   UNL     1       2.910   4.390  19.502  0.00  0.00    +0.000 C 
ATOM     10  C   UNL     1       1.794   4.604  20.493  0.00  0.00    +0.000 C 
ATOM     11  C   UNL     1       1.479   4.109  19.109  0.00  0.00    +0.000 C 
ATOM     12  O   UNL     1       3.495   5.591  18.945  0.00  0.00    +0.000 OA
ATOM     13  H   UNL     1       4.327   2.071  18.008  0.00  0.00    +0.000 HD
ENDROOT
BRANCH   1  14
ATOM     14  C   UNL     1       6.515   4.593  14.279  0.00  0.00    +0.000 C 
ATOM     15  O   UNL     1       6.220   3.720  13.473  0.00  0.00    +0.000 OA
BRANCH  14  17
ATOM     16  C   UNL     1       8.161   5.496  12.898  0.00  0.00    +0.000 C 
ATOM     17  O   UNL     1       7.595   5.406  14.204  0.00  0.00    +0.000 OA
ENDBRANCH  14  17
ENDBRANCH   1  14
TORSDOF 2
ENDMDL
