MODEL 1
REMARK VINA RESULT:      -6.7      0.000      0.000
REMARK  Name = 
REMARK  5 active torsions:
REMARK  status: ('A' for Active; 'I' for Inactive)
REMARK    1  A    between atoms: C_1  and  C_2
REMARK    2  A    between atoms: N_6  and  C_7
REMARK    3  A    between atoms: N_6  and  C_8
REMARK    4  A    between atoms: C_14  and  C_16
REMARK    5  A    between atoms: C_16  and  C_17
REMARK                            x       y       z     vdW  Elec       q    Type
REMARK                         _______ _______ _______ _____ _____    ______ ____
ROOT
ATOM      1  C   UNL     1       2.965   2.814  20.547  0.00  0.00    +0.000 C 
ATOM      2  C   UNL     1       1.460   2.612  20.312  0.00  0.00    +0.000 C 
ATOM      3  C   UNL     1       1.067   3.631  19.249  0.00  0.00    +0.000 C 
ATOM      4  C   UNL     1       2.035   4.806  19.430  0.00  0.00    +0.000 C 
ATOM      5  C   UNL     1       2.742   5.249  18.150  0.00  0.00    +0.000 C 
ATOM      6  N   UNL     1       4.141   4.903  18.317  0.00  0.00    +0.000 N 
ATOM      7  C   UNL     1       4.836   4.390  17.244  0.00  0.00    +0.000 C 
ATOM      8  O   UNL     1       4.256   4.101  16.198  0.00  0.00    +0.000 OA
ATOM      9  C   UNL     1       4.461   4.798  19.735  0.00  0.00    +0.000 C 
ATOM     10  C   UNL     1       3.159   4.333  20.372  0.00  0.00    +0.000 C 
ENDROOT
BRANCH   1  16
ATOM     11  C   UNL     1       6.935  -1.529  22.723  0.00  0.00    +0.000 C 
ATOM     12  C   UNL     1       6.379  -0.496  21.799  0.00  0.00    +0.000 A 
ATOM     13  C   UNL     1       6.164  -0.779  20.470  0.00  0.00    +0.000 A 
ATOM     14  C   UNL     1       5.366   0.089  19.727  0.00  0.00    +0.000 A 
ATOM     15  C   UNL     1       4.794   1.211  20.318  0.00  0.00    +0.000 A 
ATOM     16  N   UNL     1       3.830   1.992  19.666  0.00  0.00    +0.000 N 
ATOM     17  C   UNL     1       3.333   1.528  18.376  0.00  0.00    +0.000 C 
ATOM     18  N   UNL     1       5.178   1.514  21.578  0.00  0.00    +0.000 NA
ATOM     19  N   UNL     1       5.957   0.658  22.334  0.00  0.00    +0.000 NA
ENDBRANCH   1  16
BRANCH   7  20
ATOM     20  C   UNL     1       6.359   4.218  17.332  0.00  0.00    +0.000 C 
BRANCH  20  21
ATOM     21  C   UNL     1       6.917   5.577  17.678  0.00  0.00    +0.000 A 
ATOM     22  C   UNL     1       6.796   6.745  16.943  0.00  0.00    +0.000 A 
ATOM     23  C   UNL     1       7.595   7.800  17.460  0.00  0.00    +0.000 A 
ATOM     24  C   UNL     1       8.276   7.421  18.596  0.00  0.00    +0.000 A 
ATOM     25  S   UNL     1       7.938   5.802  19.036  0.00  0.00    +0.000 S 
ENDBRANCH  20  21
ENDBRANCH   7  20
TORSDOF 3
ENDMDL
MODEL 2
REMARK VINA RESULT:      -6.5     10.215     11.906
REMARK  Name = 
REMARK  5 active torsions:
REMARK  status: ('A' for Active; 'I' for Inactive)
REMARK    1  A    between atoms: C_1  and  C_2
REMARK    2  A    between atoms: N_6  and  C_7
REMARK    3  A    between atoms: N_6  and  C_8
REMARK    4  A    between atoms: C_14  and  C_16
REMARK    5  A    between atoms: C_16  and  C_17
REMARK                            x       y       z     vdW  Elec       q    Type
REMARK                         _______ _______ _______ _____ _____    ______ ____
ROOT
ATOM      1  C   UNL     1      10.703  11.740  20.407  0.00  0.00    +0.000 C 
ATOM      2  C   UNL     1      12.209  11.868  20.131  0.00  0.00    +0.000 C 
ATOM      3  C   UNL     1      12.324  12.383  18.702  0.00  0.00    +0.000 C 
ATOM      4  C   UNL     1      11.083  11.855  17.974  0.00  0.00    +0.000 C 
ATOM      5  C   UNL     1      10.287  12.920  17.220  0.00  0.00    +0.000 C 
ATOM      6  N   UNL     1       9.027  13.061  17.925  0.00  0.00    +0.000 N 
ATOM      7  C   UNL     1       8.492  14.319  18.093  0.00  0.00    +0.000 C 
ATOM      8  O   UNL     1       9.130  15.322  17.775  0.00  0.00    +0.000 OA
ATOM      9  C   UNL     1       8.742  11.849  18.681  0.00  0.00    +0.000 C 
ATOM     10  C   UNL     1      10.119  11.312  19.046  0.00  0.00    +0.000 C 
ENDROOT
BRANCH   1  16
ATOM     11  C   UNL     1       7.402  11.786  25.743  0.00  0.00    +0.000 C 
ATOM     12  C   UNL     1       7.844  12.211  24.381  0.00  0.00    +0.000 A 
ATOM     13  C   UNL     1       8.227  13.509  24.134  0.00  0.00    +0.000 A 
ATOM     14  C   UNL     1       8.918  13.785  22.956  0.00  0.00    +0.000 A 
ATOM     15  C   UNL     1       9.222  12.769  22.055  0.00  0.00    +0.000 A 
ATOM     16  N   UNL     1      10.085  12.967  20.968  0.00  0.00    +0.000 N 
ATOM     17  C   UNL     1      10.773  14.248  20.864  0.00  0.00    +0.000 C 
ATOM     18  N   UNL     1       8.677  11.554  22.281  0.00  0.00    +0.000 NA
ATOM     19  N   UNL     1       8.001  11.259  23.450  0.00  0.00    +0.000 NA
ENDBRANCH   1  16
BRANCH   7  20
ATOM     20  C   UNL     1       7.067  14.477  18.642  0.00  0.00    +0.000 C 
BRANCH  20  21
ATOM     21  C   UNL     1       7.075  15.734  19.478  0.00  0.00    +0.000 A 
ATOM     22  C   UNL     1       7.506  15.866  20.789  0.00  0.00    +0.000 A 
ATOM     23  C   UNL     1       7.205  17.143  21.335  0.00  0.00    +0.000 A 
ATOM     24  C   UNL     1       6.587  17.963  20.417  0.00  0.00    +0.000 A 
ATOM     25  S   UNL     1       6.384  17.193  18.902  0.00  0.00    +0.000 S 
ENDBRANCH  20  21
ENDBRANCH   7  20
TORSDOF 3
ENDMDL
MODEL 3
REMARK VINA RESULT:      -6.0      2.939      5.735
REMARK  Name = 
REMARK  5 active torsions:
REMARK  status: ('A' for Active; 'I' for Inactive)
REMARK    1  A    between atoms: C_1  and  C_2
REMARK    2  A    between atoms: N_6  and  C_7
REMARK    3  A    between atoms: N_6  and  C_8
REMARK    4  A    between atoms: C_14  and  C_16
REMARK    5  A    between atoms: C_16  and  C_17
REMARK                            x       y       z     vdW  Elec       q    Type
REMARK                         _______ _______ _______ _____ _____    ______ ____
ROOT
ATOM      1  C   UNL     1       1.174   4.130  18.518  0.00  0.00    +0.000 C 
ATOM      2  C   UNL     1       0.465   2.884  19.069  0.00  0.00    +0.000 C 
ATOM      3  C   UNL     1       1.503   1.769  19.033  0.00  0.00    +0.000 C 
ATOM      4  C   UNL     1       2.436   2.115  17.867  0.00  0.00    +0.000 C 
ATOM      5  C   UNL     1       3.923   2.110  18.221  0.00  0.00    +0.000 C 
ATOM      6  N   UNL     1       4.363   3.491  18.145  0.00  0.00    +0.000 N 
ATOM      7  C   UNL     1       5.240   3.966  19.094  0.00  0.00    +0.000 C 
ATOM      8  O   UNL     1       5.545   3.280  20.069  0.00  0.00    +0.000 OA
ATOM      9  C   UNL     1       3.472   4.250  17.277  0.00  0.00    +0.000 C 
ATOM     10  C   UNL     1       2.123   3.563  17.444  0.00  0.00    +0.000 C 
ENDROOT
BRANCH   1  16
ATOM     11  C   UNL     1       1.035  10.403  18.582  0.00  0.00    +0.000 C 
ATOM     12  C   UNL     1       1.551   9.024  18.830  0.00  0.00    +0.000 A 
ATOM     13  C   UNL     1       1.901   8.617  20.097  0.00  0.00    +0.000 A 
ATOM     14  C   UNL     1       2.074   7.254  20.332  0.00  0.00    +0.000 A 
ATOM     15  C   UNL     1       1.890   6.326  19.312  0.00  0.00    +0.000 A 
ATOM     16  N   UNL     1       1.855   4.946  19.553  0.00  0.00    +0.000 N 
ATOM     17  C   UNL     1       1.892   4.492  20.938  0.00  0.00    +0.000 C 
ATOM     18  N   UNL     1       1.708   6.805  18.061  0.00  0.00    +0.000 NA
ATOM     19  N   UNL     1       1.520   8.152  17.812  0.00  0.00    +0.000 NA
ENDBRANCH   1  16
BRANCH   7  20
ATOM     20  C   UNL     1       5.884   5.348  18.917  0.00  0.00    +0.000 C 
BRANCH  20  21
ATOM     21  C   UNL     1       6.196   5.481  17.445  0.00  0.00    +0.000 A 
ATOM     22  C   UNL     1       5.591   6.331  16.533  0.00  0.00    +0.000 A 
ATOM     23  C   UNL     1       5.994   6.071  15.196  0.00  0.00    +0.000 A 
ATOM     24  C   UNL     1       6.922   5.056  15.125  0.00  0.00    +0.000 A 
ATOM     25  S   UNL     1       7.309   4.431  16.671  0.00  0.00    +0.000 S 
ENDBRANCH  20  21
ENDBRANCH   7  20
TORSDOF 3
ENDMDL
MODEL 4
REMARK VINA RESULT:      -5.9      8.367     12.455
REMARK  Name = 
REMARK  5 active torsions:
REMARK  status: ('A' for Active; 'I' for Inactive)
REMARK    1  A    between atoms: C_1  and  C_2
REMARK    2  A    between atoms: N_6  and  C_7
REMARK    3  A    between atoms: N_6  and  C_8
REMARK    4  A    between atoms: C_14  and  C_16
REMARK    5  A    between atoms: C_16  and  C_17
REMARK                            x       y       z     vdW  Elec       q    Type
REMARK                         _______ _______ _______ _____ _____    ______ ____
ROOT
ATOM      1  C   UNL     1      10.404  14.391  17.846  0.00  0.00    +0.000 C 
ATOM      2  C   UNL     1      11.804  14.978  17.609  0.00  0.00    +0.000 C 
ATOM      3  C   UNL     1      11.820  16.315  18.339  0.00  0.00    +0.000 C 
ATOM      4  C   UNL     1      10.369  16.810  18.320  0.00  0.00    +0.000 C 
ATOM      5  C   UNL     1       9.820  17.219  19.687  0.00  0.00    +0.000 C 
ATOM      6  N   UNL     1       8.807  16.238  20.027  0.00  0.00    +0.000 N 
ATOM      7  C   UNL     1       8.721  15.788  21.326  0.00  0.00    +0.000 C 
ATOM      8  O   UNL     1       9.569  16.104  22.159  0.00  0.00    +0.000 OA
ATOM      9  C   UNL     1       8.301  15.604  18.816  0.00  0.00    +0.000 C 
ATOM     10  C   UNL     1       9.489  15.632  17.864  0.00  0.00    +0.000 C 
ENDROOT
BRANCH   1  16
ATOM     11  C   UNL     1       8.163   8.531  17.775  0.00  0.00    +0.000 C 
ATOM     12  C   UNL     1       8.498   9.883  18.316  0.00  0.00    +0.000 A 
ATOM     13  C   UNL     1       9.226  10.020  19.475  0.00  0.00    +0.000 A 
ATOM     14  C   UNL     1       9.776  11.266  19.769  0.00  0.00    +0.000 A 
ATOM     15  C   UNL     1       9.600  12.344  18.907  0.00  0.00    +0.000 A 
ATOM     16  N   UNL     1      10.299  13.548  19.062  0.00  0.00    +0.000 N 
ATOM     17  C   UNL     1      11.330  13.614  20.091  0.00  0.00    +0.000 C 
ATOM     18  N   UNL     1       8.742  12.181  17.876  0.00  0.00    +0.000 NA
ATOM     19  N   UNL     1       8.199  10.949  17.561  0.00  0.00    +0.000 NA
ENDBRANCH   1  16
BRANCH   7  20
ATOM     20  C   UNL     1       7.532  14.918  21.757  0.00  0.00    +0.000 C 
BRANCH  20  21
ATOM     21  C   UNL     1       8.015  14.095  22.927  0.00  0.00    +0.000 A 
ATOM     22  C   UNL     1       8.532  12.810  22.890  0.00  0.00    +0.000 A 
ATOM     23  C   UNL     1       8.718  12.260  24.187  0.00  0.00    +0.000 A 
ATOM     24  C   UNL     1       8.373  13.152  25.179  0.00  0.00    +0.000 A 
ATOM     25  S   UNL     1       7.839  14.647  24.540  0.00  0.00    +0.000 S 
ENDBRANCH  20  21
ENDBRANCH   7  20
TORSDOF 3
ENDMDL
MODEL 5
REMARK VINA RESULT:      -5.8     10.641     13.252
REMARK  Name = 
REMARK  5 active torsions:
REMARK  status: ('A' for Active; 'I' for Inactive)
REMARK    1  A    between atoms: C_1  and  C_2
REMARK    2  A    between atoms: N_6  and  C_7
REMARK    3  A    between atoms: N_6  and  C_8
REMARK    4  A    between atoms: C_14  and  C_16
REMARK    5  A    between atoms: C_16  and  C_17
REMARK                            x       y       z     vdW  Elec       q    Type
REMARK                         _______ _______ _______ _____ _____    ______ ____
ROOT
ATOM      1  C   UNL     1      -1.470  13.516  22.697  0.00  0.00    +0.000 C 
ATOM      2  C   UNL     1      -0.362  14.577  22.777  0.00  0.00    +0.000 C 
ATOM      3  C   UNL     1       0.639  14.212  21.687  0.00  0.00    +0.000 C 
ATOM      4  C   UNL     1       0.542  12.690  21.534  0.00  0.00    +0.000 C 
ATOM      5  C   UNL     1       0.337  12.208  20.099  0.00  0.00    +0.000 C 
ATOM      6  N   UNL     1      -1.004  11.657  20.043  0.00  0.00    +0.000 N 
ATOM      7  C   UNL     1      -1.780  11.900  18.931  0.00  0.00    +0.000 C 
ATOM      8  O   UNL     1      -1.402  12.679  18.057  0.00  0.00    +0.000 OA
ATOM      9  C   UNL     1      -1.435  11.259  21.376  0.00  0.00    +0.000 C 
ATOM     10  C   UNL     1      -0.714  12.232  22.300  0.00  0.00    +0.000 C 
ENDROOT
BRANCH   1  16
ATOM     11  C   UNL     1      -7.511  13.271  24.370  0.00  0.00    +0.000 C 
ATOM     12  C   UNL     1      -6.317  13.236  23.474  0.00  0.00    +0.000 A 
ATOM     13  C   UNL     1      -6.240  14.048  22.367  0.00  0.00    +0.000 A 
ATOM     14  C   UNL     1      -5.002  14.211  21.748  0.00  0.00    +0.000 A 
ATOM     15  C   UNL     1      -3.869  13.574  22.244  0.00  0.00    +0.000 A 
ATOM     16  N   UNL     1      -2.580  13.869  21.779  0.00  0.00    +0.000 N 
ATOM     17  C   UNL     1      -2.429  14.968  20.833  0.00  0.00    +0.000 C 
ATOM     18  N   UNL     1      -4.047  12.667  23.231  0.00  0.00    +0.000 NA
ATOM     19  N   UNL     1      -5.265  12.504  23.864  0.00  0.00    +0.000 NA
ENDBRANCH   1  16
BRANCH   7  20
ATOM     20  C   UNL     1      -3.112  11.158  18.751  0.00  0.00    +0.000 C 
BRANCH  20  21
ATOM     21  C   UNL     1      -3.136  10.677  17.320  0.00  0.00    +0.000 A 
ATOM     22  C   UNL     1      -2.245   9.806  16.713  0.00  0.00    +0.000 A 
ATOM     23  C   UNL     1      -2.447   9.709  15.310  0.00  0.00    +0.000 A 
ATOM     24  C   UNL     1      -3.510  10.478  14.889  0.00  0.00    +0.000 A 
ATOM     25  S   UNL     1      -4.261  11.302  16.188  0.00  0.00    +0.000 S 
ENDBRANCH  20  21
ENDBRANCH   7  20
TORSDOF 3
ENDMDL
MODEL 6
REMARK VINA RESULT:      -5.8      3.425      5.715
REMARK  Name = 
REMARK  5 active torsions:
REMARK  status: ('A' for Active; 'I' for Inactive)
REMARK    1  A    between atoms: C_1  and  C_2
REMARK    2  A    between atoms: N_6  and  C_7
REMARK    3  A    between atoms: N_6  and  C_8
REMARK    4  A    between atoms: C_14  and  C_16
REMARK    5  A    between atoms: C_16  and  C_17
REMARK                            x       y       z     vdW  Elec       q    Type
REMARK                         _______ _______ _______ _____ _____    ______ ____
ROOT
ATOM      1  C   UNL     1       4.685   2.768  18.234  0.00  0.00    +0.000 C 
ATOM      2  C   UNL     1       3.927   1.446  18.432  0.00  0.00    +0.000 C 
ATOM      3  C   UNL     1       2.850   1.739  19.470  0.00  0.00    +0.000 C 
ATOM      4  C   UNL     1       3.423   2.856  20.350  0.00  0.00    +0.000 C 
ATOM      5  C   UNL     1       2.498   4.059  20.531  0.00  0.00    +0.000 C 
ATOM      6  N   UNL     1       3.127   5.163  19.831  0.00  0.00    +0.000 N 
ATOM      7  C   UNL     1       2.340   6.029  19.104  0.00  0.00    +0.000 C 
ATOM      8  O   UNL     1       1.143   5.800  18.934  0.00  0.00    +0.000 OA
ATOM      9  C   UNL     1       4.559   4.924  19.708  0.00  0.00    +0.000 C 
ATOM     10  C   UNL     1       4.672   3.407  19.637  0.00  0.00    +0.000 C 
ENDROOT
BRANCH   1  16
ATOM     11  C   UNL     1       8.079   4.969  13.439  0.00  0.00    +0.000 C 
ATOM     12  C   UNL     1       6.992   4.918  14.461  0.00  0.00    +0.000 A 
ATOM     13  C   UNL     1       5.670   5.009  14.092  0.00  0.00    +0.000 A 
ATOM     14  C   UNL     1       4.695   4.648  15.021  0.00  0.00    +0.000 A 
ATOM     15  C   UNL     1       5.052   4.197  16.288  0.00  0.00    +0.000 A 
ATOM     16  N   UNL     1       4.120   3.636  17.172  0.00  0.00    +0.000 N 
ATOM     17  C   UNL     1       2.763   3.413  16.686  0.00  0.00    +0.000 C 
ATOM     18  N   UNL     1       6.354   4.287  16.636  0.00  0.00    +0.000 NA
ATOM     19  N   UNL     1       7.335   4.630  15.724  0.00  0.00    +0.000 NA
ENDBRANCH   1  16
BRANCH   7  20
ATOM     20  C   UNL     1       2.947   7.319  18.534  0.00  0.00    +0.000 C 
BRANCH  20  21
ATOM     21  C   UNL     1       1.953   8.417  18.829  0.00  0.00    +0.000 A 
ATOM     22  C   UNL     1       1.470   9.370  17.946  0.00  0.00    +0.000 A 
ATOM     23  C   UNL     1       0.691  10.367  18.593  0.00  0.00    +0.000 A 
ATOM     24  C   UNL     1       0.569  10.129  19.944  0.00  0.00    +0.000 A 
ATOM     25  S   UNL     1       1.384   8.701  20.421  0.00  0.00    +0.000 S 
ENDBRANCH  20  21
ENDBRANCH   7  20
TORSDOF 3
ENDMDL
MODEL 7
REMARK VINA RESULT:      -5.8     10.228     12.812
REMARK  Name = 
REMARK  5 active torsions:
REMARK  status: ('A' for Active; 'I' for Inactive)
REMARK    1  A    between atoms: C_1  and  C_2
REMARK    2  A    between atoms: N_6  and  C_7
REMARK    3  A    between atoms: N_6  and  C_8
REMARK    4  A    between atoms: C_14  and  C_16
REMARK    5  A    between atoms: C_16  and  C_17
REMARK                            x       y       z     vdW  Elec       q    Type
REMARK                         _______ _______ _______ _____ _____    ______ ____
ROOT
ATOM      1  C   UNL     1      -1.262  11.183  19.695  0.00  0.00    +0.000 C 
ATOM      2  C   UNL     1      -0.336  10.027  20.103  0.00  0.00    +0.000 C 
ATOM      3  C   UNL     1       1.080  10.511  19.817  0.00  0.00    +0.000 C 
ATOM      4  C   UNL     1       0.949  11.496  18.650  0.00  0.00    +0.000 C 
ATOM      5  C   UNL     1       1.617  12.850  18.884  0.00  0.00    +0.000 C 
ATOM      6  N   UNL     1       0.543  13.821  18.985  0.00  0.00    +0.000 N 
ATOM      7  C   UNL     1       0.634  14.823  19.926  0.00  0.00    +0.000 C 
ATOM      8  O   UNL     1       1.540  14.824  20.759  0.00  0.00    +0.000 OA
ATOM      9  C   UNL     1      -0.648  13.317  18.314  0.00  0.00    +0.000 C 
ATOM     10  C   UNL     1      -0.550  11.806  18.478  0.00  0.00    +0.000 C 
ENDROOT
BRANCH   1  16
ATOM     11  C   UNL     1      -7.066  12.684  21.543  0.00  0.00    +0.000 C 
ATOM     12  C   UNL     1      -5.602  12.846  21.302  0.00  0.00    +0.000 A 
ATOM     13  C   UNL     1      -4.751  13.196  22.326  0.00  0.00    +0.000 A 
ATOM     14  C   UNL     1      -3.381  13.031  22.136  0.00  0.00    +0.000 A 
ATOM     15  C   UNL     1      -2.884  12.516  20.942  0.00  0.00    +0.000 A 
ATOM     16  N   UNL     1      -1.541  12.147  20.787  0.00  0.00    +0.000 N 
ATOM     17  C   UNL     1      -0.678  12.197  21.962  0.00  0.00    +0.000 C 
ATOM     18  N   UNL     1      -3.760  12.348  19.926  0.00  0.00    +0.000 NA
ATOM     19  N   UNL     1      -5.123  12.493  20.101  0.00  0.00    +0.000 NA
ENDBRANCH   1  16
BRANCH   7  20
ATOM     20  C   UNL     1      -0.376  15.979  19.913  0.00  0.00    +0.000 C 
BRANCH  20  21
ATOM     21  C   UNL     1       0.066  16.910  18.809  0.00  0.00    +0.000 A 
ATOM     22  C   UNL     1      -0.732  17.501  17.842  0.00  0.00    +0.000 A 
ATOM     23  C   UNL     1       0.027  18.172  16.845  0.00  0.00    +0.000 A 
ATOM     24  C   UNL     1       1.380  18.106  17.097  0.00  0.00    +0.000 A 
ATOM     25  S   UNL     1       1.724  17.247  18.537  0.00  0.00    +0.000 S 
ENDBRANCH  20  21
ENDBRANCH   7  20
TORSDOF 3
ENDMDL
MODEL 8
REMARK VINA RESULT:      -5.7     10.055     12.815
REMARK  Name = 
REMARK  5 active torsions:
REMARK  status: ('A' for Active; 'I' for Inactive)
REMARK    1  A    between atoms: C_1  and  C_2
REMARK    2  A    between atoms: N_6  and  C_7
REMARK    3  A    between atoms: N_6  and  C_8
REMARK    4  A    between atoms: C_14  and  C_16
REMARK    5  A    between atoms: C_16  and  C_17
REMARK                            x       y       z     vdW  Elec       q    Type
REMARK                         _______ _______ _______ _____ _____    ______ ____
ROOT
ATOM      1  C   UNL     1       0.707  13.032  18.730  0.00  0.00    +0.000 C 
ATOM      2  C   UNL     1       2.231  12.954  18.906  0.00  0.00    +0.000 C 
ATOM      3  C   UNL     1       2.517  13.518  20.293  0.00  0.00    +0.000 C 
ATOM      4  C   UNL     1       1.399  14.532  20.561  0.00  0.00    +0.000 C 
ATOM      5  C   UNL     1       0.676  14.342  21.894  0.00  0.00    +0.000 C 
ATOM      6  N   UNL     1      -0.670  13.909  21.568  0.00  0.00    +0.000 N 
ATOM      7  C   UNL     1      -1.262  12.931  22.336  0.00  0.00    +0.000 C 
ATOM      8  O   UNL     1      -0.621  12.336  23.201  0.00  0.00    +0.000 OA
ATOM      9  C   UNL     1      -1.013  14.326  20.215  0.00  0.00    +0.000 C 
ATOM     10  C   UNL     1       0.321  14.322  19.480  0.00  0.00    +0.000 C 
ENDROOT
BRANCH   1  16
ATOM     11  C   UNL     1      -3.364   9.879  15.147  0.00  0.00    +0.000 C 
ATOM     12  C   UNL     1      -2.731  10.407  16.392  0.00  0.00    +0.000 A 
ATOM     13  C   UNL     1      -2.347   9.559  17.405  0.00  0.00    +0.000 A 
ATOM     14  C   UNL     1      -1.491  10.047  18.391  0.00  0.00    +0.000 A 
ATOM     15  C   UNL     1      -1.030  11.359  18.347  0.00  0.00    +0.000 A 
ATOM     16  N   UNL     1      -0.018  11.825  19.197  0.00  0.00    +0.000 N 
ATOM     17  C   UNL     1       0.647  10.859  20.064  0.00  0.00    +0.000 C 
ATOM     18  N   UNL     1      -1.574  12.179  17.420  0.00  0.00    +0.000 NA
ATOM     19  N   UNL     1      -2.413  11.708  16.427  0.00  0.00    +0.000 NA
ENDBRANCH   1  16
BRANCH   7  20
ATOM     20  C   UNL     1      -2.751  12.608  22.149  0.00  0.00    +0.000 C 
BRANCH  20  21
ATOM     21  C   UNL     1      -3.511  13.778  22.727  0.00  0.00    +0.000 A 
ATOM     22  C   UNL     1      -3.322  14.372  23.964  0.00  0.00    +0.000 A 
ATOM     23  C   UNL     1      -4.327  15.329  24.269  0.00  0.00    +0.000 A 
ATOM     24  C   UNL     1      -5.236  15.466  23.243  0.00  0.00    +0.000 A 
ATOM     25  S   UNL     1      -4.864  14.451  21.917  0.00  0.00    +0.000 S 
ENDBRANCH  20  21
ENDBRANCH   7  20
TORSDOF 3
ENDMDL
MODEL 9
REMARK VINA RESULT:      -5.7     10.165     13.079
REMARK  Name = 
REMARK  5 active torsions:
REMARK  status: ('A' for Active; 'I' for Inactive)
REMARK    1  A    between atoms: C_1  and  C_2
REMARK    2  A    between atoms: N_6  and  C_7
REMARK    3  A    between atoms: N_6  and  C_8
REMARK    4  A    between atoms: C_14  and  C_16
REMARK    5  A    between atoms: C_16  and  C_17
REMARK                            x       y       z     vdW  Elec       q    Type
REMARK                         _______ _______ _______ _____ _____    ______ ____
ROOT
ATOM      1  C   UNL     1       0.108  12.392  19.000  0.00  0.00    +0.000 C 
ATOM      2  C   UNL     1       1.512  12.031  19.509  0.00  0.00    +0.000 C 
ATOM      3  C   UNL     1       1.576  12.543  20.943  0.00  0.00    +0.000 C 
ATOM      4  C   UNL     1       0.633  13.751  20.989  0.00  0.00    +0.000 C 
ATOM      5  C   UNL     1      -0.394  13.711  22.120  0.00  0.00    +0.000 C 
ATOM      6  N   UNL     1      -1.687  13.535  21.488  0.00  0.00    +0.000 N 
ATOM      7  C   UNL     1      -2.608  12.693  22.071  0.00  0.00    +0.000 C 
ATOM      8  O   UNL     1      -2.299  11.994  23.036  0.00  0.00    +0.000 OA
ATOM      9  C   UNL     1      -1.634  13.998  20.107  0.00  0.00    +0.000 C 
ATOM     10  C   UNL     1      -0.193  13.738  19.689  0.00  0.00    +0.000 C 
ENDROOT
BRANCH   1  16
ATOM     11  C   UNL     1      -3.521   9.987  14.483  0.00  0.00    +0.000 C 
ATOM     12  C   UNL     1      -3.110  10.409  15.855  0.00  0.00    +0.000 A 
ATOM     13  C   UNL     1      -3.134   9.520  16.905  0.00  0.00    +0.000 A 
ATOM     14  C   UNL     1      -2.458   9.858  18.076  0.00  0.00    +0.000 A 
ATOM     15  C   UNL     1      -1.768  11.061  18.178  0.00  0.00    +0.000 A 
ATOM     16  N   UNL     1      -0.914  11.346  19.252  0.00  0.00    +0.000 N 
ATOM     17  C   UNL     1      -0.657  10.288  20.222  0.00  0.00    +0.000 C 
ATOM     18  N   UNL     1      -1.922  11.953  17.173  0.00  0.00    +0.000 NA
ATOM     19  N   UNL     1      -2.577  11.629  16.000  0.00  0.00    +0.000 NA
ENDBRANCH   1  16
BRANCH   7  20
ATOM     20  C   UNL     1      -4.050  12.653  21.545  0.00  0.00    +0.000 C 
BRANCH  20  21
ATOM     21  C   UNL     1      -4.878  13.443  22.530  0.00  0.00    +0.000 A 
ATOM     22  C   UNL     1      -5.924  12.976  23.309  0.00  0.00    +0.000 A 
ATOM     23  C   UNL     1      -6.606  14.021  23.989  0.00  0.00    +0.000 A 
ATOM     24  C   UNL     1      -6.040  15.252  23.740  0.00  0.00    +0.000 A 
ATOM     25  S   UNL     1      -4.686  15.137  22.700  0.00  0.00    +0.000 S 
ENDBRANCH  20  21
ENDBRANCH   7  20
TORSDOF 3
ENDMDL
