MODEL 1
REMARK VINA RESULT:      -6.8      0.000      0.000
REMARK  Name = 
REMARK  7 active torsions:
REMARK  status: ('A' for Active; 'I' for Inactive)
REMARK    1  A    between atoms: C_1  and  O_2
REMARK    2  A    between atoms: O_2  and  C_3
REMARK    3  A    between atoms: C_3  and  C_4
REMARK    4  A    between atoms: C_5  and  C_6
REMARK    5  A    between atoms: C_6  and  C_7
REMARK    6  A    between atoms: C_6  and  C_9
REMARK    7  A    between atoms: C_6  and  C_15
REMARK                            x       y       z     vdW  Elec       q    Type
REMARK                         _______ _______ _______ _____ _____    ______ ____
ROOT
ATOM      1  C   UNL     1      -0.185  10.914  18.968  0.00  0.00    +0.000 C 
ENDROOT
BRANCH   1   2
ATOM      2  C   UNL     1      -0.288  10.426  20.444  0.00  0.00    +0.000 A 
ATOM      3  C   UNL     1      -0.734  11.264  21.486  0.00  0.00    +0.000 A 
ATOM      4  C   UNL     1      -0.781  10.806  22.811  0.00  0.00    +0.000 A 
ATOM      5  C   UNL     1      -0.389   9.511  23.126  0.00  0.00    +0.000 A 
ATOM      6  C   UNL     1       0.074   8.669  22.124  0.00  0.00    +0.000 A 
ATOM      7  C   UNL     1       0.138   9.126  20.805  0.00  0.00    +0.000 A 
ENDBRANCH   1   2
BRANCH   1   8
ATOM      8  C   UNL     1      -1.529  10.795  18.177  0.00  0.00    +0.000 A 
ATOM      9  C   UNL     1      -1.689   9.892  17.112  0.00  0.00    +0.000 A 
ATOM     10  C   UNL     1      -2.887   9.839  16.390  0.00  0.00    +0.000 A 
ATOM     11  C   UNL     1      -3.959  10.665  16.726  0.00  0.00    +0.000 A 
ATOM     12  C   UNL     1      -3.844  11.543  17.794  0.00  0.00    +0.000 A 
ATOM     13  C   UNL     1      -2.650  11.600  18.515  0.00  0.00    +0.000 A 
ENDBRANCH   1   8
BRANCH   1  15
ATOM     14  C   UNL     1       0.498  13.654  19.029  0.00  0.00    +0.000 C 
ATOM     15  C   UNL     1       0.182  12.388  19.001  0.00  0.00    +0.000 C 
BRANCH  14  16
ATOM     16  C   UNL     1       0.866  15.128  19.063  0.00  0.00    +0.000 C 
ATOM     17  C   UNL     1       1.163  15.764  20.445  0.00  0.00    +0.000 C 
ATOM     18  N   UNL     1       2.599  16.163  20.624  0.00  0.00    +0.000 NA
ATOM     19  C   UNL     1       3.424  14.942  20.551  0.00  0.00    +0.000 C 
ATOM     20  C   UNL     1       3.278  14.253  19.188  0.00  0.00    +0.000 C 
ATOM     21  C   UNL     1       2.267  15.054  18.307  0.00  0.00    +0.000 C 
ATOM     22  C   UNL     1       2.871  16.437  18.143  0.00  0.00    +0.000 C 
ATOM     23  C   UNL     1       3.006  17.082  19.527  0.00  0.00    +0.000 C 
BRANCH  16  25
ATOM     24  C   UNL     1      -0.817  16.887  19.163  0.00  0.00    +0.000 C 
ATOM     25  O   UNL     1      -0.121  15.919  18.392  0.00  0.00    +0.000 OA
ENDBRANCH  16  25
ENDBRANCH  14  16
ENDBRANCH   1  15
BRANCH   1  26
ATOM     26  C   UNL     1       0.921  10.132  18.278  0.00  0.00    +0.000 C 
ATOM     27  N   UNL     1       1.838   9.483  17.706  0.00  0.00    +0.000 NA
ENDBRANCH   1  26
TORSDOF 6
ENDMDL
MODEL 2
REMARK VINA RESULT:      -6.8      0.220      1.328
REMARK  Name = 
REMARK  7 active torsions:
REMARK  status: ('A' for Active; 'I' for Inactive)
REMARK    1  A    between atoms: C_1  and  O_2
REMARK    2  A    between atoms: O_2  and  C_3
REMARK    3  A    between atoms: C_3  and  C_4
REMARK    4  A    between atoms: C_5  and  C_6
REMARK    5  A    between atoms: C_6  and  C_7
REMARK    6  A    between atoms: C_6  and  C_9
REMARK    7  A    between atoms: C_6  and  C_15
REMARK                            x       y       z     vdW  Elec       q    Type
REMARK                         _______ _______ _______ _____ _____    ______ ____
ROOT
ATOM      1  C   UNL     1      -0.140  10.932  18.993  0.00  0.00    +0.000 C 
ENDROOT
BRANCH   1   2
ATOM      2  C   UNL     1      -0.222  10.467  20.478  0.00  0.00    +0.000 A 
ATOM      3  C   UNL     1       0.098   9.153  20.875  0.00  0.00    +0.000 A 
ATOM      4  C   UNL     1      -0.020   8.753  22.214  0.00  0.00    +0.000 A 
ATOM      5  C   UNL     1      -0.455   9.649  23.182  0.00  0.00    +0.000 A 
ATOM      6  C   UNL     1      -0.796  10.944  22.819  0.00  0.00    +0.000 A 
ATOM      7  C   UNL     1      -0.696  11.342  21.483  0.00  0.00    +0.000 A 
ENDBRANCH   1   2
BRANCH   1   8
ATOM      8  C   UNL     1      -1.507  10.854  18.239  0.00  0.00    +0.000 A 
ATOM      9  C   UNL     1      -2.596  11.673  18.584  0.00  0.00    +0.000 A 
ATOM     10  C   UNL     1      -3.824  11.550  17.923  0.00  0.00    +0.000 A 
ATOM     11  C   UNL     1      -3.989  10.629  16.890  0.00  0.00    +0.000 A 
ATOM     12  C   UNL     1      -2.922   9.832  16.503  0.00  0.00    +0.000 A 
ATOM     13  C   UNL     1      -1.697   9.949  17.160  0.00  0.00    +0.000 A 
ENDBRANCH   1   8
BRANCH   1  15
ATOM     14  C   UNL     1       0.649  13.643  18.998  0.00  0.00    +0.000 C 
ATOM     15  C   UNL     1       0.284  12.391  18.996  0.00  0.00    +0.000 C 
BRANCH  14  16
ATOM     16  C   UNL     1       1.072  15.103  19.002  0.00  0.00    +0.000 C 
ATOM     17  C   UNL     1       1.505  15.724  20.355  0.00  0.00    +0.000 C 
ATOM     18  N   UNL     1       2.965  16.069  20.415  0.00  0.00    +0.000 NA
ATOM     19  C   UNL     1       3.736  14.818  20.275  0.00  0.00    +0.000 C 
ATOM     20  C   UNL     1       3.453  14.140  18.928  0.00  0.00    +0.000 C 
ATOM     21  C   UNL     1       2.403  14.980  18.133  0.00  0.00    +0.000 C 
ATOM     22  C   UNL     1       3.042  16.340  17.920  0.00  0.00    +0.000 C 
ATOM     23  C   UNL     1       3.314  16.976  19.288  0.00  0.00    +0.000 C 
BRANCH  16  25
ATOM     24  C   UNL     1      -0.544  16.910  19.246  0.00  0.00    +0.000 C 
ATOM     25  O   UNL     1       0.064  15.932  18.414  0.00  0.00    +0.000 OA
ENDBRANCH  16  25
ENDBRANCH  14  16
ENDBRANCH   1  15
BRANCH   1  26
ATOM     26  C   UNL     1       0.917  10.098  18.286  0.00  0.00    +0.000 C 
ATOM     27  N   UNL     1       1.793   9.406  17.700  0.00  0.00    +0.000 NA
ENDBRANCH   1  26
TORSDOF 6
ENDMDL
MODEL 3
REMARK VINA RESULT:      -6.6      1.127      2.086
REMARK  Name = 
REMARK  7 active torsions:
REMARK  status: ('A' for Active; 'I' for Inactive)
REMARK    1  A    between atoms: C_1  and  O_2
REMARK    2  A    between atoms: O_2  and  C_3
REMARK    3  A    between atoms: C_3  and  C_4
REMARK    4  A    between atoms: C_5  and  C_6
REMARK    5  A    between atoms: C_6  and  C_7
REMARK    6  A    between atoms: C_6  and  C_9
REMARK    7  A    between atoms: C_6  and  C_15
REMARK                            x       y       z     vdW  Elec       q    Type
REMARK                         _______ _______ _______ _____ _____    ______ ____
ROOT
ATOM      1  C   UNL     1      -0.203  10.979  18.967  0.00  0.00    +0.000 C 
ENDROOT
BRANCH   1   2
ATOM      2  C   UNL     1      -0.298  10.502  20.447  0.00  0.00    +0.000 A 
ATOM      3  C   UNL     1      -0.743  11.347  21.484  0.00  0.00    +0.000 A 
ATOM      4  C   UNL     1      -0.783  10.900  22.813  0.00  0.00    +0.000 A 
ATOM      5  C   UNL     1      -0.385   9.609  23.136  0.00  0.00    +0.000 A 
ATOM      6  C   UNL     1       0.076   8.760  22.140  0.00  0.00    +0.000 A 
ATOM      7  C   UNL     1       0.134   9.207  20.816  0.00  0.00    +0.000 A 
ENDBRANCH   1   2
BRANCH   1   8
ATOM      8  C   UNL     1      -1.548  10.843  18.181  0.00  0.00    +0.000 A 
ATOM      9  C   UNL     1      -1.709   9.919  17.134  0.00  0.00    +0.000 A 
ATOM     10  C   UNL     1      -2.908   9.851  16.415  0.00  0.00    +0.000 A 
ATOM     11  C   UNL     1      -3.980  10.682  16.736  0.00  0.00    +0.000 A 
ATOM     12  C   UNL     1      -3.864  11.580  17.787  0.00  0.00    +0.000 A 
ATOM     13  C   UNL     1      -2.670  11.653  18.505  0.00  0.00    +0.000 A 
ENDBRANCH   1   8
BRANCH   1  15
ATOM     14  C   UNL     1       0.458  13.724  19.003  0.00  0.00    +0.000 C 
ATOM     15  C   UNL     1       0.153  12.456  18.987  0.00  0.00    +0.000 C 
BRANCH  14  16
ATOM     16  C   UNL     1       0.814  15.202  19.022  0.00  0.00    +0.000 C 
ATOM     17  C   UNL     1      -0.249  16.205  18.505  0.00  0.00    +0.000 C 
ATOM     18  N   UNL     1      -0.813  17.087  19.581  0.00  0.00    +0.000 NA
ATOM     19  C   UNL     1      -1.505  16.226  20.560  0.00  0.00    +0.000 C 
ATOM     20  C   UNL     1      -0.535  15.230  21.208  0.00  0.00    +0.000 C 
ATOM     21  C   UNL     1       0.890  15.422  20.599  0.00  0.00    +0.000 C 
ATOM     22  C   UNL     1       1.291  16.848  20.930  0.00  0.00    +0.000 C 
ATOM     23  C   UNL     1       0.292  17.806  20.271  0.00  0.00    +0.000 C 
BRANCH  16  25
ATOM     24  C   UNL     1       3.130  14.564  18.614  0.00  0.00    +0.000 C 
ATOM     25  O   UNL     1       2.048  15.442  18.336  0.00  0.00    +0.000 OA
ENDBRANCH  16  25
ENDBRANCH  14  16
ENDBRANCH   1  15
BRANCH   1  26
ATOM     26  C   UNL     1       0.907  10.199  18.281  0.00  0.00    +0.000 C 
ATOM     27  N   UNL     1       1.828   9.553  17.712  0.00  0.00    +0.000 NA
ENDBRANCH   1  26
TORSDOF 6
ENDMDL
MODEL 4
REMARK VINA RESULT:      -6.5      1.256      2.494
REMARK  Name = 
REMARK  7 active torsions:
REMARK  status: ('A' for Active; 'I' for Inactive)
REMARK    1  A    between atoms: C_1  and  O_2
REMARK    2  A    between atoms: O_2  and  C_3
REMARK    3  A    between atoms: C_3  and  C_4
REMARK    4  A    between atoms: C_5  and  C_6
REMARK    5  A    between atoms: C_6  and  C_7
REMARK    6  A    between atoms: C_6  and  C_9
REMARK    7  A    between atoms: C_6  and  C_15
REMARK                            x       y       z     vdW  Elec       q    Type
REMARK                         _______ _______ _______ _____ _____    ______ ____
ROOT
ATOM      1  C   UNL     1      -0.087  11.016  19.064  0.00  0.00    +0.000 C 
ENDROOT
BRANCH   1   2
ATOM      2  C   UNL     1      -0.156  10.468  20.521  0.00  0.00    +0.000 A 
ATOM      3  C   UNL     1       0.200   9.144  20.845  0.00  0.00    +0.000 A 
ATOM      4  C   UNL     1       0.093   8.668  22.161  0.00  0.00    +0.000 A 
ATOM      5  C   UNL     1      -0.366   9.497  23.176  0.00  0.00    +0.000 A 
ATOM      6  C   UNL     1      -0.743  10.801  22.884  0.00  0.00    +0.000 A 
ATOM      7  C   UNL     1      -0.654  11.274  21.571  0.00  0.00    +0.000 A 
ENDBRANCH   1   2
BRANCH   1   8
ATOM      8  C   UNL     1      -1.444  10.912  18.293  0.00  0.00    +0.000 A 
ATOM      9  C   UNL     1      -2.545  11.726  18.609  0.00  0.00    +0.000 A 
ATOM     10  C   UNL     1      -3.763  11.579  17.934  0.00  0.00    +0.000 A 
ATOM     11  C   UNL     1      -3.905  10.637  16.917  0.00  0.00    +0.000 A 
ATOM     12  C   UNL     1      -2.826   9.843  16.558  0.00  0.00    +0.000 A 
ATOM     13  C   UNL     1      -1.611   9.984  17.229  0.00  0.00    +0.000 A 
ENDBRANCH   1   8
BRANCH   1  15
ATOM     14  C   UNL     1       0.564  13.759  19.221  0.00  0.00    +0.000 C 
ATOM     15  C   UNL     1       0.263  12.492  19.149  0.00  0.00    +0.000 C 
BRANCH  14  16
ATOM     16  C   UNL     1       0.915  15.236  19.305  0.00  0.00    +0.000 C 
ATOM     17  C   UNL     1       0.009  16.235  18.540  0.00  0.00    +0.000 C 
ATOM     18  N   UNL     1      -0.786  17.133  19.442  0.00  0.00    +0.000 NA
ATOM     19  C   UNL     1      -1.695  16.288  20.241  0.00  0.00    +0.000 C 
ATOM     20  C   UNL     1      -0.911  15.298  21.112  0.00  0.00    +0.000 C 
ATOM     21  C   UNL     1       0.619  15.477  20.853  0.00  0.00    +0.000 C 
ATOM     22  C   UNL     1       0.940  16.906  21.252  0.00  0.00    +0.000 C 
ATOM     23  C   UNL     1       0.130  17.858  20.364  0.00  0.00    +0.000 C 
BRANCH  16  25
ATOM     24  C   UNL     1       2.524  16.452  17.938  0.00  0.00    +0.000 C 
ATOM     25  O   UNL     1       2.277  15.462  18.926  0.00  0.00    +0.000 OA
ENDBRANCH  16  25
ENDBRANCH  14  16
ENDBRANCH   1  15
BRANCH   1  26
ATOM     26  C   UNL     1       1.015  10.275  18.324  0.00  0.00    +0.000 C 
ATOM     27  N   UNL     1       1.930   9.662  17.710  0.00  0.00    +0.000 NA
ENDBRANCH   1  26
TORSDOF 6
ENDMDL
MODEL 5
REMARK VINA RESULT:      -6.4      3.166      4.937
REMARK  Name = 
REMARK  7 active torsions:
REMARK  status: ('A' for Active; 'I' for Inactive)
REMARK    1  A    between atoms: C_1  and  O_2
REMARK    2  A    between atoms: O_2  and  C_3
REMARK    3  A    between atoms: C_3  and  C_4
REMARK    4  A    between atoms: C_5  and  C_6
REMARK    5  A    between atoms: C_6  and  C_7
REMARK    6  A    between atoms: C_6  and  C_9
REMARK    7  A    between atoms: C_6  and  C_15
REMARK                            x       y       z     vdW  Elec       q    Type
REMARK                         _______ _______ _______ _____ _____    ______ ____
ROOT
ATOM      1  C   UNL     1      -0.620  11.395  19.375  0.00  0.00    +0.000 C 
ENDROOT
BRANCH   1   2
ATOM      2  C   UNL     1       0.032  10.108  19.964  0.00  0.00    +0.000 A 
ATOM      3  C   UNL     1      -0.373   9.553  21.194  0.00  0.00    +0.000 A 
ATOM      4  C   UNL     1       0.258   8.414  21.716  0.00  0.00    +0.000 A 
ATOM      5  C   UNL     1       1.299   7.806  21.026  0.00  0.00    +0.000 A 
ATOM      6  C   UNL     1       1.733   8.340  19.821  0.00  0.00    +0.000 A 
ATOM      7  C   UNL     1       1.119   9.485  19.306  0.00  0.00    +0.000 A 
ENDBRANCH   1   2
BRANCH   1   8
ATOM      8  C   UNL     1      -1.754  11.102  18.339  0.00  0.00    +0.000 A 
ATOM      9  C   UNL     1      -2.998  11.753  18.392  0.00  0.00    +0.000 A 
ATOM     10  C   UNL     1      -4.013  11.437  17.481  0.00  0.00    +0.000 A 
ATOM     11  C   UNL     1      -3.805  10.486  16.484  0.00  0.00    +0.000 A 
ATOM     12  C   UNL     1      -2.575   9.851  16.384  0.00  0.00    +0.000 A 
ATOM     13  C   UNL     1      -1.562  10.161  17.292  0.00  0.00    +0.000 A 
ENDBRANCH   1   8
BRANCH   1  15
ATOM     14  C   UNL     1      -1.804  12.800  21.520  0.00  0.00    +0.000 C 
ATOM     15  C   UNL     1      -1.257  12.151  20.529  0.00  0.00    +0.000 C 
BRANCH  14  16
ATOM     16  C   UNL     1      -2.442  13.557  22.674  0.00  0.00    +0.000 C 
ATOM     17  C   UNL     1      -3.007  14.971  22.382  0.00  0.00    +0.000 C 
ATOM     18  N   UNL     1      -4.503  15.048  22.478  0.00  0.00    +0.000 NA
ATOM     19  C   UNL     1      -5.073  14.159  21.446  0.00  0.00    +0.000 C 
ATOM     20  C   UNL     1      -4.647  12.702  21.672  0.00  0.00    +0.000 C 
ATOM     21  C   UNL     1      -3.709  12.622  22.917  0.00  0.00    +0.000 C 
ATOM     22  C   UNL     1      -4.536  13.121  24.088  0.00  0.00    +0.000 C 
ATOM     23  C   UNL     1      -4.946  14.573  23.817  0.00  0.00    +0.000 C 
BRANCH  16  25
ATOM     24  C   UNL     1      -1.223  14.933  24.274  0.00  0.00    +0.000 C 
ATOM     25  O   UNL     1      -1.549  13.637  23.790  0.00  0.00    +0.000 OA
ENDBRANCH  16  25
ENDBRANCH  14  16
ENDBRANCH   1  15
BRANCH   1  26
ATOM     26  C   UNL     1       0.474  12.248  18.754  0.00  0.00    +0.000 C 
ATOM     27  N   UNL     1       1.382  12.955  18.238  0.00  0.00    +0.000 NA
ENDBRANCH   1  26
TORSDOF 6
ENDMDL
MODEL 6
REMARK VINA RESULT:      -6.3      3.650      7.563
REMARK  Name = 
REMARK  7 active torsions:
REMARK  status: ('A' for Active; 'I' for Inactive)
REMARK    1  A    between atoms: C_1  and  O_2
REMARK    2  A    between atoms: O_2  and  C_3
REMARK    3  A    between atoms: C_3  and  C_4
REMARK    4  A    between atoms: C_5  and  C_6
REMARK    5  A    between atoms: C_6  and  C_7
REMARK    6  A    between atoms: C_6  and  C_9
REMARK    7  A    between atoms: C_6  and  C_15
REMARK                            x       y       z     vdW  Elec       q    Type
REMARK                         _______ _______ _______ _____ _____    ______ ____
ROOT
ATOM      1  C   UNL     1       0.666  10.320  19.177  0.00  0.00    +0.000 C 
ENDROOT
BRANCH   1   2
ATOM      2  C   UNL     1      -0.534  10.382  18.185  0.00  0.00    +0.000 A 
ATOM      3  C   UNL     1      -0.826   9.333  17.291  0.00  0.00    +0.000 A 
ATOM      4  C   UNL     1      -1.892   9.433  16.384  0.00  0.00    +0.000 A 
ATOM      5  C   UNL     1      -2.686  10.572  16.351  0.00  0.00    +0.000 A 
ATOM      6  C   UNL     1      -2.411  11.630  17.206  0.00  0.00    +0.000 A 
ATOM      7  C   UNL     1      -1.339  11.542  18.099  0.00  0.00    +0.000 A 
ENDBRANCH   1   2
BRANCH   1   8
ATOM      8  C   UNL     1       0.234  10.147  20.670  0.00  0.00    +0.000 A 
ATOM      9  C   UNL     1       0.293   8.905  21.324  0.00  0.00    +0.000 A 
ATOM     10  C   UNL     1      -0.145   8.768  22.647  0.00  0.00    +0.000 A 
ATOM     11  C   UNL     1      -0.628   9.867  23.354  0.00  0.00    +0.000 A 
ATOM     12  C   UNL     1      -0.666  11.114  22.748  0.00  0.00    +0.000 A 
ATOM     13  C   UNL     1      -0.233  11.255  21.429  0.00  0.00    +0.000 A 
ENDBRANCH   1   8
BRANCH   1  15
ATOM     14  C   UNL     1       2.211   8.056  18.497  0.00  0.00    +0.000 C 
ATOM     15  C   UNL     1       1.497   9.102  18.811  0.00  0.00    +0.000 C 
BRANCH  14  16
ATOM     16  C   UNL     1       3.041   6.837  18.130  0.00  0.00    +0.000 C 
ATOM     17  C   UNL     1       4.088   6.342  19.161  0.00  0.00    +0.000 C 
ATOM     18  N   UNL     1       3.750   5.009  19.763  0.00  0.00    +0.000 NA
ATOM     19  C   UNL     1       2.481   5.151  20.505  0.00  0.00    +0.000 C 
ATOM     20  C   UNL     1       1.336   5.566  19.572  0.00  0.00    +0.000 C 
ATOM     21  C   UNL     1       1.885   5.740  18.120  0.00  0.00    +0.000 C 
ATOM     22  C   UNL     1       2.430   4.380  17.722  0.00  0.00    +0.000 C 
ATOM     23  C   UNL     1       3.563   4.003  18.683  0.00  0.00    +0.000 C 
BRANCH  16  25
ATOM     24  C   UNL     1       5.091   6.803  16.812  0.00  0.00    +0.000 C 
ATOM     25  O   UNL     1       3.688   7.019  16.866  0.00  0.00    +0.000 OA
ENDBRANCH  16  25
ENDBRANCH  14  16
ENDBRANCH   1  15
BRANCH   1  26
ATOM     26  C   UNL     1       1.504  11.577  18.998  0.00  0.00    +0.000 C 
ATOM     27  N   UNL     1       2.198  12.619  18.849  0.00  0.00    +0.000 NA
ENDBRANCH   1  26
TORSDOF 6
ENDMDL
MODEL 7
REMARK VINA RESULT:      -6.3      2.466      6.640
REMARK  Name = 
REMARK  7 active torsions:
REMARK  status: ('A' for Active; 'I' for Inactive)
REMARK    1  A    between atoms: C_1  and  O_2
REMARK    2  A    between atoms: O_2  and  C_3
REMARK    3  A    between atoms: C_3  and  C_4
REMARK    4  A    between atoms: C_5  and  C_6
REMARK    5  A    between atoms: C_6  and  C_7
REMARK    6  A    between atoms: C_6  and  C_9
REMARK    7  A    between atoms: C_6  and  C_15
REMARK                            x       y       z     vdW  Elec       q    Type
REMARK                         _______ _______ _______ _____ _____    ______ ____
ROOT
ATOM      1  C   UNL     1      -0.082  10.920  19.096  0.00  0.00    +0.000 C 
ENDROOT
BRANCH   1   2
ATOM      2  C   UNL     1       0.428  12.385  18.946  0.00  0.00    +0.000 A 
ATOM      3  C   UNL     1       1.800  12.708  18.932  0.00  0.00    +0.000 A 
ATOM      4  C   UNL     1       2.228  14.040  18.832  0.00  0.00    +0.000 A 
ATOM      5  C   UNL     1       1.304  15.073  18.741  0.00  0.00    +0.000 A 
ATOM      6  C   UNL     1      -0.054  14.789  18.772  0.00  0.00    +0.000 A 
ATOM      7  C   UNL     1      -0.485  13.464  18.889  0.00  0.00    +0.000 A 
ENDBRANCH   1   2
BRANCH   1   8
ATOM      8  C   UNL     1      -0.137  10.428  20.579  0.00  0.00    +0.000 A 
ATOM      9  C   UNL     1      -0.886  11.100  21.560  0.00  0.00    +0.000 A 
ATOM     10  C   UNL     1      -0.881  10.665  22.891  0.00  0.00    +0.000 A 
ATOM     11  C   UNL     1      -0.151   9.540  23.269  0.00  0.00    +0.000 A 
ATOM     12  C   UNL     1       0.571   8.834  22.318  0.00  0.00    +0.000 A 
ATOM     13  C   UNL     1       0.570   9.266  20.991  0.00  0.00    +0.000 A 
ENDBRANCH   1   8
BRANCH   1  15
ATOM     14  C   UNL     1      -2.722  10.837  18.098  0.00  0.00    +0.000 C 
ATOM     15  C   UNL     1      -1.502  10.875  18.559  0.00  0.00    +0.000 C 
BRANCH  14  16
ATOM     16  C   UNL     1      -4.143  10.793  17.561  0.00  0.00    +0.000 C 
ATOM     17  C   UNL     1      -5.178   9.933  18.331  0.00  0.00    +0.000 C 
ATOM     18  N   UNL     1      -6.247  10.744  19.004  0.00  0.00    +0.000 NA
ATOM     19  C   UNL     1      -5.600  11.605  20.013  0.00  0.00    +0.000 C 
ATOM     20  C   UNL     1      -4.599  12.568  19.362  0.00  0.00    +0.000 C 
ATOM     21  C   UNL     1      -4.557  12.310  17.822  0.00  0.00    +0.000 C 
ATOM     22  C   UNL     1      -5.963  12.585  17.320  0.00  0.00    +0.000 C 
ATOM     23  C   UNL     1      -6.928  11.608  18.002  0.00  0.00    +0.000 C 
BRANCH  16  25
ATOM     24  C   UNL     1      -3.054  10.808  15.381  0.00  0.00    +0.000 C 
ATOM     25  O   UNL     1      -4.159  10.410  16.182  0.00  0.00    +0.000 OA
ENDBRANCH  16  25
ENDBRANCH  14  16
ENDBRANCH   1  15
BRANCH   1  26
ATOM     26  C   UNL     1       0.806  10.014  18.257  0.00  0.00    +0.000 C 
ATOM     27  N   UNL     1       1.542   9.264  17.561  0.00  0.00    +0.000 NA
ENDBRANCH   1  26
TORSDOF 6
ENDMDL
MODEL 8
REMARK VINA RESULT:      -6.2      1.463      2.083
REMARK  Name = 
REMARK  7 active torsions:
REMARK  status: ('A' for Active; 'I' for Inactive)
REMARK    1  A    between atoms: C_1  and  O_2
REMARK    2  A    between atoms: O_2  and  C_3
REMARK    3  A    between atoms: C_3  and  C_4
REMARK    4  A    between atoms: C_5  and  C_6
REMARK    5  A    between atoms: C_6  and  C_7
REMARK    6  A    between atoms: C_6  and  C_9
REMARK    7  A    between atoms: C_6  and  C_15
REMARK                            x       y       z     vdW  Elec       q    Type
REMARK                         _______ _______ _______ _____ _____    ______ ____
ROOT
ATOM      1  C   UNL     1      -0.288  11.303  19.221  0.00  0.00    +0.000 C 
ENDROOT
BRANCH   1   2
ATOM      2  C   UNL     1      -0.360  10.686  20.650  0.00  0.00    +0.000 A 
ATOM      3  C   UNL     1       0.025   9.357  20.917  0.00  0.00    +0.000 A 
ATOM      4  C   UNL     1      -0.085   8.818  22.207  0.00  0.00    +0.000 A 
ATOM      5  C   UNL     1      -0.576   9.588  23.254  0.00  0.00    +0.000 A 
ATOM      6  C   UNL     1      -0.982  10.894  23.018  0.00  0.00    +0.000 A 
ATOM      7  C   UNL     1      -0.890  11.430  21.730  0.00  0.00    +0.000 A 
ENDBRANCH   1   2
BRANCH   1   8
ATOM      8  C   UNL     1      -1.554  11.013  18.351  0.00  0.00    +0.000 A 
ATOM      9  C   UNL     1      -1.554  10.043  17.334  0.00  0.00    +0.000 A 
ATOM     10  C   UNL     1      -2.688   9.837  16.538  0.00  0.00    +0.000 A 
ATOM     11  C   UNL     1      -3.852  10.572  16.753  0.00  0.00    +0.000 A 
ATOM     12  C   UNL     1      -3.895  11.511  17.772  0.00  0.00    +0.000 A 
ATOM     13  C   UNL     1      -2.767  11.722  18.566  0.00  0.00    +0.000 A 
ENDBRANCH   1   8
BRANCH   1  15
ATOM     14  C   UNL     1      -0.113  14.106  19.516  0.00  0.00    +0.000 C 
ATOM     15  C   UNL     1      -0.193  12.811  19.380  0.00  0.00    +0.000 C 
BRANCH  14  16
ATOM     16  C   UNL     1      -0.018  15.614  19.677  0.00  0.00    +0.000 C 
ATOM     17  C   UNL     1      -1.219  16.345  20.331  0.00  0.00    +0.000 C 
ATOM     18  N   UNL     1      -0.903  16.926  21.679  0.00  0.00    +0.000 NA
ATOM     19  C   UNL     1      -0.558  15.814  22.586  0.00  0.00    +0.000 C 
ATOM     20  C   UNL     1       0.676  15.051  22.086  0.00  0.00    +0.000 C 
ATOM     21  C   UNL     1       1.165  15.680  20.743  0.00  0.00    +0.000 C 
ATOM     22  C   UNL     1       1.525  17.118  21.068  0.00  0.00    +0.000 C 
ATOM     23  C   UNL     1       0.268  17.837  21.571  0.00  0.00    +0.000 C 
BRANCH  16  25
ATOM     24  C   UNL     1      -0.622  17.237  17.962  0.00  0.00    +0.000 C 
ATOM     25  O   UNL     1       0.282  16.245  18.428  0.00  0.00    +0.000 OA
ENDBRANCH  16  25
ENDBRANCH  14  16
ENDBRANCH   1  15
BRANCH   1  26
ATOM     26  C   UNL     1       0.969  10.786  18.537  0.00  0.00    +0.000 C 
ATOM     27  N   UNL     1       2.010  10.358  17.970  0.00  0.00    +0.000 NA
ENDBRANCH   1  26
TORSDOF 6
ENDMDL
MODEL 9
REMARK VINA RESULT:      -6.2      3.564      5.498
REMARK  Name = 
REMARK  7 active torsions:
REMARK  status: ('A' for Active; 'I' for Inactive)
REMARK    1  A    between atoms: C_1  and  O_2
REMARK    2  A    between atoms: O_2  and  C_3
REMARK    3  A    between atoms: C_3  and  C_4
REMARK    4  A    between atoms: C_5  and  C_6
REMARK    5  A    between atoms: C_6  and  C_7
REMARK    6  A    between atoms: C_6  and  C_9
REMARK    7  A    between atoms: C_6  and  C_15
REMARK                            x       y       z     vdW  Elec       q    Type
REMARK                         _______ _______ _______ _____ _____    ______ ____
ROOT
ATOM      1  C   UNL     1      -1.420  11.605  19.106  0.00  0.00    +0.000 C 
ENDROOT
BRANCH   1   2
ATOM      2  C   UNL     1      -0.543  10.485  19.743  0.00  0.00    +0.000 A 
ATOM      3  C   UNL     1      -0.784   9.986  21.039  0.00  0.00    +0.000 A 
ATOM      4  C   UNL     1       0.045   9.003  21.599  0.00  0.00    +0.000 A 
ATOM      5  C   UNL     1       1.124   8.498  20.885  0.00  0.00    +0.000 A 
ATOM      6  C   UNL     1       1.398   8.984  19.615  0.00  0.00    +0.000 A 
ATOM      7  C   UNL     1       0.585   9.976  19.058  0.00  0.00    +0.000 A 
ENDBRANCH   1   2
BRANCH   1   8
ATOM      8  C   UNL     1      -2.269  11.115  17.887  0.00  0.00    +0.000 A 
ATOM      9  C   UNL     1      -1.799  10.131  17.000  0.00  0.00    +0.000 A 
ATOM     10  C   UNL     1      -2.559   9.745  15.889  0.00  0.00    +0.000 A 
ATOM     11  C   UNL     1      -3.810  10.310  15.651  0.00  0.00    +0.000 A 
ATOM     12  C   UNL     1      -4.317  11.258  16.528  0.00  0.00    +0.000 A 
ATOM     13  C   UNL     1      -3.561  11.648  17.635  0.00  0.00    +0.000 A 
ENDBRANCH   1   8
BRANCH   1  15
ATOM     14  C   UNL     1      -3.240  12.480  21.080  0.00  0.00    +0.000 C 
ATOM     15  C   UNL     1      -2.399  12.076  20.168  0.00  0.00    +0.000 C 
BRANCH  14  16
ATOM     16  C   UNL     1      -4.219  12.951  22.144  0.00  0.00    +0.000 C 
ATOM     17  C   UNL     1      -4.222  14.460  22.501  0.00  0.00    +0.000 C 
ATOM     18  N   UNL     1      -5.478  15.169  22.086  0.00  0.00    +0.000 NA
ATOM     19  C   UNL     1      -5.578  15.098  20.615  0.00  0.00    +0.000 C 
ATOM     20  C   UNL     1      -5.662  13.644  20.134  0.00  0.00    +0.000 C 
ATOM     21  C   UNL     1      -5.583  12.685  21.364  0.00  0.00    +0.000 C 
ATOM     22  C   UNL     1      -6.781  13.028  22.231  0.00  0.00    +0.000 C 
ATOM     23  C   UNL     1      -6.660  14.489  22.681  0.00  0.00    +0.000 C 
BRANCH  16  25
ATOM     24  C   UNL     1      -3.891  12.913  24.558  0.00  0.00    +0.000 C 
ATOM     25  O   UNL     1      -4.073  12.191  23.348  0.00  0.00    +0.000 OA
ENDBRANCH  16  25
ENDBRANCH  14  16
ENDBRANCH   1  15
BRANCH   1  26
ATOM     26  C   UNL     1      -0.513  12.758  18.707  0.00  0.00    +0.000 C 
ATOM     27  N   UNL     1       0.239  13.714  18.376  0.00  0.00    +0.000 NA
ENDBRANCH   1  26
TORSDOF 6
ENDMDL
