MODEL 1
REMARK VINA RESULT:      -5.3      0.000      0.000
REMARK  Name = 
REMARK  3 active torsions:
REMARK  status: ('A' for Active; 'I' for Inactive)
REMARK    1  A    between atoms: C_1  and  C_2
REMARK    2  A    between atoms: C_5  and  C_6
REMARK    3  A    between atoms: N_7  and  C_8
REMARK                            x       y       z     vdW  Elec       q    Type
REMARK                         _______ _______ _______ _____ _____    ______ ____
ROOT
ATOM      1  C   UNL     1       1.322   2.789  21.358  0.00  0.00    +0.000 C 
ATOM      2  C   UNL     1       2.374   3.514  20.574  0.00  0.00    +0.000 A 
ATOM      3  C   UNL     1       3.402   2.819  19.929  0.00  0.00    +0.000 A 
ATOM      4  C   UNL     1       4.379   3.511  19.208  0.00  0.00    +0.000 A 
ATOM      5  C   UNL     1       4.328   4.906  19.111  0.00  0.00    +0.000 A 
ATOM      6  C   UNL     1       3.313   5.605  19.763  0.00  0.00    +0.000 A 
ATOM      7  C   UNL     1       2.340   4.912  20.489  0.00  0.00    +0.000 A 
ENDROOT
BRANCH   5   8
ATOM      8  C   UNL     1       5.410   5.552  18.357  0.00  0.00    +0.000 C 
ATOM      9  N   UNL     1       6.639   5.740  18.780  0.00  0.00    +0.000 N 
ATOM     10  C   UNL     1       7.641   6.405  17.926  0.00  0.00    +0.000 C 
ATOM     11  O   UNL     1       7.026   5.393  19.944  0.00  0.00    +0.000 OA
ENDBRANCH   5   8
TORSDOF 1
ENDMDL
MODEL 2
REMARK VINA RESULT:      -5.3      1.610      1.625
REMARK  Name = 
REMARK  3 active torsions:
REMARK  status: ('A' for Active; 'I' for Inactive)
REMARK    1  A    between atoms: C_1  and  C_2
REMARK    2  A    between atoms: C_5  and  C_6
REMARK    3  A    between atoms: N_7  and  C_8
REMARK                            x       y       z     vdW  Elec       q    Type
REMARK                         _______ _______ _______ _____ _____    ______ ____
ROOT
ATOM      1  C   UNL     1       0.673   2.379  18.709  0.00  0.00    +0.000 C 
ATOM      2  C   UNL     1       1.843   3.273  18.424  0.00  0.00    +0.000 A 
ATOM      3  C   UNL     1       2.887   2.853  17.593  0.00  0.00    +0.000 A 
ATOM      4  C   UNL     1       3.973   3.696  17.342  0.00  0.00    +0.000 A 
ATOM      5  C   UNL     1       4.018   4.975  17.908  0.00  0.00    +0.000 A 
ATOM      6  C   UNL     1       2.986   5.394  18.748  0.00  0.00    +0.000 A 
ATOM      7  C   UNL     1       1.904   4.547  19.002  0.00  0.00    +0.000 A 
ENDROOT
BRANCH   5   8
ATOM      8  C   UNL     1       5.210   5.782  17.613  0.00  0.00    +0.000 C 
ATOM      9  N   UNL     1       6.325   5.792  18.307  0.00  0.00    +0.000 N 
ATOM     10  C   UNL     1       7.457   6.650  17.909  0.00  0.00    +0.000 C 
ATOM     11  O   UNL     1       6.483   5.096  19.363  0.00  0.00    +0.000 OA
ENDBRANCH   5   8
TORSDOF 1
ENDMDL
MODEL 3
REMARK VINA RESULT:      -5.3      1.615      2.167
REMARK  Name = 
REMARK  3 active torsions:
REMARK  status: ('A' for Active; 'I' for Inactive)
REMARK    1  A    between atoms: C_1  and  C_2
REMARK    2  A    between atoms: C_5  and  C_6
REMARK    3  A    between atoms: N_7  and  C_8
REMARK                            x       y       z     vdW  Elec       q    Type
REMARK                         _______ _______ _______ _____ _____    ______ ____
ROOT
ATOM      1  C   UNL     1       0.659   2.375  18.734  0.00  0.00    +0.000 C 
ATOM      2  C   UNL     1       1.866   3.210  18.429  0.00  0.00    +0.000 A 
ATOM      3  C   UNL     1       1.934   4.552  18.820  0.00  0.00    +0.000 A 
ATOM      4  C   UNL     1       3.064   5.319  18.522  0.00  0.00    +0.000 A 
ATOM      5  C   UNL     1       4.145   4.746  17.843  0.00  0.00    +0.000 A 
ATOM      6  C   UNL     1       4.077   3.413  17.438  0.00  0.00    +0.000 A 
ATOM      7  C   UNL     1       2.945   2.650  17.732  0.00  0.00    +0.000 A 
ENDROOT
BRANCH   5   8
ATOM      8  C   UNL     1       5.279   5.632  17.547  0.00  0.00    +0.000 C 
ATOM      9  N   UNL     1       6.370   5.755  18.268  0.00  0.00    +0.000 N 
ATOM     10  C   UNL     1       7.443   6.684  17.865  0.00  0.00    +0.000 C 
ATOM     11  O   UNL     1       6.552   5.113  19.354  0.00  0.00    +0.000 OA
ENDBRANCH   5   8
TORSDOF 1
ENDMDL
MODEL 4
REMARK VINA RESULT:      -5.2      2.627      2.699
REMARK  Name = 
REMARK  3 active torsions:
REMARK  status: ('A' for Active; 'I' for Inactive)
REMARK    1  A    between atoms: C_1  and  C_2
REMARK    2  A    between atoms: C_5  and  C_6
REMARK    3  A    between atoms: N_7  and  C_8
REMARK                            x       y       z     vdW  Elec       q    Type
REMARK                         _______ _______ _______ _____ _____    ______ ____
ROOT
ATOM      1  C   UNL     1       0.977   3.858  20.401  0.00  0.00    +0.000 C 
ATOM      2  C   UNL     1       2.070   3.888  19.375  0.00  0.00    +0.000 A 
ATOM      3  C   UNL     1       1.807   3.603  18.031  0.00  0.00    +0.000 A 
ATOM      4  C   UNL     1       2.838   3.629  17.088  0.00  0.00    +0.000 A 
ATOM      5  C   UNL     1       4.141   3.957  17.479  0.00  0.00    +0.000 A 
ATOM      6  C   UNL     1       4.412   4.228  18.819  0.00  0.00    +0.000 A 
ATOM      7  C   UNL     1       3.381   4.196  19.761  0.00  0.00    +0.000 A 
ENDROOT
BRANCH   5   8
ATOM      8  C   UNL     1       5.167   3.933  16.427  0.00  0.00    +0.000 C 
ATOM      9  N   UNL     1       5.564   4.961  15.713  0.00  0.00    +0.000 N 
ATOM     10  C   UNL     1       6.607   4.809  14.681  0.00  0.00    +0.000 C 
ATOM     11  O   UNL     1       5.060   6.124  15.845  0.00  0.00    +0.000 OA
ENDBRANCH   5   8
TORSDOF 1
ENDMDL
MODEL 5
REMARK VINA RESULT:      -5.2      2.557      2.674
REMARK  Name = 
REMARK  3 active torsions:
REMARK  status: ('A' for Active; 'I' for Inactive)
REMARK    1  A    between atoms: C_1  and  C_2
REMARK    2  A    between atoms: C_5  and  C_6
REMARK    3  A    between atoms: N_7  and  C_8
REMARK                            x       y       z     vdW  Elec       q    Type
REMARK                         _______ _______ _______ _____ _____    ______ ____
ROOT
ATOM      1  C   UNL     1       1.025   3.651  20.514  0.00  0.00    +0.000 C 
ATOM      2  C   UNL     1       2.080   3.692  19.450  0.00  0.00    +0.000 A 
ATOM      3  C   UNL     1       3.424   3.906  19.774  0.00  0.00    +0.000 A 
ATOM      4  C   UNL     1       4.395   3.948  18.770  0.00  0.00    +0.000 A 
ATOM      5  C   UNL     1       4.033   3.761  17.431  0.00  0.00    +0.000 A 
ATOM      6  C   UNL     1       2.693   3.561  17.101  0.00  0.00    +0.000 A 
ATOM      7  C   UNL     1       1.723   3.525  18.106  0.00  0.00    +0.000 A 
ENDROOT
BRANCH   5   8
ATOM      8  C   UNL     1       5.114   3.849  16.439  0.00  0.00    +0.000 C 
ATOM      9  N   UNL     1       5.510   4.941  15.827  0.00  0.00    +0.000 N 
ATOM     10  C   UNL     1       6.612   4.901  14.846  0.00  0.00    +0.000 C 
ATOM     11  O   UNL     1       4.959   6.074  16.016  0.00  0.00    +0.000 OA
ENDBRANCH   5   8
TORSDOF 1
ENDMDL
MODEL 6
REMARK VINA RESULT:      -5.2      2.032      2.506
REMARK  Name = 
REMARK  3 active torsions:
REMARK  status: ('A' for Active; 'I' for Inactive)
REMARK    1  A    between atoms: C_1  and  C_2
REMARK    2  A    between atoms: C_5  and  C_6
REMARK    3  A    between atoms: N_7  and  C_8
REMARK                            x       y       z     vdW  Elec       q    Type
REMARK                         _______ _______ _______ _____ _____    ______ ____
ROOT
ATOM      1  C   UNL     1       0.893   3.128  20.627  0.00  0.00    +0.000 C 
ATOM      2  C   UNL     1       1.899   3.363  19.540  0.00  0.00    +0.000 A 
ATOM      3  C   UNL     1       2.165   4.653  19.068  0.00  0.00    +0.000 A 
ATOM      4  C   UNL     1       3.100   4.854  18.050  0.00  0.00    +0.000 A 
ATOM      5  C   UNL     1       3.792   3.767  17.503  0.00  0.00    +0.000 A 
ATOM      6  C   UNL     1       3.520   2.478  17.959  0.00  0.00    +0.000 A 
ATOM      7  C   UNL     1       2.581   2.278  18.974  0.00  0.00    +0.000 A 
ENDROOT
BRANCH   5   8
ATOM      8  C   UNL     1       4.735   4.068  16.418  0.00  0.00    +0.000 C 
ATOM      9  N   UNL     1       6.009   4.356  16.562  0.00  0.00    +0.000 N 
ATOM     10  C   UNL     1       6.857   4.641  15.389  0.00  0.00    +0.000 C 
ATOM     11  O   UNL     1       6.571   4.436  17.703  0.00  0.00    +0.000 OA
ENDBRANCH   5   8
TORSDOF 1
ENDMDL
MODEL 7
REMARK VINA RESULT:      -5.2      2.237      2.253
REMARK  Name = 
REMARK  3 active torsions:
REMARK  status: ('A' for Active; 'I' for Inactive)
REMARK    1  A    between atoms: C_1  and  C_2
REMARK    2  A    between atoms: C_5  and  C_6
REMARK    3  A    between atoms: N_7  and  C_8
REMARK                            x       y       z     vdW  Elec       q    Type
REMARK                         _______ _______ _______ _____ _____    ______ ____
ROOT
ATOM      1  C   UNL     1       1.320   2.712  21.605  0.00  0.00    +0.000 C 
ATOM      2  C   UNL     1       2.065   3.049  20.348  0.00  0.00    +0.000 A 
ATOM      3  C   UNL     1       3.433   2.783  20.226  0.00  0.00    +0.000 A 
ATOM      4  C   UNL     1       4.115   3.110  19.051  0.00  0.00    +0.000 A 
ATOM      5  C   UNL     1       3.430   3.693  17.978  0.00  0.00    +0.000 A 
ATOM      6  C   UNL     1       2.069   3.974  18.099  0.00  0.00    +0.000 A 
ATOM      7  C   UNL     1       1.391   3.651  19.278  0.00  0.00    +0.000 A 
ENDROOT
BRANCH   5   8
ATOM      8  C   UNL     1       4.230   4.029  16.793  0.00  0.00    +0.000 C 
ATOM      9  N   UNL     1       4.772   5.198  16.534  0.00  0.00    +0.000 N 
ATOM     10  C   UNL     1       5.557   5.412  15.304  0.00  0.00    +0.000 C 
ATOM     11  O   UNL     1       4.629   6.206  17.301  0.00  0.00    +0.000 OA
ENDBRANCH   5   8
TORSDOF 1
ENDMDL
MODEL 8
REMARK VINA RESULT:      -5.1      2.159      2.456
REMARK  Name = 
REMARK  3 active torsions:
REMARK  status: ('A' for Active; 'I' for Inactive)
REMARK    1  A    between atoms: C_1  and  C_2
REMARK    2  A    between atoms: C_5  and  C_6
REMARK    3  A    between atoms: N_7  and  C_8
REMARK                            x       y       z     vdW  Elec       q    Type
REMARK                         _______ _______ _______ _____ _____    ______ ____
ROOT
ATOM      1  C   UNL     1       1.346   2.739  21.536  0.00  0.00    +0.000 C 
ATOM      2  C   UNL     1       2.114   3.097  20.300  0.00  0.00    +0.000 A 
ATOM      3  C   UNL     1       1.502   3.775  19.240  0.00  0.00    +0.000 A 
ATOM      4  C   UNL     1       2.231   4.096  18.091  0.00  0.00    +0.000 A 
ATOM      5  C   UNL     1       3.585   3.756  17.998  0.00  0.00    +0.000 A 
ATOM      6  C   UNL     1       4.197   3.067  19.045  0.00  0.00    +0.000 A 
ATOM      7  C   UNL     1       3.465   2.743  20.191  0.00  0.00    +0.000 A 
ENDROOT
BRANCH   5   8
ATOM      8  C   UNL     1       4.266   4.106  16.744  0.00  0.00    +0.000 C 
ATOM      9  N   UNL     1       4.939   5.211  16.515  0.00  0.00    +0.000 N 
ATOM     10  C   UNL     1       5.581   5.449  15.208  0.00  0.00    +0.000 C 
ATOM     11  O   UNL     1       5.052   6.139  17.381  0.00  0.00    +0.000 OA
ENDBRANCH   5   8
TORSDOF 1
ENDMDL
MODEL 9
REMARK VINA RESULT:      -5.1      2.946      5.287
REMARK  Name = 
REMARK  3 active torsions:
REMARK  status: ('A' for Active; 'I' for Inactive)
REMARK    1  A    between atoms: C_1  and  C_2
REMARK    2  A    between atoms: C_5  and  C_6
REMARK    3  A    between atoms: N_7  and  C_8
REMARK                            x       y       z     vdW  Elec       q    Type
REMARK                         _______ _______ _______ _____ _____    ______ ____
ROOT
ATOM      1  C   UNL     1       7.935   8.271  17.663  0.00  0.00    +0.000 C 
ATOM      2  C   UNL     1       7.060   7.060  17.544  0.00  0.00    +0.000 A 
ATOM      3  C   UNL     1       5.782   7.144  16.981  0.00  0.00    +0.000 A 
ATOM      4  C   UNL     1       4.977   6.006  16.884  0.00  0.00    +0.000 A 
ATOM      5  C   UNL     1       5.449   4.768  17.332  0.00  0.00    +0.000 A 
ATOM      6  C   UNL     1       6.717   4.680  17.906  0.00  0.00    +0.000 A 
ATOM      7  C   UNL     1       7.518   5.820  18.009  0.00  0.00    +0.000 A 
ENDROOT
BRANCH   5   8
ATOM      8  C   UNL     1       4.525   3.631  17.216  0.00  0.00    +0.000 C 
ATOM      9  N   UNL     1       3.766   3.153  18.176  0.00  0.00    +0.000 N 
ATOM     10  C   UNL     1       2.876   2.002  17.935  0.00  0.00    +0.000 C 
ATOM     11  O   UNL     1       3.775   3.627  19.359  0.00  0.00    +0.000 OA
ENDBRANCH   5   8
TORSDOF 1
ENDMDL
