MODEL 1
REMARK VINA RESULT:      -9.0      0.000      0.000
REMARK  Name = 
REMARK  7 active torsions:
REMARK  status: ('A' for Active; 'I' for Inactive)
REMARK    1  A    between atoms: C_1  and  O_2
REMARK    2  A    between atoms: O_2  and  C_3
REMARK    3  A    between atoms: C_7  and  N_8
REMARK    4  A    between atoms: C_13  and  C_14
REMARK    5  A    between atoms: C_20  and  O_21
REMARK    6  A    between atoms: O_21  and  C_22
REMARK    7  A    between atoms: C_25  and  C_26
REMARK                            x       y       z     vdW  Elec       q    Type
REMARK                         _______ _______ _______ _____ _____    ______ ____
ROOT
ATOM      1  C   UNL     1       4.597   3.857  18.226  0.00  0.00    +0.000 C 
ATOM      2  O   UNL     1       4.323   3.338  17.138  0.00  0.00    +0.000 OA
ATOM      3  N   UNL     1       5.794   4.546  18.386  0.00  0.00    +0.000 N 
ATOM      4  C   UNL     1       6.271   5.433  19.446  0.00  0.00    +0.000 C 
ATOM      5  C   UNL     1       7.606   5.948  18.859  0.00  0.00    +0.000 C 
ATOM      6  C   UNL     1       7.323   6.874  17.650  0.00  0.00    +0.000 C 
ATOM      7  C   UNL     1       6.749   5.909  16.581  0.00  0.00    +0.000 C 
ATOM      8  C   UNL     1       6.827   4.549  17.326  0.00  0.00    +0.000 C 
ATOM      9  C   UNL     1       8.112   4.697  18.152  0.00  0.00    +0.000 C 
ENDROOT
BRANCH   1  15
ATOM     10  C   UNL     1       3.509   2.514  20.114  0.00  0.00    +0.000 A 
ATOM     11  C   UNL     1       2.702   2.473  21.270  0.00  0.00    +0.000 A 
ATOM     12  C   UNL     1       2.065   3.607  21.744  0.00  0.00    +0.000 A 
ATOM     13  C   UNL     1       2.163   4.781  21.020  0.00  0.00    +0.000 A 
ATOM     14  C   UNL     1       2.859   4.816  19.785  0.00  0.00    +0.000 A 
ATOM     15  C   UNL     1       3.567   3.678  19.312  0.00  0.00    +0.000 A 
BRANCH  14  16
ATOM     16  N   UNL     1       2.765   6.035  19.062  0.00  0.00    +0.000 N 
ATOM     17  N   UNL     1       2.684   6.090  17.703  0.00  0.00    +0.000 NA
ATOM     18  C   UNL     1       2.418   7.382  17.488  0.00  0.00    +0.000 A 
ATOM     19  C   UNL     1       2.282   8.056  18.699  0.00  0.00    +0.000 A 
ATOM     20  N   UNL     1       2.451   7.204  19.708  0.00  0.00    +0.000 NA
ENDBRANCH  14  16
BRANCH  10  22
ATOM     21  C   UNL     1       5.191   0.950  20.741  0.00  0.00    +0.000 C 
ATOM     22  O   UNL     1       4.268   1.429  19.770  0.00  0.00    +0.000 OA
ENDBRANCH  10  22
ENDBRANCH   1  15
BRANCH   7  23
ATOM     23  O   UNL     1       7.565   5.902  15.398  0.00  0.00    +0.000 OA
BRANCH  23  24
ATOM     24  C   UNL     1       7.037   5.101  14.398  0.00  0.00    +0.000 A 
ATOM     25  C   UNL     1       7.731   5.031  13.200  0.00  0.00    +0.000 A 
ATOM     26  C   UNL     1       7.269   4.150  12.218  0.00  0.00    +0.000 A 
ATOM     27  C   UNL     1       6.123   3.385  12.454  0.00  0.00    +0.000 A 
ATOM     28  C   UNL     1       5.464   3.586  13.660  0.00  0.00    +0.000 A 
ATOM     29  N   UNL     1       5.890   4.428  14.627  0.00  0.00    +0.000 NA
BRANCH  27  30
ATOM     30  C   UNL     1       5.598   2.364  11.498  0.00  0.00    +0.000 C 
ATOM     31  F   UNL     1       4.332   2.619  11.059  0.00  0.00    +0.000 F 
ATOM     32  F   UNL     1       6.363   2.268  10.371  0.00  0.00    +0.000 F 
ATOM     33  F   UNL     1       5.567   1.110  12.025  0.00  0.00    +0.000 F 
ENDBRANCH  27  30
ENDBRANCH  23  24
ENDBRANCH   7  23
TORSDOF 6
ENDMDL
MODEL 2
REMARK VINA RESULT:      -8.6      0.643      1.037
REMARK  Name = 
REMARK  7 active torsions:
REMARK  status: ('A' for Active; 'I' for Inactive)
REMARK    1  A    between atoms: C_1  and  O_2
REMARK    2  A    between atoms: O_2  and  C_3
REMARK    3  A    between atoms: C_7  and  N_8
REMARK    4  A    between atoms: C_13  and  C_14
REMARK    5  A    between atoms: C_20  and  O_21
REMARK    6  A    between atoms: O_21  and  C_22
REMARK    7  A    between atoms: C_25  and  C_26
REMARK                            x       y       z     vdW  Elec       q    Type
REMARK                         _______ _______ _______ _____ _____    ______ ____
ROOT
ATOM      1  C   UNL     1       4.526   3.904  18.338  0.00  0.00    +0.000 C 
ATOM      2  O   UNL     1       4.192   3.421  17.252  0.00  0.00    +0.000 OA
ATOM      3  N   UNL     1       5.756   4.539  18.468  0.00  0.00    +0.000 N 
ATOM      4  C   UNL     1       6.308   5.384  19.527  0.00  0.00    +0.000 C 
ATOM      5  C   UNL     1       7.642   5.854  18.902  0.00  0.00    +0.000 C 
ATOM      6  C   UNL     1       7.357   6.816  17.722  0.00  0.00    +0.000 C 
ATOM      7  C   UNL     1       6.704   5.898  16.656  0.00  0.00    +0.000 C 
ATOM      8  C   UNL     1       6.751   4.522  17.371  0.00  0.00    +0.000 C 
ATOM      9  C   UNL     1       8.069   4.598  18.154  0.00  0.00    +0.000 C 
ENDROOT
BRANCH   1  15
ATOM     10  C   UNL     1       3.510   2.609  20.299  0.00  0.00    +0.000 A 
ATOM     11  C   UNL     1       2.736   2.595  21.477  0.00  0.00    +0.000 A 
ATOM     12  C   UNL     1       2.094   3.734  21.931  0.00  0.00    +0.000 A 
ATOM     13  C   UNL     1       2.153   4.885  21.165  0.00  0.00    +0.000 A 
ATOM     14  C   UNL     1       2.816   4.889  19.911  0.00  0.00    +0.000 A 
ATOM     15  C   UNL     1       3.529   3.746  19.457  0.00  0.00    +0.000 A 
BRANCH  14  16
ATOM     16  N   UNL     1       2.683   6.081  19.151  0.00  0.00    +0.000 N 
ATOM     17  N   UNL     1       2.458   6.086  17.808  0.00  0.00    +0.000 NA
ATOM     18  C   UNL     1       2.210   7.378  17.567  0.00  0.00    +0.000 A 
ATOM     19  C   UNL     1       2.227   8.102  18.756  0.00  0.00    +0.000 A 
ATOM     20  N   UNL     1       2.476   7.286  19.777  0.00  0.00    +0.000 NA
ENDBRANCH  14  16
BRANCH  10  22
ATOM     21  C   UNL     1       5.267   1.124  20.910  0.00  0.00    +0.000 C 
ATOM     22  O   UNL     1       4.278   1.526  19.971  0.00  0.00    +0.000 OA
ENDBRANCH  10  22
ENDBRANCH   1  15
BRANCH   7  23
ATOM     23  O   UNL     1       7.476   5.882  15.444  0.00  0.00    +0.000 OA
BRANCH  23  24
ATOM     24  C   UNL     1       6.890   5.108  14.456  0.00  0.00    +0.000 A 
ATOM     25  C   UNL     1       5.704   4.461  14.768  0.00  0.00    +0.000 A 
ATOM     26  C   UNL     1       5.046   3.760  13.754  0.00  0.00    +0.000 A 
ATOM     27  C   UNL     1       5.600   3.710  12.471  0.00  0.00    +0.000 A 
ATOM     28  C   UNL     1       6.827   4.332  12.285  0.00  0.00    +0.000 A 
ATOM     29  N   UNL     1       7.483   5.020  13.247  0.00  0.00    +0.000 NA
BRANCH  27  30
ATOM     30  C   UNL     1       4.934   3.051  11.308  0.00  0.00    +0.000 C 
ATOM     31  F   UNL     1       4.894   3.823  10.184  0.00  0.00    +0.000 F 
ATOM     32  F   UNL     1       5.563   1.898  10.935  0.00  0.00    +0.000 F 
ATOM     33  F   UNL     1       3.646   2.697  11.564  0.00  0.00    +0.000 F 
ENDBRANCH  27  30
ENDBRANCH  23  24
ENDBRANCH   7  23
TORSDOF 6
ENDMDL
MODEL 3
REMARK VINA RESULT:      -8.4      1.434      3.247
REMARK  Name = 
REMARK  7 active torsions:
REMARK  status: ('A' for Active; 'I' for Inactive)
REMARK    1  A    between atoms: C_1  and  O_2
REMARK    2  A    between atoms: O_2  and  C_3
REMARK    3  A    between atoms: C_7  and  N_8
REMARK    4  A    between atoms: C_13  and  C_14
REMARK    5  A    between atoms: C_20  and  O_21
REMARK    6  A    between atoms: O_21  and  C_22
REMARK    7  A    between atoms: C_25  and  C_26
REMARK                            x       y       z     vdW  Elec       q    Type
REMARK                         _______ _______ _______ _____ _____    ______ ____
ROOT
ATOM      1  C   UNL     1       4.411   4.096  18.089  0.00  0.00    +0.000 C 
ATOM      2  O   UNL     1       4.161   3.515  17.028  0.00  0.00    +0.000 OA
ATOM      3  N   UNL     1       5.643   4.716  18.269  0.00  0.00    +0.000 N 
ATOM      4  C   UNL     1       6.123   5.649  19.288  0.00  0.00    +0.000 C 
ATOM      5  C   UNL     1       7.520   6.029  18.746  0.00  0.00    +0.000 C 
ATOM      6  C   UNL     1       7.368   6.876  17.457  0.00  0.00    +0.000 C 
ATOM      7  C   UNL     1       6.787   5.871  16.429  0.00  0.00    +0.000 C 
ATOM      8  C   UNL     1       6.730   4.571  17.275  0.00  0.00    +0.000 C 
ATOM      9  C   UNL     1       7.975   4.698  18.163  0.00  0.00    +0.000 C 
ENDROOT
BRANCH   1  15
ATOM     10  C   UNL     1       2.218   4.962  19.085  0.00  0.00    +0.000 A 
ATOM     11  C   UNL     1       1.094   4.761  19.912  0.00  0.00    +0.000 A 
ATOM     12  C   UNL     1       0.953   3.611  20.670  0.00  0.00    +0.000 A 
ATOM     13  C   UNL     1       1.978   2.682  20.671  0.00  0.00    +0.000 A 
ATOM     14  C   UNL     1       3.176   2.922  19.951  0.00  0.00    +0.000 A 
ATOM     15  C   UNL     1       3.314   4.069  19.122  0.00  0.00    +0.000 A 
BRANCH  14  16
ATOM     16  N   UNL     1       4.211   1.970  20.147  0.00  0.00    +0.000 N 
ATOM     17  N   UNL     1       4.936   1.885  21.297  0.00  0.00    +0.000 NA
ATOM     18  C   UNL     1       5.630   0.757  21.111  0.00  0.00    +0.000 A 
ATOM     19  C   UNL     1       5.270   0.161  19.906  0.00  0.00    +0.000 A 
ATOM     20  N   UNL     1       4.334   0.892  19.305  0.00  0.00    +0.000 NA
ENDBRANCH  14  16
BRANCH  10  22
ATOM     21  C   UNL     1       2.553   7.296  18.755  0.00  0.00    +0.000 C 
ATOM     22  O   UNL     1       2.248   6.016  18.214  0.00  0.00    +0.000 OA
ENDBRANCH  10  22
ENDBRANCH   1  15
BRANCH   7  23
ATOM     23  O   UNL     1       7.663   5.721  15.300  0.00  0.00    +0.000 OA
BRANCH  23  24
ATOM     24  C   UNL     1       7.104   4.943  14.299  0.00  0.00    +0.000 A 
ATOM     25  C   UNL     1       7.738   4.934  13.066  0.00  0.00    +0.000 A 
ATOM     26  C   UNL     1       7.248   4.077  12.076  0.00  0.00    +0.000 A 
ATOM     27  C   UNL     1       6.134   3.275  12.341  0.00  0.00    +0.000 A 
ATOM     28  C   UNL     1       5.532   3.415  13.585  0.00  0.00    +0.000 A 
ATOM     29  N   UNL     1       5.987   4.233  14.560  0.00  0.00    +0.000 NA
BRANCH  27  30
ATOM     30  C   UNL     1       5.585   2.276  11.375  0.00  0.00    +0.000 C 
ATOM     31  F   UNL     1       4.330   2.570  10.931  0.00  0.00    +0.000 F 
ATOM     32  F   UNL     1       6.353   2.165  10.252  0.00  0.00    +0.000 F 
ATOM     33  F   UNL     1       5.514   1.020  11.894  0.00  0.00    +0.000 F 
ENDBRANCH  27  30
ENDBRANCH  23  24
ENDBRANCH   7  23
TORSDOF 6
ENDMDL
MODEL 4
REMARK VINA RESULT:      -8.3      1.586      3.176
REMARK  Name = 
REMARK  7 active torsions:
REMARK  status: ('A' for Active; 'I' for Inactive)
REMARK    1  A    between atoms: C_1  and  O_2
REMARK    2  A    between atoms: O_2  and  C_3
REMARK    3  A    between atoms: C_7  and  N_8
REMARK    4  A    between atoms: C_13  and  C_14
REMARK    5  A    between atoms: C_20  and  O_21
REMARK    6  A    between atoms: O_21  and  C_22
REMARK    7  A    between atoms: C_25  and  C_26
REMARK                            x       y       z     vdW  Elec       q    Type
REMARK                         _______ _______ _______ _____ _____    ______ ____
ROOT
ATOM      1  C   UNL     1       4.325   4.781  18.097  0.00  0.00    +0.000 C 
ATOM      2  O   UNL     1       3.889   4.382  17.012  0.00  0.00    +0.000 OA
ATOM      3  N   UNL     1       5.680   5.063  18.240  0.00  0.00    +0.000 N 
ATOM      4  C   UNL     1       6.423   5.750  19.295  0.00  0.00    +0.000 C 
ATOM      5  C   UNL     1       7.844   5.830  18.689  0.00  0.00    +0.000 C 
ATOM      6  C   UNL     1       7.845   6.808  17.488  0.00  0.00    +0.000 C 
ATOM      7  C   UNL     1       6.985   6.078  16.425  0.00  0.00    +0.000 C 
ATOM      8  C   UNL     1       6.648   4.755  17.164  0.00  0.00    +0.000 C 
ATOM      9  C   UNL     1       7.926   4.490  17.970  0.00  0.00    +0.000 C 
ENDROOT
BRANCH   1  15
ATOM     10  C   UNL     1       2.606   6.129  19.431  0.00  0.00    +0.000 A 
ATOM     11  C   UNL     1       1.496   6.164  20.300  0.00  0.00    +0.000 A 
ATOM     12  C   UNL     1       0.961   5.003  20.832  0.00  0.00    +0.000 A 
ATOM     13  C   UNL     1       1.582   3.797  20.564  0.00  0.00    +0.000 A 
ATOM     14  C   UNL     1       2.775   3.749  19.800  0.00  0.00    +0.000 A 
ATOM     15  C   UNL     1       3.307   4.921  19.198  0.00  0.00    +0.000 A 
BRANCH  14  16
ATOM     16  N   UNL     1       3.399   2.476  19.717  0.00  0.00    +0.000 N 
ATOM     17  N   UNL     1       3.142   1.584  18.720  0.00  0.00    +0.000 NA
ATOM     18  C   UNL     1       4.072   0.647  18.932  0.00  0.00    +0.000 A 
ATOM     19  C   UNL     1       4.896   1.015  19.992  0.00  0.00    +0.000 A 
ATOM     20  N   UNL     1       4.514   2.197  20.469  0.00  0.00    +0.000 NA
ENDBRANCH  14  16
BRANCH  10  22
ATOM     21  C   UNL     1       1.990   8.209  18.451  0.00  0.00    +0.000 C 
ATOM     22  O   UNL     1       3.002   7.264  18.780  0.00  0.00    +0.000 OA
ENDBRANCH  10  22
ENDBRANCH   1  15
BRANCH   7  23
ATOM     23  O   UNL     1       7.741   5.828  15.229  0.00  0.00    +0.000 OA
BRANCH  23  24
ATOM     24  C   UNL     1       6.996   5.175  14.260  0.00  0.00    +0.000 A 
ATOM     25  C   UNL     1       7.631   4.858  13.069  0.00  0.00    +0.000 A 
ATOM     26  C   UNL     1       6.926   4.110  12.122  0.00  0.00    +0.000 A 
ATOM     27  C   UNL     1       5.609   3.721  12.385  0.00  0.00    +0.000 A 
ATOM     28  C   UNL     1       5.046   4.153  13.577  0.00  0.00    +0.000 A 
ATOM     29  N   UNL     1       5.706   4.873  14.512  0.00  0.00    +0.000 NA
BRANCH  27  30
ATOM     30  C   UNL     1       4.803   2.858  11.469  0.00  0.00    +0.000 C 
ATOM     31  F   UNL     1       4.698   3.348  10.200  0.00  0.00    +0.000 F 
ATOM     32  F   UNL     1       5.334   1.607  11.334  0.00  0.00    +0.000 F 
ATOM     33  F   UNL     1       3.528   2.669  11.904  0.00  0.00    +0.000 F 
ENDBRANCH  27  30
ENDBRANCH  23  24
ENDBRANCH   7  23
TORSDOF 6
ENDMDL
MODEL 5
REMARK VINA RESULT:      -8.2      1.589      3.456
REMARK  Name = 
REMARK  7 active torsions:
REMARK  status: ('A' for Active; 'I' for Inactive)
REMARK    1  A    between atoms: C_1  and  O_2
REMARK    2  A    between atoms: O_2  and  C_3
REMARK    3  A    between atoms: C_7  and  N_8
REMARK    4  A    between atoms: C_13  and  C_14
REMARK    5  A    between atoms: C_20  and  O_21
REMARK    6  A    between atoms: O_21  and  C_22
REMARK    7  A    between atoms: C_25  and  C_26
REMARK                            x       y       z     vdW  Elec       q    Type
REMARK                         _______ _______ _______ _____ _____    ______ ____
ROOT
ATOM      1  C   UNL     1       4.490   3.970  18.400  0.00  0.00    +0.000 C 
ATOM      2  O   UNL     1       4.142   3.388  17.368  0.00  0.00    +0.000 OA
ATOM      3  N   UNL     1       5.738   4.580  18.469  0.00  0.00    +0.000 N 
ATOM      4  C   UNL     1       6.312   5.512  19.438  0.00  0.00    +0.000 C 
ATOM      5  C   UNL     1       7.659   5.880  18.773  0.00  0.00    +0.000 C 
ATOM      6  C   UNL     1       7.400   6.725  17.501  0.00  0.00    +0.000 C 
ATOM      7  C   UNL     1       6.723   5.723  16.531  0.00  0.00    +0.000 C 
ATOM      8  C   UNL     1       6.731   4.424  17.383  0.00  0.00    +0.000 C 
ATOM      9  C   UNL     1       8.050   4.544  18.157  0.00  0.00    +0.000 C 
ENDROOT
BRANCH   1  15
ATOM     10  C   UNL     1       2.416   4.873  19.599  0.00  0.00    +0.000 A 
ATOM     11  C   UNL     1       1.365   4.687  20.520  0.00  0.00    +0.000 A 
ATOM     12  C   UNL     1       1.264   3.530  21.273  0.00  0.00    +0.000 A 
ATOM     13  C   UNL     1       2.262   2.577  21.172  0.00  0.00    +0.000 A 
ATOM     14  C   UNL     1       3.396   2.799  20.351  0.00  0.00    +0.000 A 
ATOM     15  C   UNL     1       3.489   3.953  19.527  0.00  0.00    +0.000 A 
BRANCH  14  16
ATOM     16  N   UNL     1       4.421   1.820  20.442  0.00  0.00    +0.000 N 
ATOM     17  N   UNL     1       5.188   1.648  21.555  0.00  0.00    +0.000 NA
ATOM     18  C   UNL     1       5.854   0.524  21.268  0.00  0.00    +0.000 A 
ATOM     19  C   UNL     1       5.436   0.015  20.041  0.00  0.00    +0.000 A 
ATOM     20  N   UNL     1       4.492   0.799  19.527  0.00  0.00    +0.000 NA
ENDBRANCH  14  16
BRANCH  10  22
ATOM     21  C   UNL     1       2.652   7.223  19.296  0.00  0.00    +0.000 C 
ATOM     22  O   UNL     1       2.394   5.938  18.741  0.00  0.00    +0.000 OA
ENDBRANCH  10  22
ENDBRANCH   1  15
BRANCH   7  23
ATOM     23  O   UNL     1       7.494   5.562  15.330  0.00  0.00    +0.000 OA
BRANCH  23  24
ATOM     24  C   UNL     1       6.808   4.860  14.353  0.00  0.00    +0.000 A 
ATOM     25  C   UNL     1       5.538   4.400  14.666  0.00  0.00    +0.000 A 
ATOM     26  C   UNL     1       4.791   3.779  13.661  0.00  0.00    +0.000 A 
ATOM     27  C   UNL     1       5.341   3.620  12.385  0.00  0.00    +0.000 A 
ATOM     28  C   UNL     1       6.647   4.052  12.199  0.00  0.00    +0.000 A 
ATOM     29  N   UNL     1       7.390   4.659  13.152  0.00  0.00    +0.000 NA
BRANCH  27  30
ATOM     30  C   UNL     1       4.594   3.039  11.229  0.00  0.00    +0.000 C 
ATOM     31  F   UNL     1       4.479   3.885  10.165  0.00  0.00    +0.000 F 
ATOM     32  F   UNL     1       5.193   1.914  10.738  0.00  0.00    +0.000 F 
ATOM     33  F   UNL     1       3.326   2.667  11.551  0.00  0.00    +0.000 F 
ENDBRANCH  27  30
ENDBRANCH  23  24
ENDBRANCH   7  23
TORSDOF 6
ENDMDL
MODEL 6
REMARK VINA RESULT:      -8.2      1.687      3.327
REMARK  Name = 
REMARK  7 active torsions:
REMARK  status: ('A' for Active; 'I' for Inactive)
REMARK    1  A    between atoms: C_1  and  O_2
REMARK    2  A    between atoms: O_2  and  C_3
REMARK    3  A    between atoms: C_7  and  N_8
REMARK    4  A    between atoms: C_13  and  C_14
REMARK    5  A    between atoms: C_20  and  O_21
REMARK    6  A    between atoms: O_21  and  C_22
REMARK    7  A    between atoms: C_25  and  C_26
REMARK                            x       y       z     vdW  Elec       q    Type
REMARK                         _______ _______ _______ _____ _____    ______ ____
ROOT
ATOM      1  C   UNL     1       4.317   4.858  18.171  0.00  0.00    +0.000 C 
ATOM      2  O   UNL     1       3.863   4.449  17.098  0.00  0.00    +0.000 OA
ATOM      3  N   UNL     1       5.676   5.128  18.293  0.00  0.00    +0.000 N 
ATOM      4  C   UNL     1       6.441   5.821  19.329  0.00  0.00    +0.000 C 
ATOM      5  C   UNL     1       7.854   5.878  18.704  0.00  0.00    +0.000 C 
ATOM      6  C   UNL     1       7.850   6.840  17.489  0.00  0.00    +0.000 C 
ATOM      7  C   UNL     1       6.968   6.104  16.447  0.00  0.00    +0.000 C 
ATOM      8  C   UNL     1       6.627   4.795  17.209  0.00  0.00    +0.000 C 
ATOM      9  C   UNL     1       7.913   4.528  18.002  0.00  0.00    +0.000 C 
ENDROOT
BRANCH   1  15
ATOM     10  C   UNL     1       2.653   6.250  19.528  0.00  0.00    +0.000 A 
ATOM     11  C   UNL     1       1.553   6.314  20.409  0.00  0.00    +0.000 A 
ATOM     12  C   UNL     1       0.989   5.168  20.942  0.00  0.00    +0.000 A 
ATOM     13  C   UNL     1       1.572   3.945  20.664  0.00  0.00    +0.000 A 
ATOM     14  C   UNL     1       2.756   3.865  19.887  0.00  0.00    +0.000 A 
ATOM     15  C   UNL     1       3.315   5.024  19.284  0.00  0.00    +0.000 A 
BRANCH  14  16
ATOM     16  N   UNL     1       3.342   2.575  19.794  0.00  0.00    +0.000 N 
ATOM     17  N   UNL     1       3.017   1.678  18.821  0.00  0.00    +0.000 NA
ATOM     18  C   UNL     1       3.931   0.719  19.003  0.00  0.00    +0.000 A 
ATOM     19  C   UNL     1       4.811   1.077  20.021  0.00  0.00    +0.000 A 
ATOM     20  N   UNL     1       4.481   2.275  20.499  0.00  0.00    +0.000 NA
ENDBRANCH  14  16
BRANCH  10  22
ATOM     21  C   UNL     1       2.172   7.962  17.945  0.00  0.00    +0.000 C 
ATOM     22  O   UNL     1       3.074   7.376  18.876  0.00  0.00    +0.000 OA
ENDBRANCH  10  22
ENDBRANCH   1  15
BRANCH   7  23
ATOM     23  O   UNL     1       7.706   5.830  15.245  0.00  0.00    +0.000 OA
BRANCH  23  24
ATOM     24  C   UNL     1       6.981   5.070  14.343  0.00  0.00    +0.000 A 
ATOM     25  C   UNL     1       5.694   4.701  14.705  0.00  0.00    +0.000 A 
ATOM     26  C   UNL     1       4.912   4.021  13.767  0.00  0.00    +0.000 A 
ATOM     27  C   UNL     1       5.443   3.716  12.510  0.00  0.00    +0.000 A 
ATOM     28  C   UNL     1       6.765   4.068  12.277  0.00  0.00    +0.000 A 
ATOM     29  N   UNL     1       7.543   4.728  13.165  0.00  0.00    +0.000 NA
BRANCH  27  30
ATOM     30  C   UNL     1       4.661   3.062  11.418  0.00  0.00    +0.000 C 
ATOM     31  F   UNL     1       5.189   1.878  10.994  0.00  0.00    +0.000 F 
ATOM     32  F   UNL     1       3.381   2.775  11.798  0.00  0.00    +0.000 F 
ATOM     33  F   UNL     1       4.545   3.840  10.308  0.00  0.00    +0.000 F 
ENDBRANCH  27  30
ENDBRANCH  23  24
ENDBRANCH   7  23
TORSDOF 6
ENDMDL
MODEL 7
REMARK VINA RESULT:      -7.5      6.012      9.139
REMARK  Name = 
REMARK  7 active torsions:
REMARK  status: ('A' for Active; 'I' for Inactive)
REMARK    1  A    between atoms: C_1  and  O_2
REMARK    2  A    between atoms: O_2  and  C_3
REMARK    3  A    between atoms: C_7  and  N_8
REMARK    4  A    between atoms: C_13  and  C_14
REMARK    5  A    between atoms: C_20  and  O_21
REMARK    6  A    between atoms: O_21  and  C_22
REMARK    7  A    between atoms: C_25  and  C_26
REMARK                            x       y       z     vdW  Elec       q    Type
REMARK                         _______ _______ _______ _____ _____    ______ ____
ROOT
ATOM      1  C   UNL     1      -1.130  11.234  20.048  0.00  0.00    +0.000 C 
ATOM      2  O   UNL     1      -1.296  10.642  18.977  0.00  0.00    +0.000 OA
ATOM      3  N   UNL     1      -0.648  10.546  21.156  0.00  0.00    +0.000 N 
ATOM      4  C   UNL     1      -0.144  11.012  22.447  0.00  0.00    +0.000 C 
ATOM      5  C   UNL     1       0.362   9.700  23.090  0.00  0.00    +0.000 C 
ATOM      6  C   UNL     1       1.610   9.191  22.326  0.00  0.00    +0.000 C 
ATOM      7  C   UNL     1       1.045   8.781  20.941  0.00  0.00    +0.000 C 
ATOM      8  C   UNL     1      -0.467   9.077  21.130  0.00  0.00    +0.000 C 
ATOM      9  C   UNL     1      -0.694   8.716  22.604  0.00  0.00    +0.000 C 
ENDROOT
BRANCH   1  15
ATOM     10  C   UNL     1      -2.754  13.170  20.463  0.00  0.00    +0.000 A 
ATOM     11  C   UNL     1      -2.978  14.545  20.681  0.00  0.00    +0.000 A 
ATOM     12  C   UNL     1      -1.938  15.458  20.646  0.00  0.00    +0.000 A 
ATOM     13  C   UNL     1      -0.671  15.017  20.312  0.00  0.00    +0.000 A 
ATOM     14  C   UNL     1      -0.444  13.661  19.960  0.00  0.00    +0.000 A 
ATOM     15  C   UNL     1      -1.486  12.699  20.047  0.00  0.00    +0.000 A 
BRANCH  14  16
ATOM     16  N   UNL     1       0.863  13.360  19.493  0.00  0.00    +0.000 N 
ATOM     17  N   UNL     1       1.136  13.050  18.195  0.00  0.00    +0.000 NA
ATOM     18  C   UNL     1       2.474  13.041  18.182  0.00  0.00    +0.000 A 
ATOM     19  C   UNL     1       2.971  13.401  19.432  0.00  0.00    +0.000 A 
ATOM     20  N   UNL     1       1.962  13.655  20.262  0.00  0.00    +0.000 NA
ENDBRANCH  14  16
BRANCH  10  22
ATOM     21  C   UNL     1      -5.069  12.649  20.271  0.00  0.00    +0.000 C 
ATOM     22  O   UNL     1      -3.760  12.269  20.680  0.00  0.00    +0.000 OA
ENDBRANCH  10  22
ENDBRANCH   1  15
BRANCH   7  23
ATOM     23  O   UNL     1       1.274   7.386  20.681  0.00  0.00    +0.000 OA
BRANCH  23  24
ATOM     24  C   UNL     1       2.151   7.183  19.629  0.00  0.00    +0.000 A 
ATOM     25  C   UNL     1       2.196   8.150  18.637  0.00  0.00    +0.000 A 
ATOM     26  C   UNL     1       3.146   8.013  17.621  0.00  0.00    +0.000 A 
ATOM     27  C   UNL     1       4.005   6.909  17.617  0.00  0.00    +0.000 A 
ATOM     28  C   UNL     1       3.826   5.963  18.617  0.00  0.00    +0.000 A 
ATOM     29  N   UNL     1       2.918   6.073  19.613  0.00  0.00    +0.000 NA
BRANCH  27  30
ATOM     30  C   UNL     1       5.099   6.716  16.619  0.00  0.00    +0.000 C 
ATOM     31  F   UNL     1       5.498   5.419  16.482  0.00  0.00    +0.000 F 
ATOM     32  F   UNL     1       4.736   7.120  15.366  0.00  0.00    +0.000 F 
ATOM     33  F   UNL     1       6.222   7.423  16.919  0.00  0.00    +0.000 F 
ENDBRANCH  27  30
ENDBRANCH  23  24
ENDBRANCH   7  23
TORSDOF 6
ENDMDL
MODEL 8
REMARK VINA RESULT:      -7.4      6.030      9.131
REMARK  Name = 
REMARK  7 active torsions:
REMARK  status: ('A' for Active; 'I' for Inactive)
REMARK    1  A    between atoms: C_1  and  O_2
REMARK    2  A    between atoms: O_2  and  C_3
REMARK    3  A    between atoms: C_7  and  N_8
REMARK    4  A    between atoms: C_13  and  C_14
REMARK    5  A    between atoms: C_20  and  O_21
REMARK    6  A    between atoms: O_21  and  C_22
REMARK    7  A    between atoms: C_25  and  C_26
REMARK                            x       y       z     vdW  Elec       q    Type
REMARK                         _______ _______ _______ _____ _____    ______ ____
ROOT
ATOM      1  C   UNL     1      -1.145  11.306  20.031  0.00  0.00    +0.000 C 
ATOM      2  O   UNL     1      -1.312  10.755  18.939  0.00  0.00    +0.000 OA
ATOM      3  N   UNL     1      -0.668  10.576  21.114  0.00  0.00    +0.000 N 
ATOM      4  C   UNL     1      -0.164  10.993  22.422  0.00  0.00    +0.000 C 
ATOM      5  C   UNL     1       0.334   9.655  23.017  0.00  0.00    +0.000 C 
ATOM      6  C   UNL     1       1.581   9.168  22.237  0.00  0.00    +0.000 C 
ATOM      7  C   UNL     1       1.017   8.811  20.838  0.00  0.00    +0.000 C 
ATOM      8  C   UNL     1      -0.494   9.108  21.035  0.00  0.00    +0.000 C 
ATOM      9  C   UNL     1      -0.726   8.695  22.495  0.00  0.00    +0.000 C 
ENDROOT
BRANCH   1  15
ATOM     10  C   UNL     1      -2.755  13.234  20.527  0.00  0.00    +0.000 A 
ATOM     11  C   UNL     1      -2.971  14.602  20.793  0.00  0.00    +0.000 A 
ATOM     12  C   UNL     1      -1.927  15.511  20.779  0.00  0.00    +0.000 A 
ATOM     13  C   UNL     1      -0.665  15.076  20.417  0.00  0.00    +0.000 A 
ATOM     14  C   UNL     1      -0.448  13.732  20.018  0.00  0.00    +0.000 A 
ATOM     15  C   UNL     1      -1.494  12.772  20.082  0.00  0.00    +0.000 A 
BRANCH  14  16
ATOM     16  N   UNL     1       0.852  13.440  19.529  0.00  0.00    +0.000 N 
ATOM     17  N   UNL     1       1.120  13.221  18.211  0.00  0.00    +0.000 NA
ATOM     18  C   UNL     1       2.457  13.188  18.196  0.00  0.00    +0.000 A 
ATOM     19  C   UNL     1       2.961  13.446  19.468  0.00  0.00    +0.000 A 
ATOM     20  N   UNL     1       1.957  13.658  20.315  0.00  0.00    +0.000 NA
ENDBRANCH  14  16
BRANCH  10  22
ATOM     21  C   UNL     1      -5.069  12.854  20.941  0.00  0.00    +0.000 C 
ATOM     22  O   UNL     1      -3.764  12.331  20.724  0.00  0.00    +0.000 OA
ENDBRANCH  10  22
ENDBRANCH   1  15
BRANCH   7  23
ATOM     23  O   UNL     1       1.239   7.426  20.528  0.00  0.00    +0.000 OA
BRANCH  23  24
ATOM     24  C   UNL     1       2.217   7.252  19.562  0.00  0.00    +0.000 A 
ATOM     25  C   UNL     1       3.020   6.126  19.659  0.00  0.00    +0.000 A 
ATOM     26  C   UNL     1       3.943   5.881  18.638  0.00  0.00    +0.000 A 
ATOM     27  C   UNL     1       4.048   6.775  17.568  0.00  0.00    +0.000 A 
ATOM     28  C   UNL     1       3.247   7.908  17.606  0.00  0.00    +0.000 A 
ATOM     29  N   UNL     1       2.345   8.167  18.579  0.00  0.00    +0.000 NA
BRANCH  27  30
ATOM     30  C   UNL     1       4.949   6.559  16.396  0.00  0.00    +0.000 C 
ATOM     31  F   UNL     1       4.602   7.283  15.292  0.00  0.00    +0.000 F 
ATOM     32  F   UNL     1       6.243   6.903  16.666  0.00  0.00    +0.000 F 
ATOM     33  F   UNL     1       4.994   5.261  15.993  0.00  0.00    +0.000 F 
ENDBRANCH  27  30
ENDBRANCH  23  24
ENDBRANCH   7  23
TORSDOF 6
ENDMDL
MODEL 9
REMARK VINA RESULT:      -7.4      5.920      9.130
REMARK  Name = 
REMARK  7 active torsions:
REMARK  status: ('A' for Active; 'I' for Inactive)
REMARK    1  A    between atoms: C_1  and  O_2
REMARK    2  A    between atoms: O_2  and  C_3
REMARK    3  A    between atoms: C_7  and  N_8
REMARK    4  A    between atoms: C_13  and  C_14
REMARK    5  A    between atoms: C_20  and  O_21
REMARK    6  A    between atoms: O_21  and  C_22
REMARK    7  A    between atoms: C_25  and  C_26
REMARK                            x       y       z     vdW  Elec       q    Type
REMARK                         _______ _______ _______ _____ _____    ______ ____
ROOT
ATOM      1  C   UNL     1       0.141  11.637  19.726  0.00  0.00    +0.000 C 
ATOM      2  O   UNL     1       0.210  11.145  18.595  0.00  0.00    +0.000 OA
ATOM      3  N   UNL     1       0.096  10.810  20.843  0.00  0.00    +0.000 N 
ATOM      4  C   UNL     1       0.244  11.094  22.270  0.00  0.00    +0.000 C 
ATOM      5  C   UNL     1       0.244   9.674  22.883  0.00  0.00    +0.000 C 
ATOM      6  C   UNL     1       1.541   8.930  22.479  0.00  0.00    +0.000 C 
ATOM      7  C   UNL     1       1.378   8.719  20.952  0.00  0.00    +0.000 C 
ATOM      8  C   UNL     1      -0.023   9.341  20.708  0.00  0.00    +0.000 C 
ATOM      9  C   UNL     1      -0.777   8.977  21.994  0.00  0.00    +0.000 C 
ENDROOT
BRANCH   1  15
ATOM     10  C   UNL     1       1.169  13.942  19.298  0.00  0.00    +0.000 A 
ATOM     11  C   UNL     1       1.012  15.334  19.140  0.00  0.00    +0.000 A 
ATOM     12  C   UNL     1      -0.221  15.943  19.301  0.00  0.00    +0.000 A 
ATOM     13  C   UNL     1      -1.298  15.175  19.704  0.00  0.00    +0.000 A 
ATOM     14  C   UNL     1      -1.137  13.796  19.997  0.00  0.00    +0.000 A 
ATOM     15  C   UNL     1       0.106  13.143  19.781  0.00  0.00    +0.000 A 
BRANCH  14  16
ATOM     16  N   UNL     1      -2.277  13.148  20.542  0.00  0.00    +0.000 N 
ATOM     17  N   UNL     1      -2.620  13.228  21.858  0.00  0.00    +0.000 NA
ATOM     18  C   UNL     1      -3.827  12.651  21.871  0.00  0.00    +0.000 A 
ATOM     19  C   UNL     1      -4.208  12.300  20.579  0.00  0.00    +0.000 A 
ATOM     20  N   UNL     1      -3.257  12.653  19.718  0.00  0.00    +0.000 NA
ENDBRANCH  14  16
BRANCH  10  22
ATOM     21  C   UNL     1       3.416  14.196  18.553  0.00  0.00    +0.000 C 
ATOM     22  O   UNL     1       2.351  13.344  18.958  0.00  0.00    +0.000 OA
ENDBRANCH  10  22
ENDBRANCH   1  15
BRANCH   7  23
ATOM     23  O   UNL     1       1.393   7.321  20.618  0.00  0.00    +0.000 OA
BRANCH  23  24
ATOM     24  C   UNL     1       2.265   7.036  19.580  0.00  0.00    +0.000 A 
ATOM     25  C   UNL     1       2.301   7.921  18.513  0.00  0.00    +0.000 A 
ATOM     26  C   UNL     1       3.246   7.705  17.506  0.00  0.00    +0.000 A 
ATOM     27  C   UNL     1       4.108   6.607  17.587  0.00  0.00    +0.000 A 
ATOM     28  C   UNL     1       3.938   5.744  18.661  0.00  0.00    +0.000 A 
ATOM     29  N   UNL     1       3.035   5.931  19.649  0.00  0.00    +0.000 NA
BRANCH  27  30
ATOM     30  C   UNL     1       5.197   6.336  16.601  0.00  0.00    +0.000 C 
ATOM     31  F   UNL     1       4.948   6.829  15.354  0.00  0.00    +0.000 F 
ATOM     32  F   UNL     1       6.388   6.887  16.980  0.00  0.00    +0.000 F 
ATOM     33  F   UNL     1       5.446   5.009  16.436  0.00  0.00    +0.000 F 
ENDBRANCH  27  30
ENDBRANCH  23  24
ENDBRANCH   7  23
TORSDOF 6
ENDMDL
