MODEL 1
REMARK VINA RESULT:      -7.3      0.000      0.000
REMARK  Name = 
REMARK  11 active torsions:
REMARK  status: ('A' for Active; 'I' for Inactive)
REMARK    1  A    between atoms: C_1  and  O_2
REMARK    2  A    between atoms: O_2  and  C_3
REMARK    3  A    between atoms: C_6  and  N_7
REMARK    4  A    between atoms: N_7  and  C_8
REMARK    5  A    between atoms: N_7  and  S_21
REMARK    6  A    between atoms: C_8  and  C_9
REMARK    7  A    between atoms: N_11  and  C_12
REMARK    8  A    between atoms: C_12  and  C_13
REMARK    9  A    between atoms: C_13  and  S_14
REMARK   10  A    between atoms: S_14  and  C_15
REMARK   11  A    between atoms: S_21  and  C_22
REMARK                            x       y       z     vdW  Elec       q    Type
REMARK                         _______ _______ _______ _____ _____    ______ ____
ROOT
ATOM      1  C   UNL     1       4.299   3.769  19.677  0.00  0.00    +0.000 C 
ENDROOT
BRANCH   1   2
ATOM      2  C   UNL     1       5.540   4.551  19.247  0.00  0.00    +0.000 C 
ATOM      3  O   UNL     1       5.840   5.621  19.767  0.00  0.00    +0.000 OA
ATOM      4  N   UNL     1       6.294   3.990  18.229  0.00  0.00    +0.000 N 
ATOM      5  H   UNL     1       5.913   3.187  17.731  0.00  0.00    +0.000 HD
BRANCH   4   6
ATOM      6  C   UNL     1       7.477   4.661  17.688  0.00  0.00    +0.000 C 
BRANCH   6   7
ATOM      7  C   UNL     1       7.159   5.631  16.538  0.00  0.00    +0.000 C 
BRANCH   7   8
ATOM      8  S   UNL     1       5.533   5.210  15.794  0.00  0.00    +0.000 S 
BRANCH   8   9
ATOM      9  C   UNL     1       6.022   4.618  14.180  0.00  0.00    +0.000 A 
ATOM     10  C   UNL     1       7.246   5.039  13.647  0.00  0.00    +0.000 A 
ATOM     11  C   UNL     1       7.677   4.575  12.400  0.00  0.00    +0.000 A 
ATOM     12  C   UNL     1       6.891   3.678  11.682  0.00  0.00    +0.000 A 
ATOM     13  C   UNL     1       5.683   3.228  12.216  0.00  0.00    +0.000 A 
ATOM     14  C   UNL     1       5.254   3.694  13.460  0.00  0.00    +0.000 A 
ENDBRANCH   8   9
ENDBRANCH   7   8
ENDBRANCH   6   7
ENDBRANCH   4   6
ENDBRANCH   1   2
BRANCH   1  15
ATOM     15  N   UNL     1       3.123   4.221  18.913  0.00  0.00    +0.000 N 
BRANCH  15  19
ATOM     16  C   UNL     1       1.638   8.034  19.995  0.00  0.00    +0.000 A 
ATOM     17  C   UNL     1       2.209   7.845  18.733  0.00  0.00    +0.000 A 
ATOM     18  C   UNL     1       2.640   6.576  18.320  0.00  0.00    +0.000 A 
ATOM     19  C   UNL     1       2.518   5.490  19.186  0.00  0.00    +0.000 A 
ATOM     20  C   UNL     1       1.895   5.666  20.423  0.00  0.00    +0.000 A 
ATOM     21  C   UNL     1       1.469   6.934  20.835  0.00  0.00    +0.000 A 
BRANCH  16  23
ATOM     22  C   UNL     1       0.121   9.553  21.017  0.00  0.00    +0.000 C 
ATOM     23  O   UNL     1       1.335   9.330  20.309  0.00  0.00    +0.000 OA
ENDBRANCH  16  23
ENDBRANCH  15  19
BRANCH  15  24
ATOM     24  S   UNL     1       2.207   3.061  18.099  0.00  0.00    +0.000 S 
ATOM     25  C   UNL     1       1.424   2.213  19.453  0.00  0.00    +0.000 C 
ATOM     26  O   UNL     1       1.160   3.762  17.377  0.00  0.00    +0.000 OA
ATOM     27  O   UNL     1       3.090   2.137  17.418  0.00  0.00    +0.000 OA
ENDBRANCH  15  24
ENDBRANCH   1  15
TORSDOF 9
ENDMDL
MODEL 2
REMARK VINA RESULT:      -7.2      2.727      8.091
REMARK  Name = 
REMARK  11 active torsions:
REMARK  status: ('A' for Active; 'I' for Inactive)
REMARK    1  A    between atoms: C_1  and  O_2
REMARK    2  A    between atoms: O_2  and  C_3
REMARK    3  A    between atoms: C_6  and  N_7
REMARK    4  A    between atoms: N_7  and  C_8
REMARK    5  A    between atoms: N_7  and  S_21
REMARK    6  A    between atoms: C_8  and  C_9
REMARK    7  A    between atoms: N_11  and  C_12
REMARK    8  A    between atoms: C_12  and  C_13
REMARK    9  A    between atoms: C_13  and  S_14
REMARK   10  A    between atoms: S_14  and  C_15
REMARK   11  A    between atoms: S_21  and  C_22
REMARK                            x       y       z     vdW  Elec       q    Type
REMARK                         _______ _______ _______ _____ _____    ______ ____
ROOT
ATOM      1  C   UNL     1       2.450   5.197  18.144  0.00  0.00    +0.000 C 
ENDROOT
BRANCH   1   2
ATOM      2  C   UNL     1       2.497   6.644  18.635  0.00  0.00    +0.000 C 
ATOM      3  O   UNL     1       2.634   6.917  19.823  0.00  0.00    +0.000 OA
ATOM      4  N   UNL     1       2.359   7.623  17.666  0.00  0.00    +0.000 N 
ATOM      5  H   UNL     1       2.091   7.338  16.724  0.00  0.00    +0.000 HD
BRANCH   4   6
ATOM      6  C   UNL     1       2.334   9.046  18.007  0.00  0.00    +0.000 C 
BRANCH   6   7
ATOM      7  C   UNL     1       0.914   9.631  18.090  0.00  0.00    +0.000 C 
BRANCH   7   8
ATOM      8  S   UNL     1       0.946  11.233  18.988  0.00  0.00    +0.000 S 
BRANCH   8   9
ATOM      9  C   UNL     1       0.260  10.768  20.572  0.00  0.00    +0.000 A 
ATOM     10  C   UNL     1       0.351   9.432  20.982  0.00  0.00    +0.000 A 
ATOM     11  C   UNL     1      -0.148   9.034  22.226  0.00  0.00    +0.000 A 
ATOM     12  C   UNL     1      -0.730   9.972  23.075  0.00  0.00    +0.000 A 
ATOM     13  C   UNL     1      -0.800  11.311  22.690  0.00  0.00    +0.000 A 
ATOM     14  C   UNL     1      -0.303  11.706  21.446  0.00  0.00    +0.000 A 
ENDBRANCH   8   9
ENDBRANCH   7   8
ENDBRANCH   6   7
ENDBRANCH   4   6
ENDBRANCH   1   2
BRANCH   1  15
ATOM     15  N   UNL     1       3.725   4.518  18.438  0.00  0.00    +0.000 N 
BRANCH  15  19
ATOM     16  C   UNL     1       6.769   5.085  15.552  0.00  0.00    +0.000 A 
ATOM     17  C   UNL     1       6.838   5.760  16.774  0.00  0.00    +0.000 A 
ATOM     18  C   UNL     1       5.884   5.535  17.777  0.00  0.00    +0.000 A 
ATOM     19  C   UNL     1       4.840   4.639  17.548  0.00  0.00    +0.000 A 
ATOM     20  C   UNL     1       4.803   3.920  16.351  0.00  0.00    +0.000 A 
ATOM     21  C   UNL     1       5.754   4.151  15.350  0.00  0.00    +0.000 A 
BRANCH  16  23
ATOM     22  C   UNL     1       7.507   5.007  13.293  0.00  0.00    +0.000 C 
ATOM     23  O   UNL     1       7.708   5.453  14.629  0.00  0.00    +0.000 OA
ENDBRANCH  16  23
ENDBRANCH  15  19
BRANCH  15  24
ATOM     24  S   UNL     1       3.707   3.224  19.520  0.00  0.00    +0.000 S 
ATOM     25  C   UNL     1       3.044   1.922  18.505  0.00  0.00    +0.000 C 
ATOM     26  O   UNL     1       5.088   2.877  19.805  0.00  0.00    +0.000 OA
ATOM     27  O   UNL     1       2.773   3.501  20.592  0.00  0.00    +0.000 OA
ENDBRANCH  15  24
ENDBRANCH   1  15
TORSDOF 9
ENDMDL
MODEL 3
REMARK VINA RESULT:      -6.8      3.307      7.764
REMARK  Name = 
REMARK  11 active torsions:
REMARK  status: ('A' for Active; 'I' for Inactive)
REMARK    1  A    between atoms: C_1  and  O_2
REMARK    2  A    between atoms: O_2  and  C_3
REMARK    3  A    between atoms: C_6  and  N_7
REMARK    4  A    between atoms: N_7  and  C_8
REMARK    5  A    between atoms: N_7  and  S_21
REMARK    6  A    between atoms: C_8  and  C_9
REMARK    7  A    between atoms: N_11  and  C_12
REMARK    8  A    between atoms: C_12  and  C_13
REMARK    9  A    between atoms: C_13  and  S_14
REMARK   10  A    between atoms: S_14  and  C_15
REMARK   11  A    between atoms: S_21  and  C_22
REMARK                            x       y       z     vdW  Elec       q    Type
REMARK                         _______ _______ _______ _____ _____    ______ ____
ROOT
ATOM      1  C   UNL     1       2.154   4.792  18.770  0.00  0.00    +0.000 C 
ENDROOT
BRANCH   1   2
ATOM      2  C   UNL     1       2.151   6.254  19.215  0.00  0.00    +0.000 C 
ATOM      3  O   UNL     1       2.021   6.569  20.393  0.00  0.00    +0.000 OA
ATOM      4  N   UNL     1       2.285   7.199  18.211  0.00  0.00    +0.000 N 
ATOM      5  H   UNL     1       2.231   6.887  17.242  0.00  0.00    +0.000 HD
BRANCH   4   6
ATOM      6  C   UNL     1       2.246   8.634  18.494  0.00  0.00    +0.000 C 
BRANCH   6   7
ATOM      7  C   UNL     1       1.099   9.368  17.780  0.00  0.00    +0.000 C 
BRANCH   7   8
ATOM      8  S   UNL     1       0.406  10.668  18.877  0.00  0.00    +0.000 S 
BRANCH   8   9
ATOM      9  C   UNL     1      -1.286  10.752  18.305  0.00  0.00    +0.000 A 
ATOM     10  C   UNL     1      -1.699   9.886  17.285  0.00  0.00    +0.000 A 
ATOM     11  C   UNL     1      -3.021   9.902  16.830  0.00  0.00    +0.000 A 
ATOM     12  C   UNL     1      -3.944  10.774  17.402  0.00  0.00    +0.000 A 
ATOM     13  C   UNL     1      -3.551  11.620  18.439  0.00  0.00    +0.000 A 
ATOM     14  C   UNL     1      -2.230  11.605  18.890  0.00  0.00    +0.000 A 
ENDBRANCH   8   9
ENDBRANCH   7   8
ENDBRANCH   6   7
ENDBRANCH   4   6
ENDBRANCH   1   2
BRANCH   1  15
ATOM     15  N   UNL     1       3.527   4.254  18.798  0.00  0.00    +0.000 N 
BRANCH  15  19
ATOM     16  C   UNL     1       6.635   5.165  16.074  0.00  0.00    +0.000 A 
ATOM     17  C   UNL     1       5.517   4.449  15.636  0.00  0.00    +0.000 A 
ATOM     18  C   UNL     1       4.439   4.198  16.497  0.00  0.00    +0.000 A 
ATOM     19  C   UNL     1       4.489   4.652  17.815  0.00  0.00    +0.000 A 
ATOM     20  C   UNL     1       5.578   5.417  18.237  0.00  0.00    +0.000 A 
ATOM     21  C   UNL     1       6.654   5.662  17.376  0.00  0.00    +0.000 A 
BRANCH  16  23
ATOM     22  C   UNL     1       7.352   4.911  13.821  0.00  0.00    +0.000 C 
ATOM     23  O   UNL     1       7.651   5.271  15.165  0.00  0.00    +0.000 OA
ENDBRANCH  16  23
ENDBRANCH  15  19
BRANCH  15  24
ATOM     24  S   UNL     1       3.804   2.825  19.652  0.00  0.00    +0.000 S 
ATOM     25  C   UNL     1       3.387   1.598  18.434  0.00  0.00    +0.000 C 
ATOM     26  O   UNL     1       5.235   2.726  19.879  0.00  0.00    +0.000 OA
ATOM     27  O   UNL     1       2.868   2.728  20.752  0.00  0.00    +0.000 OA
ENDBRANCH  15  24
ENDBRANCH   1  15
TORSDOF 9
ENDMDL
MODEL 4
REMARK VINA RESULT:      -6.8      2.415      7.933
REMARK  Name = 
REMARK  11 active torsions:
REMARK  status: ('A' for Active; 'I' for Inactive)
REMARK    1  A    between atoms: C_1  and  O_2
REMARK    2  A    between atoms: O_2  and  C_3
REMARK    3  A    between atoms: C_6  and  N_7
REMARK    4  A    between atoms: N_7  and  C_8
REMARK    5  A    between atoms: N_7  and  S_21
REMARK    6  A    between atoms: C_8  and  C_9
REMARK    7  A    between atoms: N_11  and  C_12
REMARK    8  A    between atoms: C_12  and  C_13
REMARK    9  A    between atoms: C_13  and  S_14
REMARK   10  A    between atoms: S_14  and  C_15
REMARK   11  A    between atoms: S_21  and  C_22
REMARK                            x       y       z     vdW  Elec       q    Type
REMARK                         _______ _______ _______ _____ _____    ______ ____
ROOT
ATOM      1  C   UNL     1       3.240   5.273  19.767  0.00  0.00    +0.000 C 
ENDROOT
BRANCH   1   2
ATOM      2  C   UNL     1       2.409   6.081  18.772  0.00  0.00    +0.000 C 
ATOM      3  O   UNL     1       1.640   5.539  17.984  0.00  0.00    +0.000 OA
ATOM      4  N   UNL     1       2.587   7.454  18.799  0.00  0.00    +0.000 N 
ATOM      5  H   UNL     1       3.349   7.832  19.360  0.00  0.00    +0.000 HD
BRANCH   4   6
ATOM      6  C   UNL     1       1.892   8.339  17.864  0.00  0.00    +0.000 C 
BRANCH   6   7
ATOM      7  C   UNL     1       1.707   9.770  18.397  0.00  0.00    +0.000 C 
BRANCH   7   8
ATOM      8  S   UNL     1      -0.081  10.147  18.577  0.00  0.00    +0.000 S 
BRANCH   8   9
ATOM      9  C   UNL     1      -0.267  10.153  20.355  0.00  0.00    +0.000 A 
ATOM     10  C   UNL     1      -0.814  11.283  20.974  0.00  0.00    +0.000 A 
ATOM     11  C   UNL     1      -1.001  11.316  22.359  0.00  0.00    +0.000 A 
ATOM     12  C   UNL     1      -0.656  10.212  23.135  0.00  0.00    +0.000 A 
ATOM     13  C   UNL     1      -0.138   9.068  22.526  0.00  0.00    +0.000 A 
ATOM     14  C   UNL     1       0.051   9.039  21.143  0.00  0.00    +0.000 A 
ENDBRANCH   8   9
ENDBRANCH   7   8
ENDBRANCH   6   7
ENDBRANCH   4   6
ENDBRANCH   1   2
BRANCH   1  15
ATOM     15  N   UNL     1       4.043   4.261  19.058  0.00  0.00    +0.000 N 
BRANCH  15  19
ATOM     16  C   UNL     1       6.906   5.008  16.031  0.00  0.00    +0.000 A 
ATOM     17  C   UNL     1       5.546   4.979  15.707  0.00  0.00    +0.000 A 
ATOM     18  C   UNL     1       4.572   4.808  16.701  0.00  0.00    +0.000 A 
ATOM     19  C   UNL     1       4.963   4.646  18.030  0.00  0.00    +0.000 A 
ATOM     20  C   UNL     1       6.316   4.734  18.363  0.00  0.00    +0.000 A 
ATOM     21  C   UNL     1       7.287   4.900  17.368  0.00  0.00    +0.000 A 
BRANCH  16  23
ATOM     22  C   UNL     1       7.195   4.885  13.675  0.00  0.00    +0.000 C 
ATOM     23  O   UNL     1       7.757   5.098  14.965  0.00  0.00    +0.000 OA
ENDBRANCH  16  23
ENDBRANCH  15  19
BRANCH  15  24
ATOM     24  S   UNL     1       3.517   2.657  19.097  0.00  0.00    +0.000 S 
ATOM     25  C   UNL     1       4.566   1.971  20.359  0.00  0.00    +0.000 C 
ATOM     26  O   UNL     1       2.165   2.657  19.624  0.00  0.00    +0.000 OA
ATOM     27  O   UNL     1       3.824   2.016  17.835  0.00  0.00    +0.000 OA
ENDBRANCH  15  24
ENDBRANCH   1  15
TORSDOF 9
ENDMDL
MODEL 5
REMARK VINA RESULT:      -6.7      2.324      7.850
REMARK  Name = 
REMARK  11 active torsions:
REMARK  status: ('A' for Active; 'I' for Inactive)
REMARK    1  A    between atoms: C_1  and  O_2
REMARK    2  A    between atoms: O_2  and  C_3
REMARK    3  A    between atoms: C_6  and  N_7
REMARK    4  A    between atoms: N_7  and  C_8
REMARK    5  A    between atoms: N_7  and  S_21
REMARK    6  A    between atoms: C_8  and  C_9
REMARK    7  A    between atoms: N_11  and  C_12
REMARK    8  A    between atoms: C_12  and  C_13
REMARK    9  A    between atoms: C_13  and  S_14
REMARK   10  A    between atoms: S_14  and  C_15
REMARK   11  A    between atoms: S_21  and  C_22
REMARK                            x       y       z     vdW  Elec       q    Type
REMARK                         _______ _______ _______ _____ _____    ______ ____
ROOT
ATOM      1  C   UNL     1       3.064   5.215  19.717  0.00  0.00    +0.000 C 
ENDROOT
BRANCH   1   2
ATOM      2  C   UNL     1       2.486   6.147  18.653  0.00  0.00    +0.000 C 
ATOM      3  O   UNL     1       1.845   5.718  17.699  0.00  0.00    +0.000 OA
ATOM      4  N   UNL     1       2.743   7.498  18.818  0.00  0.00    +0.000 N 
ATOM      5  H   UNL     1       3.409   7.780  19.537  0.00  0.00    +0.000 HD
BRANCH   4   6
ATOM      6  C   UNL     1       2.291   8.493  17.844  0.00  0.00    +0.000 C 
BRANCH   6   7
ATOM      7  C   UNL     1       1.912   9.842  18.477  0.00  0.00    +0.000 C 
BRANCH   7   8
ATOM      8  S   UNL     1       0.085  10.017  18.535  0.00  0.00    +0.000 S 
BRANCH   8   9
ATOM      9  C   UNL     1      -0.208  10.116  20.296  0.00  0.00    +0.000 A 
ATOM     10  C   UNL     1       0.292   9.103  21.123  0.00  0.00    +0.000 A 
ATOM     11  C   UNL     1       0.107   9.159  22.508  0.00  0.00    +0.000 A 
ATOM     12  C   UNL     1      -0.567  10.236  23.077  0.00  0.00    +0.000 A 
ATOM     13  C   UNL     1      -1.044  11.266  22.266  0.00  0.00    +0.000 A 
ATOM     14  C   UNL     1      -0.861  11.207  20.884  0.00  0.00    +0.000 A 
ENDBRANCH   8   9
ENDBRANCH   7   8
ENDBRANCH   6   7
ENDBRANCH   4   6
ENDBRANCH   1   2
BRANCH   1  15
ATOM     15  N   UNL     1       3.610   4.000  19.087  0.00  0.00    +0.000 N 
BRANCH  15  19
ATOM     16  C   UNL     1       6.685   4.540  16.229  0.00  0.00    +0.000 A 
ATOM     17  C   UNL     1       6.903   4.908  17.561  0.00  0.00    +0.000 A 
ATOM     18  C   UNL     1       5.930   4.672  18.542  0.00  0.00    +0.000 A 
ATOM     19  C   UNL     1       4.720   4.079  18.185  0.00  0.00    +0.000 A 
ATOM     20  C   UNL     1       4.523   3.658  16.868  0.00  0.00    +0.000 A 
ATOM     21  C   UNL     1       5.494   3.899  15.889  0.00  0.00    +0.000 A 
BRANCH  16  23
ATOM     22  C   UNL     1       7.310   5.025  13.987  0.00  0.00    +0.000 C 
ATOM     23  O   UNL     1       7.675   4.899  15.357  0.00  0.00    +0.000 OA
ENDBRANCH  16  23
ENDBRANCH  15  19
BRANCH  15  24
ATOM     24  S   UNL     1       2.633   2.625  19.029  0.00  0.00    +0.000 S 
ATOM     25  C   UNL     1       1.715   2.779  20.545  0.00  0.00    +0.000 C 
ATOM     26  O   UNL     1       1.688   2.810  17.942  0.00  0.00    +0.000 OA
ATOM     27  O   UNL     1       3.460   1.439  19.103  0.00  0.00    +0.000 OA
ENDBRANCH  15  24
ENDBRANCH   1  15
TORSDOF 9
ENDMDL
MODEL 6
REMARK VINA RESULT:      -6.7      2.931      7.742
REMARK  Name = 
REMARK  11 active torsions:
REMARK  status: ('A' for Active; 'I' for Inactive)
REMARK    1  A    between atoms: C_1  and  O_2
REMARK    2  A    between atoms: O_2  and  C_3
REMARK    3  A    between atoms: C_6  and  N_7
REMARK    4  A    between atoms: N_7  and  C_8
REMARK    5  A    between atoms: N_7  and  S_21
REMARK    6  A    between atoms: C_8  and  C_9
REMARK    7  A    between atoms: N_11  and  C_12
REMARK    8  A    between atoms: C_12  and  C_13
REMARK    9  A    between atoms: C_13  and  S_14
REMARK   10  A    between atoms: S_14  and  C_15
REMARK   11  A    between atoms: S_21  and  C_22
REMARK                            x       y       z     vdW  Elec       q    Type
REMARK                         _______ _______ _______ _____ _____    ______ ____
ROOT
ATOM      1  C   UNL     1       2.081   4.761  19.076  0.00  0.00    +0.000 C 
ENDROOT
BRANCH   1   2
ATOM      2  C   UNL     1       2.254   6.222  19.491  0.00  0.00    +0.000 C 
ATOM      3  O   UNL     1       2.920   7.007  18.824  0.00  0.00    +0.000 OA
ATOM      4  N   UNL     1       1.631   6.600  20.669  0.00  0.00    +0.000 N 
ATOM      5  H   UNL     1       1.227   5.873  21.258  0.00  0.00    +0.000 HD
BRANCH   4   6
ATOM      6  C   UNL     1       1.760   7.956  21.206  0.00  0.00    +0.000 C 
BRANCH   6   7
ATOM      7  C   UNL     1       0.408   8.640  21.471  0.00  0.00    +0.000 C 
BRANCH   7   8
ATOM      8  S   UNL     1       0.560  10.451  21.212  0.00  0.00    +0.000 S 
BRANCH   8   9
ATOM      9  C   UNL     1      -0.599  10.720  19.879  0.00  0.00    +0.000 A 
ATOM     10  C   UNL     1      -1.559  11.732  20.011  0.00  0.00    +0.000 A 
ATOM     11  C   UNL     1      -2.465  11.992  18.978  0.00  0.00    +0.000 A 
ATOM     12  C   UNL     1      -2.411  11.250  17.801  0.00  0.00    +0.000 A 
ATOM     13  C   UNL     1      -1.441  10.260  17.646  0.00  0.00    +0.000 A 
ATOM     14  C   UNL     1      -0.538  10.000  18.679  0.00  0.00    +0.000 A 
ENDBRANCH   8   9
ENDBRANCH   7   8
ENDBRANCH   6   7
ENDBRANCH   4   6
ENDBRANCH   1   2
BRANCH   1  15
ATOM     15  N   UNL     1       3.383   4.070  19.092  0.00  0.00    +0.000 N 
BRANCH  15  19
ATOM     16  C   UNL     1       6.605   4.741  16.431  0.00  0.00    +0.000 A 
ATOM     17  C   UNL     1       5.352   4.381  15.926  0.00  0.00    +0.000 A 
ATOM     18  C   UNL     1       4.249   4.225  16.778  0.00  0.00    +0.000 A 
ATOM     19  C   UNL     1       4.406   4.413  18.151  0.00  0.00    +0.000 A 
ATOM     20  C   UNL     1       5.642   4.831  18.650  0.00  0.00    +0.000 A 
ATOM     21  C   UNL     1       6.742   4.980  17.798  0.00  0.00    +0.000 A 
BRANCH  16  23
ATOM     22  C   UNL     1       7.234   4.853  14.142  0.00  0.00    +0.000 C 
ATOM     23  O   UNL     1       7.615   4.780  15.510  0.00  0.00    +0.000 OA
ENDBRANCH  16  23
ENDBRANCH  15  19
BRANCH  15  24
ATOM     24  S   UNL     1       3.478   2.570  19.860  0.00  0.00    +0.000 S 
ATOM     25  C   UNL     1       2.565   2.878  21.355  0.00  0.00    +0.000 C 
ATOM     26  O   UNL     1       2.698   1.630  19.074  0.00  0.00    +0.000 OA
ATOM     27  O   UNL     1       4.856   2.287  20.203  0.00  0.00    +0.000 OA
ENDBRANCH  15  24
ENDBRANCH   1  15
TORSDOF 9
ENDMDL
MODEL 7
REMARK VINA RESULT:      -6.7      3.914      5.457
REMARK  Name = 
REMARK  11 active torsions:
REMARK  status: ('A' for Active; 'I' for Inactive)
REMARK    1  A    between atoms: C_1  and  O_2
REMARK    2  A    between atoms: O_2  and  C_3
REMARK    3  A    between atoms: C_6  and  N_7
REMARK    4  A    between atoms: N_7  and  C_8
REMARK    5  A    between atoms: N_7  and  S_21
REMARK    6  A    between atoms: C_8  and  C_9
REMARK    7  A    between atoms: N_11  and  C_12
REMARK    8  A    between atoms: C_12  and  C_13
REMARK    9  A    between atoms: C_13  and  S_14
REMARK   10  A    between atoms: S_14  and  C_15
REMARK   11  A    between atoms: S_21  and  C_22
REMARK                            x       y       z     vdW  Elec       q    Type
REMARK                         _______ _______ _______ _____ _____    ______ ____
ROOT
ATOM      1  C   UNL     1       4.489   5.081  19.104  0.00  0.00    +0.000 C 
ENDROOT
BRANCH   1   2
ATOM      2  C   UNL     1       5.427   5.789  18.127  0.00  0.00    +0.000 C 
ATOM      3  O   UNL     1       5.126   5.955  16.949  0.00  0.00    +0.000 OA
ATOM      4  N   UNL     1       6.639   6.215  18.644  0.00  0.00    +0.000 N 
ATOM      5  H   UNL     1       6.899   5.912  19.582  0.00  0.00    +0.000 HD
BRANCH   4   6
ATOM      6  C   UNL     1       7.650   6.861  17.806  0.00  0.00    +0.000 C 
BRANCH   6   7
ATOM      7  C   UNL     1       8.453   7.947  18.541  0.00  0.00    +0.000 C 
BRANCH   7   8
ATOM      8  S   UNL     1       8.119   9.590  17.792  0.00  0.00    +0.000 S 
BRANCH   8   9
ATOM      9  C   UNL     1       9.356  10.604  18.589  0.00  0.00    +0.000 A 
ATOM     10  C   UNL     1       9.302  10.771  19.978  0.00  0.00    +0.000 A 
ATOM     11  C   UNL     1      10.268  11.534  20.641  0.00  0.00    +0.000 A 
ATOM     12  C   UNL     1      11.303  12.124  19.922  0.00  0.00    +0.000 A 
ATOM     13  C   UNL     1      11.385  11.941  18.541  0.00  0.00    +0.000 A 
ATOM     14  C   UNL     1      10.418  11.181  17.881  0.00  0.00    +0.000 A 
ENDBRANCH   8   9
ENDBRANCH   7   8
ENDBRANCH   6   7
ENDBRANCH   4   6
ENDBRANCH   1   2
BRANCH   1  15
ATOM     15  N   UNL     1       3.087   5.274  18.694  0.00  0.00    +0.000 N 
BRANCH  15  19
ATOM     16  C   UNL     1       1.408   9.015  19.744  0.00  0.00    +0.000 A 
ATOM     17  C   UNL     1       1.766   8.764  18.416  0.00  0.00    +0.000 A 
ATOM     18  C   UNL     1       2.255   7.509  18.026  0.00  0.00    +0.000 A 
ATOM     19  C   UNL     1       2.404   6.501  18.978  0.00  0.00    +0.000 A 
ATOM     20  C   UNL     1       1.992   6.731  20.292  0.00  0.00    +0.000 A 
ATOM     21  C   UNL     1       1.509   7.986  20.679  0.00  0.00    +0.000 A 
BRANCH  16  23
ATOM     22  C   UNL     1      -0.315  10.652  19.686  0.00  0.00    +0.000 C 
ATOM     23  O   UNL     1       1.025  10.301  20.011  0.00  0.00    +0.000 OA
ENDBRANCH  16  23
ENDBRANCH  15  19
BRANCH  15  24
ATOM     24  S   UNL     1       2.158   3.905  18.360  0.00  0.00    +0.000 S 
ATOM     25  C   UNL     1       3.378   2.809  17.671  0.00  0.00    +0.000 C 
ATOM     26  O   UNL     1       1.750   3.337  19.633  0.00  0.00    +0.000 OA
ATOM     27  O   UNL     1       1.182   4.218  17.338  0.00  0.00    +0.000 OA
ENDBRANCH  15  24
ENDBRANCH   1  15
TORSDOF 9
ENDMDL
MODEL 8
REMARK VINA RESULT:      -6.6      2.662      8.112
REMARK  Name = 
REMARK  11 active torsions:
REMARK  status: ('A' for Active; 'I' for Inactive)
REMARK    1  A    between atoms: C_1  and  O_2
REMARK    2  A    between atoms: O_2  and  C_3
REMARK    3  A    between atoms: C_6  and  N_7
REMARK    4  A    between atoms: N_7  and  C_8
REMARK    5  A    between atoms: N_7  and  S_21
REMARK    6  A    between atoms: C_8  and  C_9
REMARK    7  A    between atoms: N_11  and  C_12
REMARK    8  A    between atoms: C_12  and  C_13
REMARK    9  A    between atoms: C_13  and  S_14
REMARK   10  A    between atoms: S_14  and  C_15
REMARK   11  A    between atoms: S_21  and  C_22
REMARK                            x       y       z     vdW  Elec       q    Type
REMARK                         _______ _______ _______ _____ _____    ______ ____
ROOT
ATOM      1  C   UNL     1       3.163   6.043  19.456  0.00  0.00    +0.000 C 
ENDROOT
BRANCH   1   2
ATOM      2  C   UNL     1       2.991   7.171  18.440  0.00  0.00    +0.000 C 
ATOM      3  O   UNL     1       3.819   7.376  17.557  0.00  0.00    +0.000 OA
ATOM      4  N   UNL     1       1.860   7.958  18.585  0.00  0.00    +0.000 N 
ATOM      5  H   UNL     1       1.295   7.842  19.425  0.00  0.00    +0.000 HD
BRANCH   4   6
ATOM      6  C   UNL     1       1.602   9.103  17.711  0.00  0.00    +0.000 C 
BRANCH   6   7
ATOM      7  C   UNL     1       0.457  10.004  18.205  0.00  0.00    +0.000 C 
BRANCH   7   8
ATOM      8  S   UNL     1       1.116  11.297  19.329  0.00  0.00    +0.000 S 
BRANCH   8   9
ATOM      9  C   UNL     1       0.309  10.877  20.868  0.00  0.00    +0.000 A 
ATOM     10  C   UNL     1       0.710   9.721  21.548  0.00  0.00    +0.000 A 
ATOM     11  C   UNL     1       0.122   9.374  22.769  0.00  0.00    +0.000 A 
ATOM     12  C   UNL     1      -0.862  10.187  23.324  0.00  0.00    +0.000 A 
ATOM     13  C   UNL     1      -1.249  11.357  22.670  0.00  0.00    +0.000 A 
ATOM     14  C   UNL     1      -0.663  11.701  21.451  0.00  0.00    +0.000 A 
ENDBRANCH   8   9
ENDBRANCH   7   8
ENDBRANCH   6   7
ENDBRANCH   4   6
ENDBRANCH   1   2
BRANCH   1  15
ATOM     15  N   UNL     1       3.362   4.758  18.761  0.00  0.00    +0.000 N 
BRANCH  15  19
ATOM     16  C   UNL     1       6.564   4.555  16.000  0.00  0.00    +0.000 A 
ATOM     17  C   UNL     1       6.831   4.752  17.359  0.00  0.00    +0.000 A 
ATOM     18  C   UNL     1       5.796   4.749  18.305  0.00  0.00    +0.000 A 
ATOM     19  C   UNL     1       4.479   4.566  17.885  0.00  0.00    +0.000 A 
ATOM     20  C   UNL     1       4.216   4.311  16.537  0.00  0.00    +0.000 A 
ATOM     21  C   UNL     1       5.251   4.320  15.595  0.00  0.00    +0.000 A 
BRANCH  16  23
ATOM     22  C   UNL     1       7.384   4.936  13.802  0.00  0.00    +0.000 C 
ATOM     23  O   UNL     1       7.647   4.663  15.173  0.00  0.00    +0.000 OA
ENDBRANCH  16  23
ENDBRANCH  15  19
BRANCH  15  24
ATOM     24  S   UNL     1       2.037   3.726  18.601  0.00  0.00    +0.000 S 
ATOM     25  C   UNL     1       1.136   4.070  20.096  0.00  0.00    +0.000 C 
ATOM     26  O   UNL     1       1.232   4.221  17.498  0.00  0.00    +0.000 OA
ATOM     27  O   UNL     1       2.487   2.350  18.634  0.00  0.00    +0.000 OA
ENDBRANCH  15  24
ENDBRANCH   1  15
TORSDOF 9
ENDMDL
MODEL 9
REMARK VINA RESULT:      -6.6      4.117      5.573
REMARK  Name = 
REMARK  11 active torsions:
REMARK  status: ('A' for Active; 'I' for Inactive)
REMARK    1  A    between atoms: C_1  and  O_2
REMARK    2  A    between atoms: O_2  and  C_3
REMARK    3  A    between atoms: C_6  and  N_7
REMARK    4  A    between atoms: N_7  and  C_8
REMARK    5  A    between atoms: N_7  and  S_21
REMARK    6  A    between atoms: C_8  and  C_9
REMARK    7  A    between atoms: N_11  and  C_12
REMARK    8  A    between atoms: C_12  and  C_13
REMARK    9  A    between atoms: C_13  and  S_14
REMARK   10  A    between atoms: S_14  and  C_15
REMARK   11  A    between atoms: S_21  and  C_22
REMARK                            x       y       z     vdW  Elec       q    Type
REMARK                         _______ _______ _______ _____ _____    ______ ____
ROOT
ATOM      1  C   UNL     1       4.882   4.986  18.580  0.00  0.00    +0.000 C 
ENDROOT
BRANCH   1   2
ATOM      2  C   UNL     1       5.706   5.909  17.683  0.00  0.00    +0.000 C 
ATOM      3  O   UNL     1       5.463   6.031  16.487  0.00  0.00    +0.000 OA
ATOM      4  N   UNL     1       6.750   6.583  18.295  0.00  0.00    +0.000 N 
ATOM      5  H   UNL     1       7.001   6.323  19.248  0.00  0.00    +0.000 HD
BRANCH   4   6
ATOM      6  C   UNL     1       7.649   7.457  17.540  0.00  0.00    +0.000 C 
BRANCH   6   7
ATOM      7  C   UNL     1       8.457   8.417  18.428  0.00  0.00    +0.000 C 
BRANCH   7   8
ATOM      8  S   UNL     1       8.287  10.138  17.811  0.00  0.00    +0.000 S 
BRANCH   8   9
ATOM      9  C   UNL     1       9.652  10.949  18.631  0.00  0.00    +0.000 A 
ATOM     10  C   UNL     1      10.690  11.477  17.853  0.00  0.00    +0.000 A 
ATOM     11  C   UNL     1      11.762  12.144  18.455  0.00  0.00    +0.000 A 
ATOM     12  C   UNL     1      11.798  12.297  19.839  0.00  0.00    +0.000 A 
ATOM     13  C   UNL     1      10.755  11.801  20.621  0.00  0.00    +0.000 A 
ATOM     14  C   UNL     1       9.687  11.134  20.018  0.00  0.00    +0.000 A 
ENDBRANCH   8   9
ENDBRANCH   7   8
ENDBRANCH   6   7
ENDBRANCH   4   6
ENDBRANCH   1   2
BRANCH   1  15
ATOM     15  N   UNL     1       3.450   5.096  18.246  0.00  0.00    +0.000 N 
BRANCH  15  19
ATOM     16  C   UNL     1       1.584   8.681  19.504  0.00  0.00    +0.000 A 
ATOM     17  C   UNL     1       1.917   8.508  18.157  0.00  0.00    +0.000 A 
ATOM     18  C   UNL     1       2.468   7.302  17.700  0.00  0.00    +0.000 A 
ATOM     19  C   UNL     1       2.704   6.266  18.602  0.00  0.00    +0.000 A 
ATOM     20  C   UNL     1       2.318   6.415  19.936  0.00  0.00    +0.000 A 
ATOM     21  C   UNL     1       1.774   7.622  20.391  0.00  0.00    +0.000 A 
BRANCH  16  23
ATOM     22  C   UNL     1       1.208  10.929  18.828  0.00  0.00    +0.000 C 
ATOM     23  O   UNL     1       1.133   9.928  19.837  0.00  0.00    +0.000 OA
ENDBRANCH  16  23
ENDBRANCH  15  19
BRANCH  15  24
ATOM     24  S   UNL     1       2.597   3.678  17.917  0.00  0.00    +0.000 S 
ATOM     25  C   UNL     1       2.377   3.009  19.551  0.00  0.00    +0.000 C 
ATOM     26  O   UNL     1       1.282   4.064  17.437  0.00  0.00    +0.000 OA
ATOM     27  O   UNL     1       3.433   2.776  17.152  0.00  0.00    +0.000 OA
ENDBRANCH  15  24
ENDBRANCH   1  15
TORSDOF 9
ENDMDL
