MODEL 1
REMARK VINA RESULT:      -7.8      0.000      0.000
REMARK  Name = 
REMARK  9 active torsions:
REMARK  status: ('A' for Active; 'I' for Inactive)
REMARK    1  A    between atoms: C_1  and  S_2
REMARK    2  A    between atoms: S_2  and  N_5
REMARK    3  A    between atoms: N_5  and  C_6
REMARK    4  A    between atoms: C_9  and  N_10
REMARK    5  A    between atoms: N_15  and  C_16
REMARK    6  A    between atoms: C_16  and  C_17
REMARK    7  A    between atoms: C_17  and  O_18
REMARK    8  A    between atoms: N_21  and  C_22
REMARK    9  A    between atoms: C_22  and  C_23
REMARK                            x       y       z     vdW  Elec       q    Type
REMARK                         _______ _______ _______ _____ _____    ______ ____
ROOT
ATOM      1  N   UNL     1       2.625   6.253  18.227  0.00  0.00    +0.000 N 
ATOM      2  C   UNL     1       3.825   5.918  17.626  0.00  0.00    +0.000 A 
ATOM      3  N   UNL     1       4.732   6.824  17.489  0.00  0.00    +0.000 NA
ATOM      4  C   UNL     1       5.894   6.614  16.844  0.00  0.00    +0.000 A 
ATOM      5  O   UNL     1       6.624   7.564  16.574  0.00  0.00    +0.000 OA
ATOM      6  N   UNL     1       6.210   5.331  16.498  0.00  0.00    +0.000 N 
ATOM      7  C   UNL     1       5.278   4.327  16.552  0.00  0.00    +0.000 A 
ATOM      8  O   UNL     1       5.478   3.223  16.041  0.00  0.00    +0.000 OA
ATOM      9  N   UNL     1       4.065   4.640  17.159  0.00  0.00    +0.000 N 
ATOM     10  H   UNL     1       1.954   5.525  18.424  0.00  0.00    +0.000 HD
ENDROOT
BRANCH   1  14
ATOM     11  C   UNL     1       1.199  10.044  19.505  0.00  0.00    +0.000 A 
ATOM     12  C   UNL     1       1.317   8.983  20.396  0.00  0.00    +0.000 A 
ATOM     13  C   UNL     1       1.790   7.743  19.950  0.00  0.00    +0.000 A 
ATOM     14  C   UNL     1       2.174   7.543  18.612  0.00  0.00    +0.000 A 
ATOM     15  C   UNL     1       2.012   8.630  17.736  0.00  0.00    +0.000 A 
ATOM     16  C   UNL     1       1.535   9.870  18.170  0.00  0.00    +0.000 A 
BRANCH  11  17
ATOM     17  N   UNL     1       0.901  11.351  20.001  0.00  0.00    +0.000 N 
ATOM     18  H   UNL     1       1.412  11.581  20.858  0.00  0.00    +0.000 HD
BRANCH  17  20
ATOM     19  C   UNL     1      -0.838  13.381  20.093  0.00  0.00    +0.000 C 
ATOM     20  S   UNL     1      -0.756  11.621  20.315  0.00  0.00    +0.000 S 
ATOM     21  O   UNL     1      -0.937  11.341  21.723  0.00  0.00    +0.000 OA
ATOM     22  O   UNL     1      -1.577  11.004  19.300  0.00  0.00    +0.000 OA
ENDBRANCH  17  20
ENDBRANCH  11  17
ENDBRANCH   1  14
BRANCH   6  23
ATOM     23  C   UNL     1       7.468   5.127  15.775  0.00  0.00    +0.000 C 
BRANCH  23  24
ATOM     24  C   UNL     1       7.289   5.076  14.254  0.00  0.00    +0.000 C 
BRANCH  24  25
ATOM     25  O   UNL     1       8.343   5.772  13.597  0.00  0.00    +0.000 OA
ATOM     26  H   UNL     1       8.271   5.569  12.647  0.00  0.00    +0.000 HD
ENDBRANCH  24  25
ENDBRANCH  23  24
ENDBRANCH   6  23
BRANCH   9  27
ATOM     27  C   UNL     1       3.041   3.590  17.105  0.00  0.00    +0.000 C 
BRANCH  27  28
ATOM     28  C   UNL     1       2.531   3.091  18.447  0.00  0.00    +0.000 A 
ATOM     29  C   UNL     1       3.396   2.743  19.494  0.00  0.00    +0.000 A 
ATOM     30  C   UNL     1       2.898   2.480  20.774  0.00  0.00    +0.000 A 
ATOM     31  C   UNL     1       1.530   2.557  21.021  0.00  0.00    +0.000 A 
ATOM     32 CL   UNL     1       0.935   2.342  22.621  0.00  0.00    +0.000 Cl
ATOM     33  C   UNL     1       0.647   2.842  19.984  0.00  0.00    +0.000 A 
ATOM     34  C   UNL     1       1.145   3.104  18.703  0.00  0.00    +0.000 A 
ENDBRANCH  27  28
ENDBRANCH   9  27
TORSDOF 8
ENDMDL
MODEL 2
REMARK VINA RESULT:      -7.7      3.035      4.988
REMARK  Name = 
REMARK  9 active torsions:
REMARK  status: ('A' for Active; 'I' for Inactive)
REMARK    1  A    between atoms: C_1  and  S_2
REMARK    2  A    between atoms: S_2  and  N_5
REMARK    3  A    between atoms: N_5  and  C_6
REMARK    4  A    between atoms: C_9  and  N_10
REMARK    5  A    between atoms: N_15  and  C_16
REMARK    6  A    between atoms: C_16  and  C_17
REMARK    7  A    between atoms: C_17  and  O_18
REMARK    8  A    between atoms: N_21  and  C_22
REMARK    9  A    between atoms: C_22  and  C_23
REMARK                            x       y       z     vdW  Elec       q    Type
REMARK                         _______ _______ _______ _____ _____    ______ ____
ROOT
ATOM      1  N   UNL     1       2.930   7.614  18.704  0.00  0.00    +0.000 N 
ATOM      2  C   UNL     1       3.014   6.276  19.044  0.00  0.00    +0.000 A 
ATOM      3  N   UNL     1       1.989   5.697  19.570  0.00  0.00    +0.000 NA
ATOM      4  C   UNL     1       2.004   4.426  20.008  0.00  0.00    +0.000 A 
ATOM      5  O   UNL     1       1.067   3.998  20.677  0.00  0.00    +0.000 OA
ATOM      6  N   UNL     1       3.088   3.655  19.698  0.00  0.00    +0.000 N 
ATOM      7  C   UNL     1       4.239   4.209  19.199  0.00  0.00    +0.000 A 
ATOM      8  O   UNL     1       5.291   3.571  19.122  0.00  0.00    +0.000 OA
ATOM      9  N   UNL     1       4.175   5.554  18.845  0.00  0.00    +0.000 N 
ATOM     10  H   UNL     1       3.695   8.043  18.204  0.00  0.00    +0.000 HD
ENDROOT
BRANCH   1  14
ATOM     11  C   UNL     1      -0.259  10.242  19.685  0.00  0.00    +0.000 A 
ATOM     12  C   UNL     1       0.388   9.499  20.667  0.00  0.00    +0.000 A 
ATOM     13  C   UNL     1       1.436   8.640  20.318  0.00  0.00    +0.000 A 
ATOM     14  C   UNL     1       1.874   8.520  18.987  0.00  0.00    +0.000 A 
ATOM     15  C   UNL     1       1.176   9.265  18.021  0.00  0.00    +0.000 A 
ATOM     16  C   UNL     1       0.124  10.121  18.358  0.00  0.00    +0.000 A 
BRANCH  11  17
ATOM     17  N   UNL     1      -1.193  11.254  20.069  0.00  0.00    +0.000 N 
ATOM     18  H   UNL     1      -1.772  11.582  19.292  0.00  0.00    +0.000 HD
BRANCH  17  20
ATOM     19  C   UNL     1      -1.873  13.733  20.809  0.00  0.00    +0.000 C 
ATOM     20  S   UNL     1      -0.479  12.633  20.781  0.00  0.00    +0.000 S 
ATOM     21  O   UNL     1       0.463  13.133  19.803  0.00  0.00    +0.000 OA
ATOM     22  O   UNL     1      -0.095  12.364  22.147  0.00  0.00    +0.000 OA
ENDBRANCH  17  20
ENDBRANCH  11  17
ENDBRANCH   1  14
BRANCH   6  23
ATOM     23  C   UNL     1       3.096   2.280  20.206  0.00  0.00    +0.000 C 
BRANCH  23  24
ATOM     24  C   UNL     1       2.940   1.227  19.103  0.00  0.00    +0.000 C 
BRANCH  24  25
ATOM     25  O   UNL     1       4.213   0.796  18.634  0.00  0.00    +0.000 OA
ATOM     26  H   UNL     1       4.801   1.572  18.646  0.00  0.00    +0.000 HD
ENDBRANCH  24  25
ENDBRANCH  23  24
ENDBRANCH   6  23
BRANCH   9  27
ATOM     27  C   UNL     1       5.444   6.157  18.421  0.00  0.00    +0.000 C 
BRANCH  27  28
ATOM     28  C   UNL     1       5.915   5.801  17.022  0.00  0.00    +0.000 A 
ATOM     29  C   UNL     1       7.100   5.089  16.789  0.00  0.00    +0.000 A 
ATOM     30  C   UNL     1       7.403   4.604  15.513  0.00  0.00    +0.000 A 
ATOM     31  C   UNL     1       6.529   4.829  14.454  0.00  0.00    +0.000 A 
ATOM     32 CL   UNL     1       6.853   4.136  12.913  0.00  0.00    +0.000 Cl
ATOM     33  C   UNL     1       5.376   5.583  14.647  0.00  0.00    +0.000 A 
ATOM     34  C   UNL     1       5.073   6.069  15.924  0.00  0.00    +0.000 A 
ENDBRANCH  27  28
ENDBRANCH   9  27
TORSDOF 8
ENDMDL
MODEL 3
REMARK VINA RESULT:      -7.6      0.706      1.157
REMARK  Name = 
REMARK  9 active torsions:
REMARK  status: ('A' for Active; 'I' for Inactive)
REMARK    1  A    between atoms: C_1  and  S_2
REMARK    2  A    between atoms: S_2  and  N_5
REMARK    3  A    between atoms: N_5  and  C_6
REMARK    4  A    between atoms: C_9  and  N_10
REMARK    5  A    between atoms: N_15  and  C_16
REMARK    6  A    between atoms: C_16  and  C_17
REMARK    7  A    between atoms: C_17  and  O_18
REMARK    8  A    between atoms: N_21  and  C_22
REMARK    9  A    between atoms: C_22  and  C_23
REMARK                            x       y       z     vdW  Elec       q    Type
REMARK                         _______ _______ _______ _____ _____    ______ ____
ROOT
ATOM      1  N   UNL     1       2.588   6.258  18.253  0.00  0.00    +0.000 N 
ATOM      2  C   UNL     1       3.788   5.927  17.651  0.00  0.00    +0.000 A 
ATOM      3  N   UNL     1       4.689   6.838  17.505  0.00  0.00    +0.000 NA
ATOM      4  C   UNL     1       5.850   6.631  16.858  0.00  0.00    +0.000 A 
ATOM      5  O   UNL     1       6.573   7.584  16.579  0.00  0.00    +0.000 OA
ATOM      6  N   UNL     1       6.173   5.348  16.519  0.00  0.00    +0.000 N 
ATOM      7  C   UNL     1       5.247   4.339  16.582  0.00  0.00    +0.000 A 
ATOM      8  O   UNL     1       5.452   3.233  16.077  0.00  0.00    +0.000 OA
ATOM      9  N   UNL     1       4.034   4.648  17.190  0.00  0.00    +0.000 N 
ATOM     10  H   UNL     1       1.922   5.528  18.457  0.00  0.00    +0.000 HD
ENDROOT
BRANCH   1  14
ATOM     11  C   UNL     1       1.300  10.178  19.263  0.00  0.00    +0.000 A 
ATOM     12  C   UNL     1       1.716   9.868  17.972  0.00  0.00    +0.000 A 
ATOM     13  C   UNL     1       2.136   8.568  17.665  0.00  0.00    +0.000 A 
ATOM     14  C   UNL     1       2.130   7.548  18.632  0.00  0.00    +0.000 A 
ATOM     15  C   UNL     1       1.731   7.908  19.931  0.00  0.00    +0.000 A 
ATOM     16  C   UNL     1       1.316   9.204  20.250  0.00  0.00    +0.000 A 
BRANCH  11  17
ATOM     17  N   UNL     1       0.695  11.447  19.522  0.00  0.00    +0.000 N 
ATOM     18  H   UNL     1       0.761  11.731  20.503  0.00  0.00    +0.000 HD
BRANCH  17  20
ATOM     19  C   UNL     1      -1.659  12.095  20.614  0.00  0.00    +0.000 C 
ATOM     20  S   UNL     1      -0.953  11.540  19.082  0.00  0.00    +0.000 S 
ATOM     21  O   UNL     1      -1.377  10.174  18.865  0.00  0.00    +0.000 OA
ATOM     22  O   UNL     1      -1.162  12.572  18.094  0.00  0.00    +0.000 OA
ENDBRANCH  17  20
ENDBRANCH  11  17
ENDBRANCH   1  14
BRANCH   6  23
ATOM     23  C   UNL     1       7.430   5.147  15.792  0.00  0.00    +0.000 C 
BRANCH  23  24
ATOM     24  C   UNL     1       7.242   5.054  14.274  0.00  0.00    +0.000 C 
BRANCH  24  25
ATOM     25  O   UNL     1       8.279   5.753  13.593  0.00  0.00    +0.000 OA
ATOM     26  H   UNL     1       8.160   5.583  12.641  0.00  0.00    +0.000 HD
ENDBRANCH  24  25
ENDBRANCH  23  24
ENDBRANCH   6  23
BRANCH   9  27
ATOM     27  C   UNL     1       3.017   3.591  17.147  0.00  0.00    +0.000 C 
BRANCH  27  28
ATOM     28  C   UNL     1       2.520   3.092  18.493  0.00  0.00    +0.000 A 
ATOM     29  C   UNL     1       3.393   2.786  19.546  0.00  0.00    +0.000 A 
ATOM     30  C   UNL     1       2.900   2.521  20.828  0.00  0.00    +0.000 A 
ATOM     31  C   UNL     1       1.530   2.555  21.071  0.00  0.00    +0.000 A 
ATOM     32 CL   UNL     1       0.938   2.341  22.672  0.00  0.00    +0.000 Cl
ATOM     33  C   UNL     1       0.641   2.798  20.029  0.00  0.00    +0.000 A 
ATOM     34  C   UNL     1       1.134   3.062  18.746  0.00  0.00    +0.000 A 
ENDBRANCH  27  28
ENDBRANCH   9  27
TORSDOF 8
ENDMDL
MODEL 4
REMARK VINA RESULT:      -7.6      3.089      5.077
REMARK  Name = 
REMARK  9 active torsions:
REMARK  status: ('A' for Active; 'I' for Inactive)
REMARK    1  A    between atoms: C_1  and  S_2
REMARK    2  A    between atoms: S_2  and  N_5
REMARK    3  A    between atoms: N_5  and  C_6
REMARK    4  A    between atoms: C_9  and  N_10
REMARK    5  A    between atoms: N_15  and  C_16
REMARK    6  A    between atoms: C_16  and  C_17
REMARK    7  A    between atoms: C_17  and  O_18
REMARK    8  A    between atoms: N_21  and  C_22
REMARK    9  A    between atoms: C_22  and  C_23
REMARK                            x       y       z     vdW  Elec       q    Type
REMARK                         _______ _______ _______ _____ _____    ______ ____
ROOT
ATOM      1  N   UNL     1       2.897   7.551  18.909  0.00  0.00    +0.000 N 
ATOM      2  C   UNL     1       2.951   6.196  19.179  0.00  0.00    +0.000 A 
ATOM      3  N   UNL     1       1.908   5.610  19.661  0.00  0.00    +0.000 NA
ATOM      4  C   UNL     1       1.893   4.318  20.033  0.00  0.00    +0.000 A 
ATOM      5  O   UNL     1       0.938   3.874  20.666  0.00  0.00    +0.000 OA
ATOM      6  N   UNL     1       2.967   3.543  19.697  0.00  0.00    +0.000 N 
ATOM      7  C   UNL     1       4.135   4.101  19.244  0.00  0.00    +0.000 A 
ATOM      8  O   UNL     1       5.175   3.447  19.147  0.00  0.00    +0.000 OA
ATOM      9  N   UNL     1       4.101   5.462  18.959  0.00  0.00    +0.000 N 
ATOM     10  H   UNL     1       3.676   7.990  18.441  0.00  0.00    +0.000 HD
ENDROOT
BRANCH   1  14
ATOM     11  C   UNL     1      -0.180  10.363  19.724  0.00  0.00    +0.000 A 
ATOM     12  C   UNL     1       0.350  10.228  18.445  0.00  0.00    +0.000 A 
ATOM     13  C   UNL     1       1.364   9.294  18.202  0.00  0.00    +0.000 A 
ATOM     14  C   UNL     1       1.854   8.462  19.224  0.00  0.00    +0.000 A 
ATOM     15  C   UNL     1       1.313   8.648  20.508  0.00  0.00    +0.000 A 
ATOM     16  C   UNL     1       0.305   9.582  20.762  0.00  0.00    +0.000 A 
BRANCH  11  17
ATOM     17  N   UNL     1      -1.339  11.176  19.923  0.00  0.00    +0.000 N 
ATOM     18  H   UNL     1      -1.831  11.394  19.053  0.00  0.00    +0.000 HD
BRANCH  17  20
ATOM     19  C   UNL     1      -1.475  12.233  22.377  0.00  0.00    +0.000 C 
ATOM     20  S   UNL     1      -1.028  12.659  20.711  0.00  0.00    +0.000 S 
ATOM     21  O   UNL     1      -2.019  13.584  20.207  0.00  0.00    +0.000 OA
ATOM     22  O   UNL     1       0.383  12.963  20.692  0.00  0.00    +0.000 OA
ENDBRANCH  17  20
ENDBRANCH  11  17
ENDBRANCH   1  14
BRANCH   6  23
ATOM     23  C   UNL     1       2.941   2.144  20.133  0.00  0.00    +0.000 C 
BRANCH  23  24
ATOM     24  C   UNL     1       2.761   1.154  18.977  0.00  0.00    +0.000 C 
BRANCH  24  25
ATOM     25  O   UNL     1       4.023   0.701  18.499  0.00  0.00    +0.000 OA
ATOM     26  H   UNL     1       4.320  -0.006  19.099  0.00  0.00    +0.000 HD
ENDBRANCH  24  25
ENDBRANCH  23  24
ENDBRANCH   6  23
BRANCH   9  27
ATOM     27  C   UNL     1       5.387   6.062  18.584  0.00  0.00    +0.000 C 
BRANCH  27  28
ATOM     28  C   UNL     1       5.879   5.756  17.180  0.00  0.00    +0.000 A 
ATOM     29  C   UNL     1       7.075   5.065  16.941  0.00  0.00    +0.000 A 
ATOM     30  C   UNL     1       7.400   4.624  15.653  0.00  0.00    +0.000 A 
ATOM     31  C   UNL     1       6.536   4.874  14.591  0.00  0.00    +0.000 A 
ATOM     32 CL   UNL     1       6.887   4.233  13.033  0.00  0.00    +0.000 Cl
ATOM     33  C   UNL     1       5.373   5.608  14.793  0.00  0.00    +0.000 A 
ATOM     34  C   UNL     1       5.048   6.050  16.080  0.00  0.00    +0.000 A 
ENDBRANCH  27  28
ENDBRANCH   9  27
TORSDOF 8
ENDMDL
MODEL 5
REMARK VINA RESULT:      -7.5      3.232      5.194
REMARK  Name = 
REMARK  9 active torsions:
REMARK  status: ('A' for Active; 'I' for Inactive)
REMARK    1  A    between atoms: C_1  and  S_2
REMARK    2  A    between atoms: S_2  and  N_5
REMARK    3  A    between atoms: N_5  and  C_6
REMARK    4  A    between atoms: C_9  and  N_10
REMARK    5  A    between atoms: N_15  and  C_16
REMARK    6  A    between atoms: C_16  and  C_17
REMARK    7  A    between atoms: C_17  and  O_18
REMARK    8  A    between atoms: N_21  and  C_22
REMARK    9  A    between atoms: C_22  and  C_23
REMARK                            x       y       z     vdW  Elec       q    Type
REMARK                         _______ _______ _______ _____ _____    ______ ____
ROOT
ATOM      1  N   UNL     1       2.874   7.565  18.744  0.00  0.00    +0.000 N 
ATOM      2  C   UNL     1       2.930   6.232  19.108  0.00  0.00    +0.000 A 
ATOM      3  N   UNL     1       1.874   5.669  19.589  0.00  0.00    +0.000 NA
ATOM      4  C   UNL     1       1.855   4.405  20.047  0.00  0.00    +0.000 A 
ATOM      5  O   UNL     1       0.881   3.994  20.673  0.00  0.00    +0.000 OA
ATOM      6  N   UNL     1       2.948   3.622  19.807  0.00  0.00    +0.000 N 
ATOM      7  C   UNL     1       4.128   4.160  19.361  0.00  0.00    +0.000 A 
ATOM      8  O   UNL     1       5.178   3.513  19.350  0.00  0.00    +0.000 OA
ATOM      9  N   UNL     1       4.093   5.499  18.983  0.00  0.00    +0.000 N 
ATOM     10  H   UNL     1       3.667   7.981  18.278  0.00  0.00    +0.000 HD
ENDROOT
BRANCH   1  14
ATOM     11  C   UNL     1      -0.255  10.393  19.249  0.00  0.00    +0.000 A 
ATOM     12  C   UNL     1       0.342  10.195  18.008  0.00  0.00    +0.000 A 
ATOM     13  C   UNL     1       1.371   9.257  17.868  0.00  0.00    +0.000 A 
ATOM     14  C   UNL     1       1.811   8.483  18.956  0.00  0.00    +0.000 A 
ATOM     15  C   UNL     1       1.204   8.734  20.199  0.00  0.00    +0.000 A 
ATOM     16  C   UNL     1       0.180   9.672  20.351  0.00  0.00    +0.000 A 
BRANCH  11  17
ATOM     17  N   UNL     1      -1.427  11.206  19.344  0.00  0.00    +0.000 N 
ATOM     18  H   UNL     1      -1.935  11.075  20.223  0.00  0.00    +0.000 HD
BRANCH  17  20
ATOM     19  C   UNL     1      -3.980  11.760  18.771  0.00  0.00    +0.000 C 
ATOM     20  S   UNL     1      -2.546  10.975  18.076  0.00  0.00    +0.000 S 
ATOM     21  O   UNL     1      -2.796   9.551  18.030  0.00  0.00    +0.000 OA
ATOM     22  O   UNL     1      -2.154  11.722  16.903  0.00  0.00    +0.000 OA
ENDBRANCH  17  20
ENDBRANCH  11  17
ENDBRANCH   1  14
BRANCH   6  23
ATOM     23  C   UNL     1       2.918   2.255  20.336  0.00  0.00    +0.000 C 
BRANCH  23  24
ATOM     24  C   UNL     1       2.867   1.184  19.242  0.00  0.00    +0.000 C 
BRANCH  24  25
ATOM     25  O   UNL     1       2.082   1.626  18.139  0.00  0.00    +0.000 OA
ATOM     26  H   UNL     1       2.647   1.576  17.348  0.00  0.00    +0.000 HD
ENDBRANCH  24  25
ENDBRANCH  23  24
ENDBRANCH   6  23
BRANCH   9  27
ATOM     27  C   UNL     1       5.388   6.087  18.617  0.00  0.00    +0.000 C 
BRANCH  27  28
ATOM     28  C   UNL     1       5.881   5.785  17.212  0.00  0.00    +0.000 A 
ATOM     29  C   UNL     1       7.064   5.072  16.972  0.00  0.00    +0.000 A 
ATOM     30  C   UNL     1       7.387   4.638  15.682  0.00  0.00    +0.000 A 
ATOM     31  C   UNL     1       6.535   4.917  14.617  0.00  0.00    +0.000 A 
ATOM     32 CL   UNL     1       6.881   4.286  13.055  0.00  0.00    +0.000 Cl
ATOM     33  C   UNL     1       5.386   5.674  14.821  0.00  0.00    +0.000 A 
ATOM     34  C   UNL     1       5.063   6.109  16.112  0.00  0.00    +0.000 A 
ENDBRANCH  27  28
ENDBRANCH   9  27
TORSDOF 8
ENDMDL
MODEL 6
REMARK VINA RESULT:      -7.5      3.139      5.285
REMARK  Name = 
REMARK  9 active torsions:
REMARK  status: ('A' for Active; 'I' for Inactive)
REMARK    1  A    between atoms: C_1  and  S_2
REMARK    2  A    between atoms: S_2  and  N_5
REMARK    3  A    between atoms: N_5  and  C_6
REMARK    4  A    between atoms: C_9  and  N_10
REMARK    5  A    between atoms: N_15  and  C_16
REMARK    6  A    between atoms: C_16  and  C_17
REMARK    7  A    between atoms: C_17  and  O_18
REMARK    8  A    between atoms: N_21  and  C_22
REMARK    9  A    between atoms: C_22  and  C_23
REMARK                            x       y       z     vdW  Elec       q    Type
REMARK                         _______ _______ _______ _____ _____    ______ ____
ROOT
ATOM      1  N   UNL     1       2.893   7.550  18.745  0.00  0.00    +0.000 N 
ATOM      2  C   UNL     1       2.847   6.206  19.066  0.00  0.00    +0.000 A 
ATOM      3  N   UNL     1       1.738   5.698  19.484  0.00  0.00    +0.000 NA
ATOM      4  C   UNL     1       1.620   4.424  19.898  0.00  0.00    +0.000 A 
ATOM      5  O   UNL     1       0.596   4.058  20.470  0.00  0.00    +0.000 OA
ATOM      6  N   UNL     1       2.669   3.578  19.674  0.00  0.00    +0.000 N 
ATOM      7  C   UNL     1       3.899   4.052  19.294  0.00  0.00    +0.000 A 
ATOM      8  O   UNL     1       4.904   3.339  19.301  0.00  0.00    +0.000 OA
ATOM      9  N   UNL     1       3.966   5.402  18.961  0.00  0.00    +0.000 N 
ATOM     10  H   UNL     1       3.729   7.928  18.326  0.00  0.00    +0.000 HD
ENDROOT
BRANCH   1  14
ATOM     11  C   UNL     1      -0.167  10.402  19.486  0.00  0.00    +0.000 A 
ATOM     12  C   UNL     1       0.392   9.662  20.523  0.00  0.00    +0.000 A 
ATOM     13  C   UNL     1       1.399   8.728  20.252  0.00  0.00    +0.000 A 
ATOM     14  C   UNL     1       1.883   8.529  18.947  0.00  0.00    +0.000 A 
ATOM     15  C   UNL     1       1.273   9.274  17.924  0.00  0.00    +0.000 A 
ATOM     16  C   UNL     1       0.263  10.204  18.182  0.00  0.00    +0.000 A 
BRANCH  11  17
ATOM     17  N   UNL     1      -1.051  11.483  19.790  0.00  0.00    +0.000 N 
ATOM     18  H   UNL     1      -1.474  11.902  18.958  0.00  0.00    +0.000 HD
BRANCH  17  20
ATOM     19  C   UNL     1      -1.401  14.096  20.240  0.00  0.00    +0.000 C 
ATOM     20  S   UNL     1      -0.331  12.749  20.681  0.00  0.00    +0.000 S 
ATOM     21  O   UNL     1       0.956  12.980  20.061  0.00  0.00    +0.000 OA
ATOM     22  O   UNL     1      -0.466  12.518  22.101  0.00  0.00    +0.000 OA
ENDBRANCH  17  20
ENDBRANCH  11  17
ENDBRANCH   1  14
BRANCH   6  23
ATOM     23  C   UNL     1       2.530   2.201  20.154  0.00  0.00    +0.000 C 
BRANCH  23  24
ATOM     24  C   UNL     1       2.753   2.062  21.664  0.00  0.00    +0.000 C 
BRANCH  24  25
ATOM     25  O   UNL     1       1.533   2.239  22.374  0.00  0.00    +0.000 OA
ATOM     26  H   UNL     1       1.633   3.040  22.919  0.00  0.00    +0.000 HD
ENDBRANCH  24  25
ENDBRANCH  23  24
ENDBRANCH   6  23
BRANCH   9  27
ATOM     27  C   UNL     1       5.309   5.915  18.667  0.00  0.00    +0.000 C 
BRANCH  27  28
ATOM     28  C   UNL     1       5.832   5.645  17.266  0.00  0.00    +0.000 A 
ATOM     29  C   UNL     1       6.982   4.880  17.031  0.00  0.00    +0.000 A 
ATOM     30  C   UNL     1       7.324   4.484  15.734  0.00  0.00    +0.000 A 
ATOM     31  C   UNL     1       6.522   4.852  14.657  0.00  0.00    +0.000 A 
ATOM     32 CL   UNL     1       6.885   4.269  13.080  0.00  0.00    +0.000 Cl
ATOM     33  C   UNL     1       5.409   5.661  14.858  0.00  0.00    +0.000 A 
ATOM     34  C   UNL     1       5.067   6.058  16.156  0.00  0.00    +0.000 A 
ENDBRANCH  27  28
ENDBRANCH   9  27
TORSDOF 8
ENDMDL
MODEL 7
REMARK VINA RESULT:      -7.4      3.051      5.077
REMARK  Name = 
REMARK  9 active torsions:
REMARK  status: ('A' for Active; 'I' for Inactive)
REMARK    1  A    between atoms: C_1  and  S_2
REMARK    2  A    between atoms: S_2  and  N_5
REMARK    3  A    between atoms: N_5  and  C_6
REMARK    4  A    between atoms: C_9  and  N_10
REMARK    5  A    between atoms: N_15  and  C_16
REMARK    6  A    between atoms: C_16  and  C_17
REMARK    7  A    between atoms: C_17  and  O_18
REMARK    8  A    between atoms: N_21  and  C_22
REMARK    9  A    between atoms: C_22  and  C_23
REMARK                            x       y       z     vdW  Elec       q    Type
REMARK                         _______ _______ _______ _____ _____    ______ ____
ROOT
ATOM      1  N   UNL     1       2.990   7.512  18.392  0.00  0.00    +0.000 N 
ATOM      2  C   UNL     1       3.249   6.226  18.833  0.00  0.00    +0.000 A 
ATOM      3  N   UNL     1       2.431   5.672  19.661  0.00  0.00    +0.000 NA
ATOM      4  C   UNL     1       2.642   4.461  20.207  0.00  0.00    +0.000 A 
ATOM      5  O   UNL     1       1.935   4.076  21.135  0.00  0.00    +0.000 OA
ATOM      6  N   UNL     1       3.664   3.704  19.709  0.00  0.00    +0.000 N 
ATOM      7  C   UNL     1       4.612   4.243  18.878  0.00  0.00    +0.000 A 
ATOM      8  O   UNL     1       5.652   3.643  18.598  0.00  0.00    +0.000 OA
ATOM      9  N   UNL     1       4.369   5.533  18.417  0.00  0.00    +0.000 N 
ATOM     10  H   UNL     1       3.574   7.910  17.671  0.00  0.00    +0.000 HD
ENDROOT
BRANCH   1  14
ATOM     11  C   UNL     1      -0.062  10.072  19.865  0.00  0.00    +0.000 A 
ATOM     12  C   UNL     1       0.594   9.178  20.705  0.00  0.00    +0.000 A 
ATOM     13  C   UNL     1       1.597   8.345  20.195  0.00  0.00    +0.000 A 
ATOM     14  C   UNL     1       1.979   8.401  18.843  0.00  0.00    +0.000 A 
ATOM     15  C   UNL     1       1.273   9.295  18.020  0.00  0.00    +0.000 A 
ATOM     16  C   UNL     1       0.267  10.127  18.518  0.00  0.00    +0.000 A 
BRANCH  11  17
ATOM     17  N   UNL     1      -0.942  11.048  20.425  0.00  0.00    +0.000 N 
ATOM     18  H   UNL     1      -1.327  11.690  19.727  0.00  0.00    +0.000 HD
BRANCH  17  20
ATOM     19  C   UNL     1      -1.227  13.474  21.517  0.00  0.00    +0.000 C 
ATOM     20  S   UNL     1      -0.240  12.004  21.654  0.00  0.00    +0.000 S 
ATOM     21  O   UNL     1       1.094  12.317  21.190  0.00  0.00    +0.000 OA
ATOM     22  O   UNL     1      -0.481  11.424  22.955  0.00  0.00    +0.000 OA
ENDBRANCH  17  20
ENDBRANCH  11  17
ENDBRANCH   1  14
BRANCH   6  23
ATOM     23  C   UNL     1       3.893   2.398  20.335  0.00  0.00    +0.000 C 
BRANCH  23  24
ATOM     24  C   UNL     1       3.798   1.230  19.348  0.00  0.00    +0.000 C 
BRANCH  24  25
ATOM     25  O   UNL     1       2.657   1.369  18.509  0.00  0.00    +0.000 OA
ATOM     26  H   UNL     1       2.918   1.070  17.619  0.00  0.00    +0.000 HD
ENDBRANCH  24  25
ENDBRANCH  23  24
ENDBRANCH   6  23
BRANCH   9  27
ATOM     27  C   UNL     1       5.447   6.135  17.622  0.00  0.00    +0.000 C 
BRANCH  27  28
ATOM     28  C   UNL     1       5.817   5.403  16.343  0.00  0.00    +0.000 A 
ATOM     29  C   UNL     1       4.851   4.836  15.499  0.00  0.00    +0.000 A 
ATOM     30  C   UNL     1       5.204   4.347  14.237  0.00  0.00    +0.000 A 
ATOM     31  C   UNL     1       6.526   4.415  13.806  0.00  0.00    +0.000 A 
ATOM     32 CL   UNL     1       6.933   3.915  12.211  0.00  0.00    +0.000 Cl
ATOM     33  C   UNL     1       7.511   4.919  14.649  0.00  0.00    +0.000 A 
ATOM     34  C   UNL     1       7.159   5.407  15.912  0.00  0.00    +0.000 A 
ENDBRANCH  27  28
ENDBRANCH   9  27
TORSDOF 8
ENDMDL
MODEL 8
REMARK VINA RESULT:      -7.4      1.117      1.231
REMARK  Name = 
REMARK  9 active torsions:
REMARK  status: ('A' for Active; 'I' for Inactive)
REMARK    1  A    between atoms: C_1  and  S_2
REMARK    2  A    between atoms: S_2  and  N_5
REMARK    3  A    between atoms: N_5  and  C_6
REMARK    4  A    between atoms: C_9  and  N_10
REMARK    5  A    between atoms: N_15  and  C_16
REMARK    6  A    between atoms: C_16  and  C_17
REMARK    7  A    between atoms: C_17  and  O_18
REMARK    8  A    between atoms: N_21  and  C_22
REMARK    9  A    between atoms: C_22  and  C_23
REMARK                            x       y       z     vdW  Elec       q    Type
REMARK                         _______ _______ _______ _____ _____    ______ ____
ROOT
ATOM      1  N   UNL     1       2.627   6.264  18.275  0.00  0.00    +0.000 N 
ATOM      2  C   UNL     1       3.822   5.936  17.660  0.00  0.00    +0.000 A 
ATOM      3  N   UNL     1       4.727   6.845  17.527  0.00  0.00    +0.000 NA
ATOM      4  C   UNL     1       5.884   6.643  16.870  0.00  0.00    +0.000 A 
ATOM      5  O   UNL     1       6.612   7.596  16.604  0.00  0.00    +0.000 OA
ATOM      6  N   UNL     1       6.198   5.364  16.506  0.00  0.00    +0.000 N 
ATOM      7  C   UNL     1       5.266   4.359  16.556  0.00  0.00    +0.000 A 
ATOM      8  O   UNL     1       5.462   3.261  16.030  0.00  0.00    +0.000 OA
ATOM      9  N   UNL     1       4.059   4.665  17.176  0.00  0.00    +0.000 N 
ATOM     10  H   UNL     1       1.958   5.533  18.468  0.00  0.00    +0.000 HD
ENDROOT
BRANCH   1  14
ATOM     11  C   UNL     1       1.216  10.040  19.613  0.00  0.00    +0.000 A 
ATOM     12  C   UNL     1       1.401   8.986  20.501  0.00  0.00    +0.000 A 
ATOM     13  C   UNL     1       1.867   7.751  20.035  0.00  0.00    +0.000 A 
ATOM     14  C   UNL     1       2.178   7.549  18.679  0.00  0.00    +0.000 A 
ATOM     15  C   UNL     1       1.951   8.629  17.808  0.00  0.00    +0.000 A 
ATOM     16  C   UNL     1       1.480   9.864  18.262  0.00  0.00    +0.000 A 
BRANCH  11  17
ATOM     17  N   UNL     1       0.927  11.345  20.119  0.00  0.00    +0.000 N 
ATOM     18  H   UNL     1      -0.044  11.451  20.424  0.00  0.00    +0.000 HD
BRANCH  17  20
ATOM     19  C   UNL     1       1.323  13.990  20.137  0.00  0.00    +0.000 C 
ATOM     20  S   UNL     1       1.250  12.612  19.020  0.00  0.00    +0.000 S 
ATOM     21  O   UNL     1       0.052  12.749  18.220  0.00  0.00    +0.000 OA
ATOM     22  O   UNL     1       2.555  12.451  18.422  0.00  0.00    +0.000 OA
ENDBRANCH  17  20
ENDBRANCH  11  17
ENDBRANCH   1  14
BRANCH   6  23
ATOM     23  C   UNL     1       7.450   5.169  15.770  0.00  0.00    +0.000 C 
BRANCH  23  24
ATOM     24  C   UNL     1       7.255   5.103  14.252  0.00  0.00    +0.000 C 
BRANCH  24  25
ATOM     25  O   UNL     1       8.314   5.771  13.576  0.00  0.00    +0.000 OA
ATOM     26  H   UNL     1       8.360   5.400  12.677  0.00  0.00    +0.000 HD
ENDBRANCH  24  25
ENDBRANCH  23  24
ENDBRANCH   6  23
BRANCH   9  27
ATOM     27  C   UNL     1       3.035   3.614  17.118  0.00  0.00    +0.000 C 
BRANCH  27  28
ATOM     28  C   UNL     1       2.531   3.104  18.458  0.00  0.00    +0.000 A 
ATOM     29  C   UNL     1       3.399   2.792  19.514  0.00  0.00    +0.000 A 
ATOM     30  C   UNL     1       2.900   2.517  20.791  0.00  0.00    +0.000 A 
ATOM     31  C   UNL     1       1.528   2.546  21.026  0.00  0.00    +0.000 A 
ATOM     32 CL   UNL     1       0.927   2.318  22.622  0.00  0.00    +0.000 Cl
ATOM     33  C   UNL     1       0.645   2.794  19.981  0.00  0.00    +0.000 A 
ATOM     34  C   UNL     1       1.144   3.068  18.703  0.00  0.00    +0.000 A 
ENDBRANCH  27  28
ENDBRANCH   9  27
TORSDOF 8
ENDMDL
MODEL 9
REMARK VINA RESULT:      -7.3      3.166      5.340
REMARK  Name = 
REMARK  9 active torsions:
REMARK  status: ('A' for Active; 'I' for Inactive)
REMARK    1  A    between atoms: C_1  and  S_2
REMARK    2  A    between atoms: S_2  and  N_5
REMARK    3  A    between atoms: N_5  and  C_6
REMARK    4  A    between atoms: C_9  and  N_10
REMARK    5  A    between atoms: N_15  and  C_16
REMARK    6  A    between atoms: C_16  and  C_17
REMARK    7  A    between atoms: C_17  and  O_18
REMARK    8  A    between atoms: N_21  and  C_22
REMARK    9  A    between atoms: C_22  and  C_23
REMARK                            x       y       z     vdW  Elec       q    Type
REMARK                         _______ _______ _______ _____ _____    ______ ____
ROOT
ATOM      1  N   UNL     1       2.918   7.473  18.794  0.00  0.00    +0.000 N 
ATOM      2  C   UNL     1       2.855   6.126  19.097  0.00  0.00    +0.000 A 
ATOM      3  N   UNL     1       1.738   5.626  19.503  0.00  0.00    +0.000 NA
ATOM      4  C   UNL     1       1.603   4.348  19.901  0.00  0.00    +0.000 A 
ATOM      5  O   UNL     1       0.571   3.987  20.462  0.00  0.00    +0.000 OA
ATOM      6  N   UNL     1       2.644   3.493  19.672  0.00  0.00    +0.000 N 
ATOM      7  C   UNL     1       3.881   3.957  19.305  0.00  0.00    +0.000 A 
ATOM      8  O   UNL     1       4.877   3.232  19.309  0.00  0.00    +0.000 OA
ATOM      9  N   UNL     1       3.965   5.310  18.989  0.00  0.00    +0.000 N 
ATOM     10  H   UNL     1       3.761   7.846  18.383  0.00  0.00    +0.000 HD
ENDROOT
BRANCH   1  14
ATOM     11  C   UNL     1      -0.017  10.504  19.285  0.00  0.00    +0.000 A 
ATOM     12  C   UNL     1       0.556  10.253  18.043  0.00  0.00    +0.000 A 
ATOM     13  C   UNL     1       1.522   9.249  17.907  0.00  0.00    +0.000 A 
ATOM     14  C   UNL     1       1.919   8.461  19.002  0.00  0.00    +0.000 A 
ATOM     15  C   UNL     1       1.339   8.765  20.245  0.00  0.00    +0.000 A 
ATOM     16  C   UNL     1       0.379   9.770  20.393  0.00  0.00    +0.000 A 
BRANCH  11  17
ATOM     17  N   UNL     1      -1.132  11.393  19.379  0.00  0.00    +0.000 N 
ATOM     18  H   UNL     1      -1.631  11.507  18.492  0.00  0.00    +0.000 HD
BRANCH  17  20
ATOM     19  C   UNL     1      -0.321  13.748  18.403  0.00  0.00    +0.000 C 
ATOM     20  S   UNL     1      -0.737  12.958  19.938  0.00  0.00    +0.000 S 
ATOM     21  O   UNL     1       0.481  12.802  20.704  0.00  0.00    +0.000 OA
ATOM     22  O   UNL     1      -1.902  13.618  20.479  0.00  0.00    +0.000 OA
ENDBRANCH  17  20
ENDBRANCH  11  17
ENDBRANCH   1  14
BRANCH   6  23
ATOM     23  C   UNL     1       2.485   2.111  20.135  0.00  0.00    +0.000 C 
BRANCH  23  24
ATOM     24  C   UNL     1       2.731   1.946  21.639  0.00  0.00    +0.000 C 
BRANCH  24  25
ATOM     25  O   UNL     1       1.578   2.322  22.383  0.00  0.00    +0.000 OA
ATOM     26  H   UNL     1       1.676   1.942  23.274  0.00  0.00    +0.000 HD
ENDBRANCH  24  25
ENDBRANCH  23  24
ENDBRANCH   6  23
BRANCH   9  27
ATOM     27  C   UNL     1       5.316   5.811  18.708  0.00  0.00    +0.000 C 
BRANCH  27  28
ATOM     28  C   UNL     1       5.835   5.570  17.301  0.00  0.00    +0.000 A 
ATOM     29  C   UNL     1       6.961   4.776  17.045  0.00  0.00    +0.000 A 
ATOM     30  C   UNL     1       7.295   4.411  15.736  0.00  0.00    +0.000 A 
ATOM     31  C   UNL     1       6.511   4.840  14.670  0.00  0.00    +0.000 A 
ATOM     32 CL   UNL     1       6.861   4.297  13.075  0.00  0.00    +0.000 Cl
ATOM     33  C   UNL     1       5.423   5.678  14.894  0.00  0.00    +0.000 A 
ATOM     34  C   UNL     1       5.089   6.044  16.203  0.00  0.00    +0.000 A 
ENDBRANCH  27  28
ENDBRANCH   9  27
TORSDOF 8
ENDMDL
