MODEL 1
REMARK VINA RESULT:      -8.6      0.000      0.000
REMARK  Name = 
REMARK  9 active torsions:
REMARK  status: ('A' for Active; 'I' for Inactive)
REMARK    1  A    between atoms: N_1  and  S_2
REMARK    2  A    between atoms: S_2  and  C_5
REMARK    3  A    between atoms: C_8  and  C_9
REMARK    4  A    between atoms: C_9  and  C_10
REMARK    5  A    between atoms: C_10  and  N_11
REMARK    6  A    between atoms: C_12  and  C_14
REMARK    7  A    between atoms: C_14  and  O_15
REMARK    8  A    between atoms: O_15  and  C_16
REMARK    9  A    between atoms: C_16  and  C_18
REMARK                            x       y       z     vdW  Elec       q    Type
REMARK                         _______ _______ _______ _____ _____    ______ ____
ROOT
ATOM      1  N   UNL     1       2.455   5.151  20.968  0.00  0.00    +0.000 N 
ATOM      2  C   UNL     1       1.735   4.020  20.616  0.00  0.00    +0.000 C 
ATOM      3  O   UNL     1       0.586   4.079  20.184  0.00  0.00    +0.000 OA
ATOM      4  H   UNL     1       3.379   5.052  21.372  0.00  0.00    +0.000 HD
ENDROOT
BRANCH   1   5
ATOM      5  C   UNL     1       1.840   6.464  20.856  0.00  0.00    +0.000 C 
BRANCH   5   6
ATOM      6  C   UNL     1       2.345   7.281  19.663  0.00  0.00    +0.000 C 
BRANCH   6  10
ATOM      7  C   UNL     1      -0.183  10.699  18.888  0.00  0.00    +0.000 A 
ATOM      8  C   UNL     1      -0.197  10.097  20.151  0.00  0.00    +0.000 A 
ATOM      9  C   UNL     1       0.648   9.011  20.406  0.00  0.00    +0.000 A 
ATOM     10  C   UNL     1       1.488   8.501  19.403  0.00  0.00    +0.000 A 
ATOM     11  C   UNL     1       1.481   9.113  18.141  0.00  0.00    +0.000 A 
ATOM     12  C   UNL     1       0.654  10.210  17.884  0.00  0.00    +0.000 A 
BRANCH   7  13
ATOM     13  S   UNL     1      -1.296  12.013  18.491  0.00  0.00    +0.000 S 
ATOM     14  O   UNL     1      -1.890  12.529  19.700  0.00  0.00    +0.000 OA
ATOM     15  O   UNL     1      -2.084  11.648  17.331  0.00  0.00    +0.000 OA
BRANCH  13  16
ATOM     16  N   UNL     1      -0.245  13.214  17.954  0.00  0.00    +0.000 NA
ATOM     17  H   UNL     1      -0.317  13.273  16.936  0.00  0.00    +0.000 HD
ATOM     18  H   UNL     1       0.700  13.021  18.282  0.00  0.00    +0.000 HD
ENDBRANCH  13  16
ENDBRANCH   7  13
ENDBRANCH   6  10
ENDBRANCH   5   6
ENDBRANCH   1   5
BRANCH   2  19
ATOM     19  C   UNL     1       2.483   2.701  20.807  0.00  0.00    +0.000 C 
BRANCH  19  20
ATOM     20  O   UNL     1       3.698   2.694  20.043  0.00  0.00    +0.000 OA
BRANCH  20  21
ATOM     21  C   UNL     1       3.536   2.767  18.707  0.00  0.00    +0.000 C 
ATOM     22  O   UNL     1       2.600   2.280  18.079  0.00  0.00    +0.000 OA
BRANCH  21  23
ATOM     23  C   UNL     1       4.588   3.591  18.053  0.00  0.00    +0.000 A 
ATOM     24  C   UNL     1       5.345   4.579  18.696  0.00  0.00    +0.000 A 
ATOM     25  C   UNL     1       6.316   5.329  17.995  0.00  0.00    +0.000 A 
ATOM     26  C   UNL     1       6.485   5.066  16.628  0.00  0.00    +0.000 A 
ATOM     27  N   UNL     1       7.336   5.611  15.681  0.00  0.00    +0.000 N 
ATOM     28  C   UNL     1       7.101   5.027  14.458  0.00  0.00    +0.000 A 
ATOM     29  C   UNL     1       6.098   4.104  14.610  0.00  0.00    +0.000 A 
ATOM     30  C   UNL     1       5.727   4.099  15.973  0.00  0.00    +0.000 A 
ATOM     31  C   UNL     1       4.788   3.348  16.693  0.00  0.00    +0.000 A 
ATOM     32  C   UNL     1       5.535   3.276  13.523  0.00  0.00    +0.000 C 
ATOM     33  C   UNL     1       5.971   3.742  12.134  0.00  0.00    +0.000 C 
ATOM     34  C   UNL     1       7.340   4.440  12.026  0.00  0.00    +0.000 C 
ATOM     35  C   UNL     1       7.790   5.357  13.184  0.00  0.00    +0.000 C 
ATOM     36  H   UNL     1       8.018   6.334  15.869  0.00  0.00    +0.000 HD
ENDBRANCH  21  23
ENDBRANCH  20  21
ENDBRANCH  19  20
ENDBRANCH   2  19
TORSDOF 9
ENDMDL
MODEL 2
REMARK VINA RESULT:      -8.4      5.199      7.930
REMARK  Name = 
REMARK  9 active torsions:
REMARK  status: ('A' for Active; 'I' for Inactive)
REMARK    1  A    between atoms: N_1  and  S_2
REMARK    2  A    between atoms: S_2  and  C_5
REMARK    3  A    between atoms: C_8  and  C_9
REMARK    4  A    between atoms: C_9  and  C_10
REMARK    5  A    between atoms: C_10  and  N_11
REMARK    6  A    between atoms: C_12  and  C_14
REMARK    7  A    between atoms: C_14  and  O_15
REMARK    8  A    between atoms: O_15  and  C_16
REMARK    9  A    between atoms: C_16  and  C_18
REMARK                            x       y       z     vdW  Elec       q    Type
REMARK                         _______ _______ _______ _____ _____    ______ ____
ROOT
ATOM      1  N   UNL     1       7.057   6.444  17.262  0.00  0.00    +0.000 N 
ATOM      2  C   UNL     1       6.190   5.987  16.281  0.00  0.00    +0.000 C 
ATOM      3  O   UNL     1       5.646   6.743  15.479  0.00  0.00    +0.000 OA
ATOM      4  H   UNL     1       7.440   5.792  17.937  0.00  0.00    +0.000 HD
ENDROOT
BRANCH   1   5
ATOM      5  C   UNL     1       7.326   7.868  17.382  0.00  0.00    +0.000 C 
BRANCH   5   6
ATOM      6  C   UNL     1       8.405   8.206  18.416  0.00  0.00    +0.000 C 
BRANCH   6  10
ATOM      7  C   UNL     1       9.254  12.439  18.583  0.00  0.00    +0.000 A 
ATOM      8  C   UNL     1       8.424  11.937  17.575  0.00  0.00    +0.000 A 
ATOM      9  C   UNL     1       8.126  10.570  17.545  0.00  0.00    +0.000 A 
ATOM     10  C   UNL     1       8.671   9.693  18.497  0.00  0.00    +0.000 A 
ATOM     11  C   UNL     1       9.509  10.216  19.494  0.00  0.00    +0.000 A 
ATOM     12  C   UNL     1       9.795  11.582  19.542  0.00  0.00    +0.000 A 
BRANCH   7  13
ATOM     13  S   UNL     1       9.731  14.141  18.608  0.00  0.00    +0.000 S 
ATOM     14  O   UNL     1      10.951  14.315  17.859  0.00  0.00    +0.000 OA
ATOM     15  O   UNL     1       9.556  14.675  19.944  0.00  0.00    +0.000 OA
BRANCH  13  16
ATOM     16  N   UNL     1       8.523  14.859  17.681  0.00  0.00    +0.000 NA
ATOM     17  H   UNL     1       7.616  14.554  18.043  0.00  0.00    +0.000 HD
ATOM     18  H   UNL     1       8.661  14.636  16.697  0.00  0.00    +0.000 HD
ENDBRANCH  13  16
ENDBRANCH   7  13
ENDBRANCH   6  10
ENDBRANCH   5   6
ENDBRANCH   1   5
BRANCH   2  19
ATOM     19  C   UNL     1       5.969   4.475  16.278  0.00  0.00    +0.000 C 
BRANCH  19  20
ATOM     20  O   UNL     1       5.322   4.057  17.489  0.00  0.00    +0.000 OA
BRANCH  20  21
ATOM     21  C   UNL     1       3.978   3.979  17.424  0.00  0.00    +0.000 C 
ATOM     22  O   UNL     1       3.345   3.320  16.604  0.00  0.00    +0.000 OA
BRANCH  21  23
ATOM     23  C   UNL     1       3.314   4.724  18.527  0.00  0.00    +0.000 A 
ATOM     24  C   UNL     1       2.950   4.171  19.761  0.00  0.00    +0.000 A 
ATOM     25  C   UNL     1       2.306   4.948  20.750  0.00  0.00    +0.000 A 
ATOM     26  C   UNL     1       2.028   6.289  20.451  0.00  0.00    +0.000 A 
ATOM     27  N   UNL     1       1.424   7.294  21.189  0.00  0.00    +0.000 N 
ATOM     28  C   UNL     1       1.360   8.445  20.437  0.00  0.00    +0.000 A 
ATOM     29  C   UNL     1       1.920   8.186  19.212  0.00  0.00    +0.000 A 
ATOM     30  C   UNL     1       2.369   6.847  19.222  0.00  0.00    +0.000 A 
ATOM     31  C   UNL     1       3.031   6.066  18.265  0.00  0.00    +0.000 A 
ATOM     32  C   UNL     1       2.025   9.161  18.105  0.00  0.00    +0.000 C 
ATOM     33  C   UNL     1       1.187  10.418  18.338  0.00  0.00    +0.000 C 
ATOM     34  C   UNL     1       0.949  10.841  19.801  0.00  0.00    +0.000 C 
ATOM     35  C   UNL     1       0.763   9.736  20.864  0.00  0.00    +0.000 C 
ATOM     36  H   UNL     1       1.080   7.187  22.134  0.00  0.00    +0.000 HD
ENDBRANCH  21  23
ENDBRANCH  20  21
ENDBRANCH  19  20
ENDBRANCH   2  19
TORSDOF 9
ENDMDL
MODEL 3
REMARK VINA RESULT:      -8.2      4.284     10.558
REMARK  Name = 
REMARK  9 active torsions:
REMARK  status: ('A' for Active; 'I' for Inactive)
REMARK    1  A    between atoms: N_1  and  S_2
REMARK    2  A    between atoms: S_2  and  C_5
REMARK    3  A    between atoms: C_8  and  C_9
REMARK    4  A    between atoms: C_9  and  C_10
REMARK    5  A    between atoms: C_10  and  N_11
REMARK    6  A    between atoms: C_12  and  C_14
REMARK    7  A    between atoms: C_14  and  O_15
REMARK    8  A    between atoms: O_15  and  C_16
REMARK    9  A    between atoms: C_16  and  C_18
REMARK                            x       y       z     vdW  Elec       q    Type
REMARK                         _______ _______ _______ _____ _____    ______ ____
ROOT
ATOM      1  N   UNL     1       2.055   7.629  20.745  0.00  0.00    +0.000 N 
ATOM      2  C   UNL     1       0.875   8.271  21.089  0.00  0.00    +0.000 C 
ATOM      3  O   UNL     1      -0.188   7.670  21.217  0.00  0.00    +0.000 OA
ATOM      4  H   UNL     1       2.898   8.172  20.596  0.00  0.00    +0.000 HD
ENDROOT
BRANCH   1   5
ATOM      5  C   UNL     1       2.051   6.195  20.496  0.00  0.00    +0.000 C 
BRANCH   5   6
ATOM      6  C   UNL     1       1.727   5.823  19.046  0.00  0.00    +0.000 C 
BRANCH   6  10
ATOM      7  C   UNL     1       5.350   5.129  16.795  0.00  0.00    +0.000 A 
ATOM      8  C   UNL     1       4.526   4.050  17.133  0.00  0.00    +0.000 A 
ATOM      9  C   UNL     1       3.337   4.285  17.834  0.00  0.00    +0.000 A 
ATOM     10  C   UNL     1       2.976   5.585  18.226  0.00  0.00    +0.000 A 
ATOM     11  C   UNL     1       3.822   6.651  17.885  0.00  0.00    +0.000 A 
ATOM     12  C   UNL     1       5.000   6.427  17.169  0.00  0.00    +0.000 A 
BRANCH   7  13
ATOM     13  S   UNL     1       6.904   4.873  15.992  0.00  0.00    +0.000 S 
ATOM     14  O   UNL     1       7.557   6.141  15.783  0.00  0.00    +0.000 OA
ATOM     15  O   UNL     1       6.748   3.894  14.935  0.00  0.00    +0.000 OA
BRANCH  13  16
ATOM     16  N   UNL     1       7.795   4.095  17.190  0.00  0.00    +0.000 NA
ATOM     17  H   UNL     1       7.345   3.200  17.395  0.00  0.00    +0.000 HD
ATOM     18  H   UNL     1       7.884   4.699  18.005  0.00  0.00    +0.000 HD
ENDBRANCH  13  16
ENDBRANCH   7  13
ENDBRANCH   6  10
ENDBRANCH   5   6
ENDBRANCH   1   5
BRANCH   2  19
ATOM     19  C   UNL     1       1.007   9.780  21.295  0.00  0.00    +0.000 C 
BRANCH  19  20
ATOM     20  O   UNL     1      -0.104  10.469  20.704  0.00  0.00    +0.000 OA
BRANCH  20  21
ATOM     21  C   UNL     1       0.070  10.843  19.420  0.00  0.00    +0.000 C 
ATOM     22  O   UNL     1       1.143  11.153  18.912  0.00  0.00    +0.000 OA
BRANCH  21  23
ATOM     23  C   UNL     1      -1.189  10.762  18.632  0.00  0.00    +0.000 A 
ATOM     24  C   UNL     1      -1.327  10.088  17.411  0.00  0.00    +0.000 A 
ATOM     25  C   UNL     1      -2.558  10.074  16.718  0.00  0.00    +0.000 A 
ATOM     26  C   UNL     1      -3.635  10.773  17.281  0.00  0.00    +0.000 A 
ATOM     27  N   UNL     1      -4.944  10.947  16.863  0.00  0.00    +0.000 N 
ATOM     28  C   UNL     1      -5.614  11.746  17.760  0.00  0.00    +0.000 A 
ATOM     29  C   UNL     1      -4.741  12.092  18.760  0.00  0.00    +0.000 A 
ATOM     30  C   UNL     1      -3.506  11.462  18.485  0.00  0.00    +0.000 A 
ATOM     31  C   UNL     1      -2.284  11.440  19.170  0.00  0.00    +0.000 A 
ATOM     32  C   UNL     1      -5.068  12.964  19.908  0.00  0.00    +0.000 C 
ATOM     33  C   UNL     1      -6.399  13.696  19.738  0.00  0.00    +0.000 C 
ATOM     34  C   UNL     1      -7.479  12.999  18.886  0.00  0.00    +0.000 C 
ATOM     35  C   UNL     1      -7.029  12.185  17.653  0.00  0.00    +0.000 C 
ATOM     36  H   UNL     1      -5.336  10.548  16.020  0.00  0.00    +0.000 HD
ENDBRANCH  21  23
ENDBRANCH  20  21
ENDBRANCH  19  20
ENDBRANCH   2  19
TORSDOF 9
ENDMDL
MODEL 4
REMARK VINA RESULT:      -8.2      2.233      2.683
REMARK  Name = 
REMARK  9 active torsions:
REMARK  status: ('A' for Active; 'I' for Inactive)
REMARK    1  A    between atoms: N_1  and  S_2
REMARK    2  A    between atoms: S_2  and  C_5
REMARK    3  A    between atoms: C_8  and  C_9
REMARK    4  A    between atoms: C_9  and  C_10
REMARK    5  A    between atoms: C_10  and  N_11
REMARK    6  A    between atoms: C_12  and  C_14
REMARK    7  A    between atoms: C_14  and  O_15
REMARK    8  A    between atoms: O_15  and  C_16
REMARK    9  A    between atoms: C_16  and  C_18
REMARK                            x       y       z     vdW  Elec       q    Type
REMARK                         _______ _______ _______ _____ _____    ______ ____
ROOT
ATOM      1  N   UNL     1       1.744   6.679  20.953  0.00  0.00    +0.000 N 
ATOM      2  C   UNL     1       2.077   6.121  19.728  0.00  0.00    +0.000 C 
ATOM      3  O   UNL     1       2.518   6.792  18.798  0.00  0.00    +0.000 OA
ATOM      4  H   UNL     1       1.332   6.097  21.673  0.00  0.00    +0.000 HD
ENDROOT
BRANCH   1   5
ATOM      5  C   UNL     1       1.889   8.112  21.158  0.00  0.00    +0.000 C 
BRANCH   5   6
ATOM      6  C   UNL     1       1.018   8.959  20.226  0.00  0.00    +0.000 C 
BRANCH   6  10
ATOM      7  C   UNL     1      -1.558  11.674  22.386  0.00  0.00    +0.000 A 
ATOM      8  C   UNL     1      -0.903  10.646  23.072  0.00  0.00    +0.000 A 
ATOM      9  C   UNL     1      -0.044   9.789  22.372  0.00  0.00    +0.000 A 
ATOM     10  C   UNL     1       0.146   9.933  20.989  0.00  0.00    +0.000 A 
ATOM     11  C   UNL     1      -0.528  10.965  20.319  0.00  0.00    +0.000 A 
ATOM     12  C   UNL     1      -1.372  11.835  21.013  0.00  0.00    +0.000 A 
BRANCH   7  13
ATOM     13  S   UNL     1      -2.721  12.722  23.208  0.00  0.00    +0.000 S 
ATOM     14  O   UNL     1      -2.040  13.873  23.747  0.00  0.00    +0.000 OA
ATOM     15  O   UNL     1      -3.629  11.914  23.997  0.00  0.00    +0.000 OA
BRANCH  13  16
ATOM     16  N   UNL     1      -3.642  13.300  21.923  0.00  0.00    +0.000 NA
ATOM     17  H   UNL     1      -4.464  12.700  21.821  0.00  0.00    +0.000 HD
ATOM     18  H   UNL     1      -3.072  13.349  21.080  0.00  0.00    +0.000 HD
ENDBRANCH  13  16
ENDBRANCH   7  13
ENDBRANCH   6  10
ENDBRANCH   5   6
ENDBRANCH   1   5
BRANCH   2  19
ATOM     19  C   UNL     1       1.853   4.613  19.630  0.00  0.00    +0.000 C 
BRANCH  19  20
ATOM     20  O   UNL     1       2.593   4.062  18.532  0.00  0.00    +0.000 OA
BRANCH  20  21
ATOM     21  C   UNL     1       3.824   3.608  18.841  0.00  0.00    +0.000 C 
ATOM     22  O   UNL     1       4.069   2.716  19.648  0.00  0.00    +0.000 OA
BRANCH  21  23
ATOM     23  C   UNL     1       4.887   4.252  18.023  0.00  0.00    +0.000 A 
ATOM     24  C   UNL     1       5.758   5.248  18.485  0.00  0.00    +0.000 A 
ATOM     25  C   UNL     1       6.731   5.820  17.635  0.00  0.00    +0.000 A 
ATOM     26  C   UNL     1       6.786   5.373  16.307  0.00  0.00    +0.000 A 
ATOM     27  N   UNL     1       7.607   5.722  15.247  0.00  0.00    +0.000 N 
ATOM     28  C   UNL     1       7.245   5.009  14.127  0.00  0.00    +0.000 A 
ATOM     29  C   UNL     1       6.189   4.198  14.459  0.00  0.00    +0.000 A 
ATOM     30  C   UNL     1       5.914   4.397  15.831  0.00  0.00    +0.000 A 
ATOM     31  C   UNL     1       4.974   3.823  16.698  0.00  0.00    +0.000 A 
ATOM     32  C   UNL     1       5.492   3.288  13.526  0.00  0.00    +0.000 C 
ATOM     33  C   UNL     1       5.864   3.537  12.064  0.00  0.00    +0.000 C 
ATOM     34  C   UNL     1       7.271   4.100  11.784  0.00  0.00    +0.000 C 
ATOM     35  C   UNL     1       7.867   5.117  12.783  0.00  0.00    +0.000 C 
ATOM     36  H   UNL     1       8.352   6.404  15.297  0.00  0.00    +0.000 HD
ENDBRANCH  21  23
ENDBRANCH  20  21
ENDBRANCH  19  20
ENDBRANCH   2  19
TORSDOF 9
ENDMDL
MODEL 5
REMARK VINA RESULT:      -8.1      5.392      8.108
REMARK  Name = 
REMARK  9 active torsions:
REMARK  status: ('A' for Active; 'I' for Inactive)
REMARK    1  A    between atoms: N_1  and  S_2
REMARK    2  A    between atoms: S_2  and  C_5
REMARK    3  A    between atoms: C_8  and  C_9
REMARK    4  A    between atoms: C_9  and  C_10
REMARK    5  A    between atoms: C_10  and  N_11
REMARK    6  A    between atoms: C_12  and  C_14
REMARK    7  A    between atoms: C_14  and  O_15
REMARK    8  A    between atoms: O_15  and  C_16
REMARK    9  A    between atoms: C_16  and  C_18
REMARK                            x       y       z     vdW  Elec       q    Type
REMARK                         _______ _______ _______ _____ _____    ______ ____
ROOT
ATOM      1  N   UNL     1       6.949   6.633  16.517  0.00  0.00    +0.000 N 
ATOM      2  C   UNL     1       7.045   5.254  16.628  0.00  0.00    +0.000 C 
ATOM      3  O   UNL     1       7.860   4.708  17.367  0.00  0.00    +0.000 OA
ATOM      4  H   UNL     1       6.300   7.040  15.854  0.00  0.00    +0.000 HD
ENDROOT
BRANCH   1   5
ATOM      5  C   UNL     1       7.854   7.483  17.276  0.00  0.00    +0.000 C 
BRANCH   5   6
ATOM      6  C   UNL     1       7.186   8.735  17.851  0.00  0.00    +0.000 C 
BRANCH   6  10
ATOM      7  C   UNL     1       9.982  11.872  18.860  0.00  0.00    +0.000 A 
ATOM      8  C   UNL     1       9.961  10.693  19.612  0.00  0.00    +0.000 A 
ATOM      9  C   UNL     1       9.076   9.667  19.260  0.00  0.00    +0.000 A 
ATOM     10  C   UNL     1       8.191   9.818  18.180  0.00  0.00    +0.000 A 
ATOM     11  C   UNL     1       8.221  11.013  17.445  0.00  0.00    +0.000 A 
ATOM     12  C   UNL     1       9.115  12.034  17.778  0.00  0.00    +0.000 A 
BRANCH   7  13
ATOM     13  S   UNL     1      11.016  13.230  19.320  0.00  0.00    +0.000 S 
ATOM     14  O   UNL     1      12.333  13.048  18.763  0.00  0.00    +0.000 OA
ATOM     15  O   UNL     1      10.800  13.554  20.716  0.00  0.00    +0.000 OA
BRANCH  13  16
ATOM     16  N   UNL     1      10.330  14.503  18.458  0.00  0.00    +0.000 NA
ATOM     17  H   UNL     1      10.718  15.379  18.814  0.00  0.00    +0.000 HD
ATOM     18  H   UNL     1       9.315  14.456  18.517  0.00  0.00    +0.000 HD
ENDBRANCH  13  16
ENDBRANCH   7  13
ENDBRANCH   6  10
ENDBRANCH   5   6
ENDBRANCH   1   5
BRANCH   2  19
ATOM     19  C   UNL     1       6.058   4.475  15.759  0.00  0.00    +0.000 C 
BRANCH  19  20
ATOM     20  O   UNL     1       4.710   4.708  16.192  0.00  0.00    +0.000 OA
BRANCH  20  21
ATOM     21  C   UNL     1       4.265   3.876  17.155  0.00  0.00    +0.000 C 
ATOM     22  O   UNL     1       4.446   2.662  17.182  0.00  0.00    +0.000 OA
BRANCH  21  23
ATOM     23  C   UNL     1       3.584   4.602  18.260  0.00  0.00    +0.000 A 
ATOM     24  C   UNL     1       3.254   4.043  19.501  0.00  0.00    +0.000 A 
ATOM     25  C   UNL     1       2.590   4.801  20.492  0.00  0.00    +0.000 A 
ATOM     26  C   UNL     1       2.257   6.128  20.188  0.00  0.00    +0.000 A 
ATOM     27  N   UNL     1       1.622   7.114  20.926  0.00  0.00    +0.000 N 
ATOM     28  C   UNL     1       1.506   8.256  20.168  0.00  0.00    +0.000 A 
ATOM     29  C   UNL     1       2.063   8.012  18.938  0.00  0.00    +0.000 A 
ATOM     30  C   UNL     1       2.564   6.691  18.952  0.00  0.00    +0.000 A 
ATOM     31  C   UNL     1       3.246   5.930  17.993  0.00  0.00    +0.000 A 
ATOM     32  C   UNL     1       2.119   8.983  17.825  0.00  0.00    +0.000 C 
ATOM     33  C   UNL     1       1.235  10.207  18.058  0.00  0.00    +0.000 C 
ATOM     34  C   UNL     1       0.996  10.631  19.521  0.00  0.00    +0.000 C 
ATOM     35  C   UNL     1       0.863   9.526  20.592  0.00  0.00    +0.000 C 
ATOM     36  H   UNL     1       1.292   6.999  21.875  0.00  0.00    +0.000 HD
ENDBRANCH  21  23
ENDBRANCH  20  21
ENDBRANCH  19  20
ENDBRANCH   2  19
TORSDOF 9
ENDMDL
MODEL 6
REMARK VINA RESULT:      -8.1      3.968      9.940
REMARK  Name = 
REMARK  9 active torsions:
REMARK  status: ('A' for Active; 'I' for Inactive)
REMARK    1  A    between atoms: N_1  and  S_2
REMARK    2  A    between atoms: S_2  and  C_5
REMARK    3  A    between atoms: C_8  and  C_9
REMARK    4  A    between atoms: C_9  and  C_10
REMARK    5  A    between atoms: C_10  and  N_11
REMARK    6  A    between atoms: C_12  and  C_14
REMARK    7  A    between atoms: C_14  and  O_15
REMARK    8  A    between atoms: O_15  and  C_16
REMARK    9  A    between atoms: C_16  and  C_18
REMARK                            x       y       z     vdW  Elec       q    Type
REMARK                         _______ _______ _______ _____ _____    ______ ____
ROOT
ATOM      1  N   UNL     1       0.769   8.626  20.933  0.00  0.00    +0.000 N 
ATOM      2  C   UNL     1       0.830   9.224  22.183  0.00  0.00    +0.000 C 
ATOM      3  O   UNL     1       1.880   9.325  22.813  0.00  0.00    +0.000 OA
ATOM      4  H   UNL     1      -0.127   8.514  20.473  0.00  0.00    +0.000 HD
ENDROOT
BRANCH   1   5
ATOM      5  C   UNL     1       1.974   8.068  20.339  0.00  0.00    +0.000 C 
BRANCH   5   6
ATOM      6  C   UNL     1       1.771   6.682  19.720  0.00  0.00    +0.000 C 
BRANCH   6  10
ATOM      7  C   UNL     1       5.405   5.305  17.830  0.00  0.00    +0.000 A 
ATOM      8  C   UNL     1       5.228   5.127  19.206  0.00  0.00    +0.000 A 
ATOM      9  C   UNL     1       4.036   5.546  19.807  0.00  0.00    +0.000 A 
ATOM     10  C   UNL     1       3.027   6.166  19.051  0.00  0.00    +0.000 A 
ATOM     11  C   UNL     1       3.228   6.343  17.674  0.00  0.00    +0.000 A 
ATOM     12  C   UNL     1       4.407   5.910  17.063  0.00  0.00    +0.000 A 
BRANCH   7  13
ATOM     13  S   UNL     1       6.929   4.876  17.043  0.00  0.00    +0.000 S 
ATOM     14  O   UNL     1       7.765   4.151  17.966  0.00  0.00    +0.000 OA
ATOM     15  O   UNL     1       7.414   6.006  16.276  0.00  0.00    +0.000 OA
BRANCH  13  16
ATOM     16  N   UNL     1       6.428   3.746  15.900  0.00  0.00    +0.000 NA
ATOM     17  H   UNL     1       5.470   3.465  16.122  0.00  0.00    +0.000 HD
ATOM     18  H   UNL     1       7.082   2.965  15.873  0.00  0.00    +0.000 HD
ENDBRANCH  13  16
ENDBRANCH   7  13
ENDBRANCH   6  10
ENDBRANCH   5   6
ENDBRANCH   1   5
BRANCH   2  19
ATOM     19  C   UNL     1      -0.508   9.744  22.707  0.00  0.00    +0.000 C 
BRANCH  19  20
ATOM     20  O   UNL     1      -0.399  11.123  23.087  0.00  0.00    +0.000 OA
BRANCH  20  21
ATOM     21  C   UNL     1      -0.174  11.981  22.072  0.00  0.00    +0.000 C 
ATOM     22  O   UNL     1       0.907  12.496  21.806  0.00  0.00    +0.000 OA
BRANCH  21  23
ATOM     23  C   UNL     1      -1.381  12.187  21.227  0.00  0.00    +0.000 A 
ATOM     24  C   UNL     1      -2.517  12.909  21.616  0.00  0.00    +0.000 A 
ATOM     25  C   UNL     1      -3.630  13.042  20.755  0.00  0.00    +0.000 A 
ATOM     26  C   UNL     1      -3.569  12.413  19.503  0.00  0.00    +0.000 A 
ATOM     27  N   UNL     1      -4.470  12.357  18.452  0.00  0.00    +0.000 N 
ATOM     28  C   UNL     1      -3.950  11.585  17.439  0.00  0.00    +0.000 A 
ATOM     29  C   UNL     1      -2.714  11.139  17.832  0.00  0.00    +0.000 A 
ATOM     30  C   UNL     1      -2.453  11.678  19.111  0.00  0.00    +0.000 A 
ATOM     31  C   UNL     1      -1.349  11.581  19.969  0.00  0.00    +0.000 A 
ATOM     32  C   UNL     1      -1.836  10.259  17.031  0.00  0.00    +0.000 C 
ATOM     33  C   UNL     1      -2.549   9.641  15.829  0.00  0.00    +0.000 C 
ATOM     34  C   UNL     1      -3.708  10.448  15.211  0.00  0.00    +0.000 C 
ATOM     35  C   UNL     1      -4.621  11.262  16.154  0.00  0.00    +0.000 C 
ATOM     36  H   UNL     1      -5.373  12.812  18.444  0.00  0.00    +0.000 HD
ENDBRANCH  21  23
ENDBRANCH  20  21
ENDBRANCH  19  20
ENDBRANCH   2  19
TORSDOF 9
ENDMDL
MODEL 7
REMARK VINA RESULT:      -8.1      3.668      9.725
REMARK  Name = 
REMARK  9 active torsions:
REMARK  status: ('A' for Active; 'I' for Inactive)
REMARK    1  A    between atoms: N_1  and  S_2
REMARK    2  A    between atoms: S_2  and  C_5
REMARK    3  A    between atoms: C_8  and  C_9
REMARK    4  A    between atoms: C_9  and  C_10
REMARK    5  A    between atoms: C_10  and  N_11
REMARK    6  A    between atoms: C_12  and  C_14
REMARK    7  A    between atoms: C_14  and  O_15
REMARK    8  A    between atoms: O_15  and  C_16
REMARK    9  A    between atoms: C_16  and  C_18
REMARK                            x       y       z     vdW  Elec       q    Type
REMARK                         _______ _______ _______ _____ _____    ______ ____
ROOT
ATOM      1  N   UNL     1       1.456   6.648  21.093  0.00  0.00    +0.000 N 
ATOM      2  C   UNL     1       1.503   7.970  20.676  0.00  0.00    +0.000 C 
ATOM      3  O   UNL     1       1.549   8.284  19.489  0.00  0.00    +0.000 OA
ATOM      4  H   UNL     1       1.475   6.433  22.083  0.00  0.00    +0.000 HD
ENDROOT
BRANCH   1   5
ATOM      5  C   UNL     1       1.486   5.578  20.108  0.00  0.00    +0.000 C 
BRANCH   5   6
ATOM      6  C   UNL     1       2.599   4.553  20.345  0.00  0.00    +0.000 C 
BRANCH   6  10
ATOM      7  C   UNL     1       5.743   4.695  17.384  0.00  0.00    +0.000 A 
ATOM      8  C   UNL     1       4.692   3.783  17.238  0.00  0.00    +0.000 A 
ATOM      9  C   UNL     1       3.660   3.764  18.183  0.00  0.00    +0.000 A 
ATOM     10  C   UNL     1       3.680   4.629  19.289  0.00  0.00    +0.000 A 
ATOM     11  C   UNL     1       4.747   5.530  19.422  0.00  0.00    +0.000 A 
ATOM     12  C   UNL     1       5.772   5.568  18.473  0.00  0.00    +0.000 A 
BRANCH   7  13
ATOM     13  S   UNL     1       7.114   4.694  16.268  0.00  0.00    +0.000 S 
ATOM     14  O   UNL     1       6.670   4.299  14.954  0.00  0.00    +0.000 OA
ATOM     15  O   UNL     1       8.265   4.095  16.913  0.00  0.00    +0.000 OA
BRANCH  13  16
ATOM     16  N   UNL     1       7.473   6.335  16.152  0.00  0.00    +0.000 NA
ATOM     17  H   UNL     1       7.825   6.652  17.057  0.00  0.00    +0.000 HD
ATOM     18  H   UNL     1       6.653   6.849  15.835  0.00  0.00    +0.000 HD
ENDBRANCH  13  16
ENDBRANCH   7  13
ENDBRANCH   6  10
ENDBRANCH   5   6
ENDBRANCH   1   5
BRANCH   2  19
ATOM     19  C   UNL     1       1.494   8.997  21.808  0.00  0.00    +0.000 C 
BRANCH  19  20
ATOM     20  O   UNL     1       0.992  10.257  21.342  0.00  0.00    +0.000 OA
BRANCH  20  21
ATOM     21  C   UNL     1       0.001  10.790  22.085  0.00  0.00    +0.000 C 
ATOM     22  O   UNL     1       0.012  10.900  23.307  0.00  0.00    +0.000 OA
BRANCH  21  23
ATOM     23  C   UNL     1      -1.107  11.326  21.250  0.00  0.00    +0.000 A 
ATOM     24  C   UNL     1      -2.058  12.258  21.685  0.00  0.00    +0.000 A 
ATOM     25  C   UNL     1      -3.091  12.703  20.829  0.00  0.00    +0.000 A 
ATOM     26  C   UNL     1      -3.145  12.168  19.534  0.00  0.00    +0.000 A 
ATOM     27  N   UNL     1      -4.010  12.394  18.476  0.00  0.00    +0.000 N 
ATOM     28  C   UNL     1      -3.656  11.599  17.411  0.00  0.00    +0.000 A 
ATOM     29  C   UNL     1      -2.562  10.856  17.777  0.00  0.00    +0.000 A 
ATOM     30  C   UNL     1      -2.216  11.228  19.095  0.00  0.00    +0.000 A 
ATOM     31  C   UNL     1      -1.184  10.820  19.950  0.00  0.00    +0.000 A 
ATOM     32  C   UNL     1      -1.889   9.859  16.918  0.00  0.00    +0.000 C 
ATOM     33  C   UNL     1      -2.696   9.508  15.669  0.00  0.00    +0.000 C 
ATOM     34  C   UNL     1      -3.626  10.600  15.105  0.00  0.00    +0.000 C 
ATOM     35  C   UNL     1      -4.352  11.531  16.101  0.00  0.00    +0.000 C 
ATOM     36  H   UNL     1      -4.786  13.043  18.496  0.00  0.00    +0.000 HD
ENDBRANCH  21  23
ENDBRANCH  20  21
ENDBRANCH  19  20
ENDBRANCH   2  19
TORSDOF 9
ENDMDL
MODEL 8
REMARK VINA RESULT:      -8.1      2.970      5.324
REMARK  Name = 
REMARK  9 active torsions:
REMARK  status: ('A' for Active; 'I' for Inactive)
REMARK    1  A    between atoms: N_1  and  S_2
REMARK    2  A    between atoms: S_2  and  C_5
REMARK    3  A    between atoms: C_8  and  C_9
REMARK    4  A    between atoms: C_9  and  C_10
REMARK    5  A    between atoms: C_10  and  N_11
REMARK    6  A    between atoms: C_12  and  C_14
REMARK    7  A    between atoms: C_14  and  O_15
REMARK    8  A    between atoms: O_15  and  C_16
REMARK    9  A    between atoms: C_16  and  C_18
REMARK                            x       y       z     vdW  Elec       q    Type
REMARK                         _______ _______ _______ _____ _____    ______ ____
ROOT
ATOM      1  N   UNL     1       5.088   7.499  17.810  0.00  0.00    +0.000 N 
ATOM      2  C   UNL     1       6.018   7.155  16.840  0.00  0.00    +0.000 C 
ATOM      3  O   UNL     1       5.703   6.939  15.673  0.00  0.00    +0.000 OA
ATOM      4  H   UNL     1       5.385   7.613  18.772  0.00  0.00    +0.000 HD
ENDROOT
BRANCH   1   5
ATOM      5  C   UNL     1       3.679   7.588  17.460  0.00  0.00    +0.000 C 
BRANCH   5   6
ATOM      6  C   UNL     1       2.748   6.933  18.484  0.00  0.00    +0.000 C 
BRANCH   6  10
ATOM      7  C   UNL     1       0.537   9.899  20.718  0.00  0.00    +0.000 A 
ATOM      8  C   UNL     1       0.836  10.126  19.370  0.00  0.00    +0.000 A 
ATOM      9  C   UNL     1       1.524   9.147  18.644  0.00  0.00    +0.000 A 
ATOM     10  C   UNL     1       1.941   7.954  19.257  0.00  0.00    +0.000 A 
ATOM     11  C   UNL     1       1.639   7.751  20.611  0.00  0.00    +0.000 A 
ATOM     12  C   UNL     1       0.936   8.714  21.339  0.00  0.00    +0.000 A 
BRANCH   7  13
ATOM     13  S   UNL     1      -0.248  11.141  21.700  0.00  0.00    +0.000 S 
ATOM     14  O   UNL     1      -0.185  10.772  23.092  0.00  0.00    +0.000 OA
ATOM     15  O   UNL     1      -1.480  11.559  21.061  0.00  0.00    +0.000 OA
BRANCH  13  16
ATOM     16  N   UNL     1       0.805  12.443  21.527  0.00  0.00    +0.000 NA
ATOM     17  H   UNL     1       0.462  13.038  20.770  0.00  0.00    +0.000 HD
ATOM     18  H   UNL     1       1.754  12.105  21.377  0.00  0.00    +0.000 HD
ENDBRANCH  13  16
ENDBRANCH   7  13
ENDBRANCH   6  10
ENDBRANCH   5   6
ENDBRANCH   1   5
BRANCH   2  19
ATOM     19  C   UNL     1       7.460   7.067  17.341  0.00  0.00    +0.000 C 
BRANCH  19  20
ATOM     20  O   UNL     1       7.579   6.069  18.364  0.00  0.00    +0.000 OA
BRANCH  20  21
ATOM     21  C   UNL     1       7.665   4.799  17.920  0.00  0.00    +0.000 C 
ATOM     22  O   UNL     1       8.696   4.136  17.865  0.00  0.00    +0.000 OA
BRANCH  21  23
ATOM     23  C   UNL     1       6.336   4.231  17.569  0.00  0.00    +0.000 A 
ATOM     24  C   UNL     1       5.957   3.816  16.285  0.00  0.00    +0.000 A 
ATOM     25  C   UNL     1       4.665   3.302  16.035  0.00  0.00    +0.000 A 
ATOM     26  C   UNL     1       3.766   3.236  17.109  0.00  0.00    +0.000 A 
ATOM     27  N   UNL     1       2.457   2.789  17.193  0.00  0.00    +0.000 N 
ATOM     28  C   UNL     1       1.994   2.955  18.478  0.00  0.00    +0.000 A 
ATOM     29  C   UNL     1       3.000   3.511  19.227  0.00  0.00    +0.000 A 
ATOM     30  C   UNL     1       4.124   3.662  18.386  0.00  0.00    +0.000 A 
ATOM     31  C   UNL     1       5.419   4.144  18.618  0.00  0.00    +0.000 A 
ATOM     32  C   UNL     1       2.893   3.867  20.658  0.00  0.00    +0.000 C 
ATOM     33  C   UNL     1       1.455   3.833  21.174  0.00  0.00    +0.000 C 
ATOM     34  C   UNL     1       0.487   2.851  20.486  0.00  0.00    +0.000 C 
ATOM     35  C   UNL     1       0.631   2.621  18.966  0.00  0.00    +0.000 C 
ATOM     36  H   UNL     1       1.929   2.407  16.420  0.00  0.00    +0.000 HD
ENDBRANCH  21  23
ENDBRANCH  20  21
ENDBRANCH  19  20
ENDBRANCH   2  19
TORSDOF 9
ENDMDL
MODEL 9
REMARK VINA RESULT:      -8.0      5.529      9.110
REMARK  Name = 
REMARK  9 active torsions:
REMARK  status: ('A' for Active; 'I' for Inactive)
REMARK    1  A    between atoms: N_1  and  S_2
REMARK    2  A    between atoms: S_2  and  C_5
REMARK    3  A    between atoms: C_8  and  C_9
REMARK    4  A    between atoms: C_9  and  C_10
REMARK    5  A    between atoms: C_10  and  N_11
REMARK    6  A    between atoms: C_12  and  C_14
REMARK    7  A    between atoms: C_14  and  O_15
REMARK    8  A    between atoms: O_15  and  C_16
REMARK    9  A    between atoms: C_16  and  C_18
REMARK                            x       y       z     vdW  Elec       q    Type
REMARK                         _______ _______ _______ _____ _____    ______ ____
ROOT
ATOM      1  N   UNL     1       7.154   6.409  18.507  0.00  0.00    +0.000 N 
ATOM      2  C   UNL     1       6.297   6.100  17.461  0.00  0.00    +0.000 C 
ATOM      3  O   UNL     1       6.399   6.618  16.352  0.00  0.00    +0.000 OA
ATOM      4  H   UNL     1       6.999   5.999  19.421  0.00  0.00    +0.000 HD
ENDROOT
BRANCH   1   5
ATOM      5  C   UNL     1       8.202   7.399  18.314  0.00  0.00    +0.000 C 
BRANCH   5   6
ATOM      6  C   UNL     1       7.716   8.686  17.641  0.00  0.00    +0.000 C 
BRANCH   6  10
ATOM      7  C   UNL     1       9.761  12.173  19.168  0.00  0.00    +0.000 A 
ATOM      8  C   UNL     1       8.974  12.279  18.016  0.00  0.00    +0.000 A 
ATOM      9  C   UNL     1       8.288  11.154  17.545  0.00  0.00    +0.000 A 
ATOM     10  C   UNL     1       8.402   9.915  18.197  0.00  0.00    +0.000 A 
ATOM     11  C   UNL     1       9.203   9.829  19.345  0.00  0.00    +0.000 A 
ATOM     12  C   UNL     1       9.876  10.952  19.833  0.00  0.00    +0.000 A 
BRANCH   7  13
ATOM     13  S   UNL     1      10.717  13.542  19.749  0.00  0.00    +0.000 S 
ATOM     14  O   UNL     1      10.284  14.750  19.092  0.00  0.00    +0.000 OA
ATOM     15  O   UNL     1      12.112  13.159  19.833  0.00  0.00    +0.000 OA
BRANCH  13  16
ATOM     16  N   UNL     1      10.198  13.682  21.344  0.00  0.00    +0.000 NA
ATOM     17  H   UNL     1       9.383  14.300  21.365  0.00  0.00    +0.000 HD
ATOM     18  H   UNL     1      10.964  14.004  21.933  0.00  0.00    +0.000 HD
ENDBRANCH  13  16
ENDBRANCH   7  13
ENDBRANCH   6  10
ENDBRANCH   5   6
ENDBRANCH   1   5
BRANCH   2  19
ATOM     19  C   UNL     1       5.223   5.067  17.800  0.00  0.00    +0.000 C 
BRANCH  19  20
ATOM     20  O   UNL     1       3.916   5.651  17.715  0.00  0.00    +0.000 OA
BRANCH  20  21
ATOM     21  C   UNL     1       3.357   5.981  18.897  0.00  0.00    +0.000 C 
ATOM     22  O   UNL     1       3.478   5.346  19.940  0.00  0.00    +0.000 OA
BRANCH  21  23
ATOM     23  C   UNL     1       2.624   7.274  18.835  0.00  0.00    +0.000 A 
ATOM     24  C   UNL     1       2.632   8.147  17.739  0.00  0.00    +0.000 A 
ATOM     25  C   UNL     1       1.919   9.366  17.770  0.00  0.00    +0.000 A 
ATOM     26  C   UNL     1       1.215   9.685  18.940  0.00  0.00    +0.000 A 
ATOM     27  N   UNL     1       0.433  10.776  19.281  0.00  0.00    +0.000 N 
ATOM     28  C   UNL     1      -0.025  10.633  20.570  0.00  0.00    +0.000 A 
ATOM     29  C   UNL     1       0.460   9.450  21.067  0.00  0.00    +0.000 A 
ATOM     30  C   UNL     1       1.214   8.834  20.043  0.00  0.00    +0.000 A 
ATOM     31  C   UNL     1       1.905   7.617  19.982  0.00  0.00    +0.000 A 
ATOM     32  C   UNL     1       0.214   8.940  22.432  0.00  0.00    +0.000 C 
ATOM     33  C   UNL     1      -0.400   9.989  23.358  0.00  0.00    +0.000 C 
ATOM     34  C   UNL     1      -1.276  11.075  22.704  0.00  0.00    +0.000 C 
ATOM     35  C   UNL     1      -0.873  11.602  21.309  0.00  0.00    +0.000 C 
ATOM     36  H   UNL     1       0.240  11.558  18.669  0.00  0.00    +0.000 HD
ENDBRANCH  21  23
ENDBRANCH  20  21
ENDBRANCH  19  20
ENDBRANCH   2  19
TORSDOF 9
ENDMDL
