MODEL 1
REMARK VINA RESULT:      -6.7      0.000      0.000
REMARK  Name = 
REMARK  10 active torsions:
REMARK  status: ('A' for Active; 'I' for Inactive)
REMARK    1  A    between atoms: C_1  and  C_2
REMARK    2  A    between atoms: C_5  and  C_6
REMARK    3  A    between atoms: C_6  and  N_7
REMARK    4  A    between atoms: N_10  and  C_11
REMARK    5  A    between atoms: C_11  and  C_12
REMARK    6  A    between atoms: C_12  and  C_13
REMARK    7  A    between atoms: C_12  and  C_14
REMARK    8  A    between atoms: C_14  and  N_15
REMARK    9  A    between atoms: C_17  and  C_18
REMARK   10  A    between atoms: C_20  and  C_21
REMARK                            x       y       z     vdW  Elec       q    Type
REMARK                         _______ _______ _______ _____ _____    ______ ____
ROOT
ATOM      1  N   UNL     1       2.561   6.747  19.803  0.00  0.00    +0.000 N 
ATOM      2  C   UNL     1       2.332   5.595  19.101  0.00  0.00    +0.000 C 
ATOM      3  O   UNL     1       1.906   5.580  17.954  0.00  0.00    +0.000 OA
ATOM      4  N   UNL     1       2.635   4.474  19.824  0.00  0.00    +0.000 N 
ATOM      5  H   UNL     1       2.542   6.711  20.813  0.00  0.00    +0.000 HD
ATOM      6  H   UNL     1       3.202   4.595  20.650  0.00  0.00    +0.000 HD
ENDROOT
BRANCH   1   7
ATOM      7  C   UNL     1       2.215   8.017  19.197  0.00  0.00    +0.000 C 
BRANCH   7  12
ATOM      8  C   UNL     1      -0.149   9.522  23.310  0.00  0.00    +0.000 C 
ATOM      9  C   UNL     1       0.189   9.542  21.863  0.00  0.00    +0.000 A 
ATOM     10  C   UNL     1      -0.322  10.404  20.917  0.00  0.00    +0.000 A 
ATOM     11  S   UNL     1       0.362  10.078  19.383  0.00  0.00    +0.000 S 
ATOM     12  C   UNL     1       1.297   8.811  20.082  0.00  0.00    +0.000 A 
ATOM     13  N   UNL     1       1.109   8.620  21.377  0.00  0.00    +0.000 NA
ENDBRANCH   7  12
ENDBRANCH   1   7
BRANCH   4  14
ATOM     14  C   UNL     1       2.513   3.132  19.271  0.00  0.00    +0.000 C 
BRANCH  14  15
ATOM     15  C   UNL     1       3.863   2.592  18.772  0.00  0.00    +0.000 C 
ATOM     16  C   UNL     1       3.832   1.061  18.680  0.00  0.00    +0.000 C 
BRANCH  15  17
ATOM     17  C   UNL     1       4.240   3.187  17.398  0.00  0.00    +0.000 C 
BRANCH  17  18
ATOM     18  N   UNL     1       5.410   4.054  17.409  0.00  0.00    +0.000 N 
ATOM     19  N   UNL     1       5.931   4.419  18.599  0.00  0.00    +0.000 NA
ATOM     20  C   UNL     1       6.988   5.176  18.282  0.00  0.00    +0.000 A 
ATOM     21  C   UNL     1       7.853   5.764  19.332  0.00  0.00    +0.000 C 
ATOM     22  C   UNL     1       7.138   5.296  16.887  0.00  0.00    +0.000 A 
ATOM     23  C   UNL     1       6.132   4.527  16.341  0.00  0.00    +0.000 A 
ATOM     24  C   UNL     1       5.850   4.220  14.918  0.00  0.00    +0.000 C 
ENDBRANCH  17  18
ENDBRANCH  15  17
ENDBRANCH  14  15
ENDBRANCH   4  14
TORSDOF 6
ENDMDL
MODEL 2
REMARK VINA RESULT:      -6.6      4.967      7.380
REMARK  Name = 
REMARK  10 active torsions:
REMARK  status: ('A' for Active; 'I' for Inactive)
REMARK    1  A    between atoms: C_1  and  C_2
REMARK    2  A    between atoms: C_5  and  C_6
REMARK    3  A    between atoms: C_6  and  N_7
REMARK    4  A    between atoms: N_10  and  C_11
REMARK    5  A    between atoms: C_11  and  C_12
REMARK    6  A    between atoms: C_12  and  C_13
REMARK    7  A    between atoms: C_12  and  C_14
REMARK    8  A    between atoms: C_14  and  N_15
REMARK    9  A    between atoms: C_17  and  C_18
REMARK   10  A    between atoms: C_20  and  C_21
REMARK                            x       y       z     vdW  Elec       q    Type
REMARK                         _______ _______ _______ _____ _____    ______ ____
ROOT
ATOM      1  N   UNL     1       8.315   9.316  17.968  0.00  0.00    +0.000 N 
ATOM      2  C   UNL     1       8.167   7.966  18.124  0.00  0.00    +0.000 C 
ATOM      3  O   UNL     1       8.580   7.351  19.099  0.00  0.00    +0.000 OA
ATOM      4  N   UNL     1       7.509   7.387  17.072  0.00  0.00    +0.000 N 
ATOM      5  H   UNL     1       8.309   9.701  17.033  0.00  0.00    +0.000 HD
ATOM      6  H   UNL     1       7.002   7.999  16.451  0.00  0.00    +0.000 HD
ENDROOT
BRANCH   1   7
ATOM      7  C   UNL     1       9.061  10.059  18.964  0.00  0.00    +0.000 C 
BRANCH   7  12
ATOM      8  C   UNL     1      12.088  13.182  16.544  0.00  0.00    +0.000 C 
ATOM      9  C   UNL     1      10.896  12.809  17.350  0.00  0.00    +0.000 A 
ATOM     10  C   UNL     1       9.910  13.664  17.792  0.00  0.00    +0.000 A 
ATOM     11  S   UNL     1       8.721  12.800  18.668  0.00  0.00    +0.000 S 
ATOM     12  C   UNL     1       9.599  11.342  18.398  0.00  0.00    +0.000 A 
ATOM     13  N   UNL     1      10.721  11.479  17.712  0.00  0.00    +0.000 NA
ENDBRANCH   7  12
ENDBRANCH   1   7
BRANCH   4  14
ATOM     14  C   UNL     1       7.198   5.966  17.034  0.00  0.00    +0.000 C 
BRANCH  14  15
ATOM     15  C   UNL     1       6.236   5.619  15.886  0.00  0.00    +0.000 C 
ATOM     16  C   UNL     1       6.970   4.853  14.778  0.00  0.00    +0.000 C 
BRANCH  15  17
ATOM     17  C   UNL     1       5.033   4.787  16.383  0.00  0.00    +0.000 C 
BRANCH  17  18
ATOM     18  N   UNL     1       4.275   5.398  17.465  0.00  0.00    +0.000 N 
ATOM     19  N   UNL     1       3.678   6.589  17.244  0.00  0.00    +0.000 NA
ATOM     20  C   UNL     1       3.053   6.867  18.393  0.00  0.00    +0.000 A 
ATOM     21  C   UNL     1       2.253   8.104  18.551  0.00  0.00    +0.000 C 
ATOM     22  C   UNL     1       3.256   5.854  19.351  0.00  0.00    +0.000 A 
ATOM     23  C   UNL     1       4.012   4.893  18.715  0.00  0.00    +0.000 A 
ATOM     24  C   UNL     1       4.462   3.570  19.211  0.00  0.00    +0.000 C 
ENDBRANCH  17  18
ENDBRANCH  15  17
ENDBRANCH  14  15
ENDBRANCH   4  14
TORSDOF 6
ENDMDL
MODEL 3
REMARK VINA RESULT:      -6.5      1.778      2.156
REMARK  Name = 
REMARK  10 active torsions:
REMARK  status: ('A' for Active; 'I' for Inactive)
REMARK    1  A    between atoms: C_1  and  C_2
REMARK    2  A    between atoms: C_5  and  C_6
REMARK    3  A    between atoms: C_6  and  N_7
REMARK    4  A    between atoms: N_10  and  C_11
REMARK    5  A    between atoms: C_11  and  C_12
REMARK    6  A    between atoms: C_12  and  C_13
REMARK    7  A    between atoms: C_12  and  C_14
REMARK    8  A    between atoms: C_14  and  N_15
REMARK    9  A    between atoms: C_17  and  C_18
REMARK   10  A    between atoms: C_20  and  C_21
REMARK                            x       y       z     vdW  Elec       q    Type
REMARK                         _______ _______ _______ _____ _____    ______ ____
ROOT
ATOM      1  N   UNL     1       2.049   7.228  20.537  0.00  0.00    +0.000 N 
ATOM      2  C   UNL     1       2.175   5.874  20.390  0.00  0.00    +0.000 C 
ATOM      3  O   UNL     1       1.290   5.080  20.679  0.00  0.00    +0.000 OA
ATOM      4  N   UNL     1       3.396   5.515  19.886  0.00  0.00    +0.000 N 
ATOM      5  H   UNL     1       2.885   7.784  20.648  0.00  0.00    +0.000 HD
ATOM      6  H   UNL     1       3.951   6.240  19.457  0.00  0.00    +0.000 HD
ENDROOT
BRANCH   1   7
ATOM      7  C   UNL     1       0.838   7.758  21.132  0.00  0.00    +0.000 C 
BRANCH   7  12
ATOM      8  C   UNL     1       1.185  12.115  18.752  0.00  0.00    +0.000 C 
ATOM      9  C   UNL     1       0.817  11.216  19.877  0.00  0.00    +0.000 A 
ATOM     10  C   UNL     1       0.180  11.585  21.042  0.00  0.00    +0.000 A 
ATOM     11  S   UNL     1      -0.061  10.222  22.047  0.00  0.00    +0.000 S 
ATOM     12  C   UNL     1       0.696   9.228  20.860  0.00  0.00    +0.000 A 
ATOM     13  N   UNL     1       1.122   9.864  19.782  0.00  0.00    +0.000 NA
ENDBRANCH   7  12
ENDBRANCH   1   7
BRANCH   4  14
ATOM     14  C   UNL     1       3.746   4.130  19.604  0.00  0.00    +0.000 C 
BRANCH  14  15
ATOM     15  C   UNL     1       3.653   3.808  18.104  0.00  0.00    +0.000 C 
ATOM     16  C   UNL     1       2.327   3.109  17.781  0.00  0.00    +0.000 C 
BRANCH  15  17
ATOM     17  C   UNL     1       3.792   5.081  17.240  0.00  0.00    +0.000 C 
BRANCH  17  18
ATOM     18  N   UNL     1       5.163   5.506  16.996  0.00  0.00    +0.000 N 
ATOM     19  N   UNL     1       5.662   6.528  17.723  0.00  0.00    +0.000 NA
ATOM     20  C   UNL     1       6.921   6.660  17.294  0.00  0.00    +0.000 A 
ATOM     21  C   UNL     1       7.826   7.682  17.872  0.00  0.00    +0.000 C 
ATOM     22  C   UNL     1       7.226   5.723  16.287  0.00  0.00    +0.000 A 
ATOM     23  C   UNL     1       6.088   4.958  16.141  0.00  0.00    +0.000 A 
ATOM     24  C   UNL     1       5.855   3.774  15.279  0.00  0.00    +0.000 C 
ENDBRANCH  17  18
ENDBRANCH  15  17
ENDBRANCH  14  15
ENDBRANCH   4  14
TORSDOF 6
ENDMDL
MODEL 4
REMARK VINA RESULT:      -6.5      4.811      6.760
REMARK  Name = 
REMARK  10 active torsions:
REMARK  status: ('A' for Active; 'I' for Inactive)
REMARK    1  A    between atoms: C_1  and  C_2
REMARK    2  A    between atoms: C_5  and  C_6
REMARK    3  A    between atoms: C_6  and  N_7
REMARK    4  A    between atoms: N_10  and  C_11
REMARK    5  A    between atoms: C_11  and  C_12
REMARK    6  A    between atoms: C_12  and  C_13
REMARK    7  A    between atoms: C_12  and  C_14
REMARK    8  A    between atoms: C_14  and  N_15
REMARK    9  A    between atoms: C_17  and  C_18
REMARK   10  A    between atoms: C_20  and  C_21
REMARK                            x       y       z     vdW  Elec       q    Type
REMARK                         _______ _______ _______ _____ _____    ______ ____
ROOT
ATOM      1  N   UNL     1       8.047   8.833  17.671  0.00  0.00    +0.000 N 
ATOM      2  C   UNL     1       7.851   7.488  17.822  0.00  0.00    +0.000 C 
ATOM      3  O   UNL     1       8.276   6.850  18.776  0.00  0.00    +0.000 OA
ATOM      4  N   UNL     1       7.130   6.946  16.794  0.00  0.00    +0.000 N 
ATOM      5  H   UNL     1       8.020   9.226  16.740  0.00  0.00    +0.000 HD
ATOM      6  H   UNL     1       6.624   7.583  16.197  0.00  0.00    +0.000 HD
ENDROOT
BRANCH   1   7
ATOM      7  C   UNL     1       8.861   9.537  18.642  0.00  0.00    +0.000 C 
BRANCH   7  12
ATOM      8  C   UNL     1       7.732  14.243  17.479  0.00  0.00    +0.000 C 
ATOM      9  C   UNL     1       8.640  13.090  17.713  0.00  0.00    +0.000 A 
ATOM     10  C   UNL     1      10.015  13.103  17.622  0.00  0.00    +0.000 A 
ATOM     11  S   UNL     1      10.651  11.559  17.993  0.00  0.00    +0.000 S 
ATOM     12  C   UNL     1       9.051  10.975  18.254  0.00  0.00    +0.000 A 
ATOM     13  N   UNL     1       8.090  11.863  18.063  0.00  0.00    +0.000 NA
ENDBRANCH   7  12
ENDBRANCH   1   7
BRANCH   4  14
ATOM     14  C   UNL     1       6.760   5.539  16.758  0.00  0.00    +0.000 C 
BRANCH  14  15
ATOM     15  C   UNL     1       5.515   5.294  15.889  0.00  0.00    +0.000 C 
ATOM     16  C   UNL     1       5.906   4.653  14.551  0.00  0.00    +0.000 C 
BRANCH  15  17
ATOM     17  C   UNL     1       4.485   4.399  16.611  0.00  0.00    +0.000 C 
BRANCH  17  18
ATOM     18  N   UNL     1       3.950   4.958  17.845  0.00  0.00    +0.000 N 
ATOM     19  N   UNL     1       3.312   6.146  17.793  0.00  0.00    +0.000 NA
ATOM     20  C   UNL     1       2.924   6.372  19.052  0.00  0.00    +0.000 A 
ATOM     21  C   UNL     1       2.160   7.590  19.413  0.00  0.00    +0.000 C 
ATOM     22  C   UNL     1       3.320   5.328  19.911  0.00  0.00    +0.000 A 
ATOM     23  C   UNL     1       3.944   4.402  19.101  0.00  0.00    +0.000 A 
ATOM     24  C   UNL     1       4.493   3.069  19.447  0.00  0.00    +0.000 C 
ENDBRANCH  17  18
ENDBRANCH  15  17
ENDBRANCH  14  15
ENDBRANCH   4  14
TORSDOF 6
ENDMDL
MODEL 5
REMARK VINA RESULT:      -6.4      4.638      6.763
REMARK  Name = 
REMARK  10 active torsions:
REMARK  status: ('A' for Active; 'I' for Inactive)
REMARK    1  A    between atoms: C_1  and  C_2
REMARK    2  A    between atoms: C_5  and  C_6
REMARK    3  A    between atoms: C_6  and  N_7
REMARK    4  A    between atoms: N_10  and  C_11
REMARK    5  A    between atoms: C_11  and  C_12
REMARK    6  A    between atoms: C_12  and  C_13
REMARK    7  A    between atoms: C_12  and  C_14
REMARK    8  A    between atoms: C_14  and  N_15
REMARK    9  A    between atoms: C_17  and  C_18
REMARK   10  A    between atoms: C_20  and  C_21
REMARK                            x       y       z     vdW  Elec       q    Type
REMARK                         _______ _______ _______ _____ _____    ______ ____
ROOT
ATOM      1  N   UNL     1       8.620   8.475  18.802  0.00  0.00    +0.000 N 
ATOM      2  C   UNL     1       7.916   7.557  18.073  0.00  0.00    +0.000 C 
ATOM      3  O   UNL     1       7.538   7.756  16.926  0.00  0.00    +0.000 OA
ATOM      4  N   UNL     1       7.688   6.401  18.768  0.00  0.00    +0.000 N 
ATOM      5  H   UNL     1       8.579   8.429  19.811  0.00  0.00    +0.000 HD
ATOM      6  H   UNL     1       8.242   6.242  19.597  0.00  0.00    +0.000 HD
ENDROOT
BRANCH   1   7
ATOM      7  C   UNL     1       8.874   9.781  18.228  0.00  0.00    +0.000 C 
BRANCH   7  12
ATOM      8  C   UNL     1       9.222  12.439  22.421  0.00  0.00    +0.000 C 
ATOM      9  C   UNL     1       9.665  11.958  21.087  0.00  0.00    +0.000 A 
ATOM     10  C   UNL     1      10.826  12.313  20.434  0.00  0.00    +0.000 A 
ATOM     11  S   UNL     1      10.937  11.502  18.932  0.00  0.00    +0.000 S 
ATOM     12  C   UNL     1       9.431  10.728  19.252  0.00  0.00    +0.000 A 
ATOM     13  N   UNL     1       8.861  11.057  20.398  0.00  0.00    +0.000 NA
ENDBRANCH   7  12
ENDBRANCH   1   7
BRANCH   4  14
ATOM     14  C   UNL     1       6.995   5.262  18.183  0.00  0.00    +0.000 C 
BRANCH  14  15
ATOM     15  C   UNL     1       5.652   4.988  18.879  0.00  0.00    +0.000 C 
ATOM     16  C   UNL     1       4.605   6.031  18.464  0.00  0.00    +0.000 C 
BRANCH  15  17
ATOM     17  C   UNL     1       5.126   3.571  18.562  0.00  0.00    +0.000 C 
BRANCH  17  18
ATOM     18  N   UNL     1       3.783   3.295  19.052  0.00  0.00    +0.000 N 
ATOM     19  N   UNL     1       3.606   3.100  20.377  0.00  0.00    +0.000 NA
ATOM     20  C   UNL     1       2.291   2.900  20.511  0.00  0.00    +0.000 A 
ATOM     21  C   UNL     1       1.683   2.664  21.843  0.00  0.00    +0.000 C 
ATOM     22  C   UNL     1       1.628   2.963  19.270  0.00  0.00    +0.000 A 
ATOM     23  C   UNL     1       2.606   3.263  18.346  0.00  0.00    +0.000 A 
ATOM     24  C   UNL     1       2.476   3.526  16.892  0.00  0.00    +0.000 C 
ENDBRANCH  17  18
ENDBRANCH  15  17
ENDBRANCH  14  15
ENDBRANCH   4  14
TORSDOF 6
ENDMDL
MODEL 6
REMARK VINA RESULT:      -6.4      1.704      2.792
REMARK  Name = 
REMARK  10 active torsions:
REMARK  status: ('A' for Active; 'I' for Inactive)
REMARK    1  A    between atoms: C_1  and  C_2
REMARK    2  A    between atoms: C_5  and  C_6
REMARK    3  A    between atoms: C_6  and  N_7
REMARK    4  A    between atoms: N_10  and  C_11
REMARK    5  A    between atoms: C_11  and  C_12
REMARK    6  A    between atoms: C_12  and  C_13
REMARK    7  A    between atoms: C_12  and  C_14
REMARK    8  A    between atoms: C_14  and  N_15
REMARK    9  A    between atoms: C_17  and  C_18
REMARK   10  A    between atoms: C_20  and  C_21
REMARK                            x       y       z     vdW  Elec       q    Type
REMARK                         _______ _______ _______ _____ _____    ______ ____
ROOT
ATOM      1  N   UNL     1       1.997   7.109  20.677  0.00  0.00    +0.000 N 
ATOM      2  C   UNL     1       2.039   5.755  20.487  0.00  0.00    +0.000 C 
ATOM      3  O   UNL     1       1.082   5.018  20.684  0.00  0.00    +0.000 OA
ATOM      4  N   UNL     1       3.264   5.326  20.053  0.00  0.00    +0.000 N 
ATOM      5  H   UNL     1       2.860   7.599  20.866  0.00  0.00    +0.000 HD
ATOM      6  H   UNL     1       3.896   6.024  19.690  0.00  0.00    +0.000 HD
ENDROOT
BRANCH   1   7
ATOM      7  C   UNL     1       0.788   7.704  21.210  0.00  0.00    +0.000 C 
BRANCH   7  12
ATOM      8  C   UNL     1       1.456  11.967  18.730  0.00  0.00    +0.000 C 
ATOM      9  C   UNL     1       0.968  11.117  19.846  0.00  0.00    +0.000 A 
ATOM     10  C   UNL     1       0.243  11.540  20.939  0.00  0.00    +0.000 A 
ATOM     11  S   UNL     1      -0.121  10.219  21.962  0.00  0.00    +0.000 S 
ATOM     12  C   UNL     1       0.709   9.167  20.879  0.00  0.00    +0.000 A 
ATOM     13  N   UNL     1       1.244   9.755  19.822  0.00  0.00    +0.000 NA
ENDBRANCH   7  12
ENDBRANCH   1   7
BRANCH   4  14
ATOM     14  C   UNL     1       3.536   3.931  19.741  0.00  0.00    +0.000 C 
BRANCH  14  15
ATOM     15  C   UNL     1       3.759   3.711  18.236  0.00  0.00    +0.000 C 
ATOM     16  C   UNL     1       2.444   3.329  17.544  0.00  0.00    +0.000 C 
BRANCH  15  17
ATOM     17  C   UNL     1       4.354   4.966  17.560  0.00  0.00    +0.000 C 
BRANCH  17  18
ATOM     18  N   UNL     1       5.390   4.693  16.574  0.00  0.00    +0.000 N 
ATOM     19  N   UNL     1       5.017   4.368  15.318  0.00  0.00    +0.000 NA
ATOM     20  C   UNL     1       6.169   4.207  14.658  0.00  0.00    +0.000 A 
ATOM     21  C   UNL     1       6.186   3.857  13.218  0.00  0.00    +0.000 C 
ATOM     22  C   UNL     1       7.280   4.426  15.496  0.00  0.00    +0.000 A 
ATOM     23  C   UNL     1       6.753   4.782  16.720  0.00  0.00    +0.000 A 
ATOM     24  C   UNL     1       7.452   5.201  17.958  0.00  0.00    +0.000 C 
ENDBRANCH  17  18
ENDBRANCH  15  17
ENDBRANCH  14  15
ENDBRANCH   4  14
TORSDOF 6
ENDMDL
MODEL 7
REMARK VINA RESULT:      -6.4      1.816      2.653
REMARK  Name = 
REMARK  10 active torsions:
REMARK  status: ('A' for Active; 'I' for Inactive)
REMARK    1  A    between atoms: C_1  and  C_2
REMARK    2  A    between atoms: C_5  and  C_6
REMARK    3  A    between atoms: C_6  and  N_7
REMARK    4  A    between atoms: N_10  and  C_11
REMARK    5  A    between atoms: C_11  and  C_12
REMARK    6  A    between atoms: C_12  and  C_13
REMARK    7  A    between atoms: C_12  and  C_14
REMARK    8  A    between atoms: C_14  and  N_15
REMARK    9  A    between atoms: C_17  and  C_18
REMARK   10  A    between atoms: C_20  and  C_21
REMARK                            x       y       z     vdW  Elec       q    Type
REMARK                         _______ _______ _______ _____ _____    ______ ____
ROOT
ATOM      1  N   UNL     1       2.159   7.144  20.556  0.00  0.00    +0.000 N 
ATOM      2  C   UNL     1       2.043   5.784  20.484  0.00  0.00    +0.000 C 
ATOM      3  O   UNL     1       0.994   5.186  20.687  0.00  0.00    +0.000 OA
ATOM      4  N   UNL     1       3.225   5.174  20.162  0.00  0.00    +0.000 N 
ATOM      5  H   UNL     1       3.066   7.544  20.753  0.00  0.00    +0.000 HD
ATOM      6  H   UNL     1       3.956   5.755  19.780  0.00  0.00    +0.000 HD
ENDROOT
BRANCH   1   7
ATOM      7  C   UNL     1       1.009   7.926  20.963  0.00  0.00    +0.000 C 
BRANCH   7  12
ATOM      8  C   UNL     1       0.884  12.895  20.715  0.00  0.00    +0.000 C 
ATOM      9  C   UNL     1       1.000  11.518  20.168  0.00  0.00    +0.000 A 
ATOM     10  C   UNL     1       1.207  11.178  18.849  0.00  0.00    +0.000 A 
ATOM     11  S   UNL     1       1.295   9.478  18.678  0.00  0.00    +0.000 S 
ATOM     12  C   UNL     1       1.053   9.307  20.375  0.00  0.00    +0.000 A 
ATOM     13  N   UNL     1       0.898  10.440  21.039  0.00  0.00    +0.000 NA
ENDBRANCH   7  12
ENDBRANCH   1   7
BRANCH   4  14
ATOM     14  C   UNL     1       3.337   3.733  19.988  0.00  0.00    +0.000 C 
BRANCH  14  15
ATOM     15  C   UNL     1       3.931   3.365  18.618  0.00  0.00    +0.000 C 
ATOM     16  C   UNL     1       2.915   3.630  17.499  0.00  0.00    +0.000 C 
BRANCH  15  17
ATOM     17  C   UNL     1       5.231   4.147  18.333  0.00  0.00    +0.000 C 
BRANCH  17  18
ATOM     18  N   UNL     1       5.368   4.625  16.964  0.00  0.00    +0.000 N 
ATOM     19  N   UNL     1       5.798   3.762  16.019  0.00  0.00    +0.000 NA
ATOM     20  C   UNL     1       5.793   4.477  14.888  0.00  0.00    +0.000 A 
ATOM     21  C   UNL     1       6.190   3.870  13.595  0.00  0.00    +0.000 C 
ATOM     22  C   UNL     1       5.364   5.799  15.114  0.00  0.00    +0.000 A 
ATOM     23  C   UNL     1       5.052   5.861  16.455  0.00  0.00    +0.000 A 
ATOM     24  C   UNL     1       4.478   6.983  17.237  0.00  0.00    +0.000 C 
ENDBRANCH  17  18
ENDBRANCH  15  17
ENDBRANCH  14  15
ENDBRANCH   4  14
TORSDOF 6
ENDMDL
MODEL 8
REMARK VINA RESULT:      -6.4      1.681      2.685
REMARK  Name = 
REMARK  10 active torsions:
REMARK  status: ('A' for Active; 'I' for Inactive)
REMARK    1  A    between atoms: C_1  and  C_2
REMARK    2  A    between atoms: C_5  and  C_6
REMARK    3  A    between atoms: C_6  and  N_7
REMARK    4  A    between atoms: N_10  and  C_11
REMARK    5  A    between atoms: C_11  and  C_12
REMARK    6  A    between atoms: C_12  and  C_13
REMARK    7  A    between atoms: C_12  and  C_14
REMARK    8  A    between atoms: C_14  and  N_15
REMARK    9  A    between atoms: C_17  and  C_18
REMARK   10  A    between atoms: C_20  and  C_21
REMARK                            x       y       z     vdW  Elec       q    Type
REMARK                         _______ _______ _______ _____ _____    ______ ____
ROOT
ATOM      1  N   UNL     1       2.588   7.019  20.252  0.00  0.00    +0.000 N 
ATOM      2  C   UNL     1       2.670   5.659  20.135  0.00  0.00    +0.000 C 
ATOM      3  O   UNL     1       1.770   4.899  20.470  0.00  0.00    +0.000 OA
ATOM      4  N   UNL     1       3.862   5.251  19.602  0.00  0.00    +0.000 N 
ATOM      5  H   UNL     1       3.444   7.552  20.324  0.00  0.00    +0.000 HD
ATOM      6  H   UNL     1       4.425   5.949  19.138  0.00  0.00    +0.000 HD
ENDROOT
BRANCH   1   7
ATOM      7  C   UNL     1       1.414   7.600  20.872  0.00  0.00    +0.000 C 
BRANCH   7  12
ATOM      8  C   UNL     1      -0.219  12.293  20.590  0.00  0.00    +0.000 C 
ATOM      9  C   UNL     1       0.390  11.042  20.069  0.00  0.00    +0.000 A 
ATOM     10  C   UNL     1       0.863  10.834  18.792  0.00  0.00    +0.000 A 
ATOM     11  S   UNL     1       1.497   9.252  18.641  0.00  0.00    +0.000 S 
ATOM     12  C   UNL     1       1.101   8.949  20.290  0.00  0.00    +0.000 A 
ATOM     13  N   UNL     1       0.517   9.952  20.923  0.00  0.00    +0.000 NA
ENDBRANCH   7  12
ENDBRANCH   1   7
BRANCH   4  14
ATOM     14  C   UNL     1       4.162   3.850  19.343  0.00  0.00    +0.000 C 
BRANCH  14  15
ATOM     15  C   UNL     1       4.043   3.504  17.849  0.00  0.00    +0.000 C 
ATOM     16  C   UNL     1       2.687   2.853  17.551  0.00  0.00    +0.000 C 
BRANCH  15  17
ATOM     17  C   UNL     1       4.226   4.753  16.960  0.00  0.00    +0.000 C 
BRANCH  17  18
ATOM     18  N   UNL     1       5.333   4.673  16.016  0.00  0.00    +0.000 N 
ATOM     19  N   UNL     1       5.113   4.111  14.809  0.00  0.00    +0.000 NA
ATOM     20  C   UNL     1       6.287   4.208  14.177  0.00  0.00    +0.000 A 
ATOM     21  C   UNL     1       6.455   3.713  12.790  0.00  0.00    +0.000 C 
ATOM     22  C   UNL     1       7.260   4.830  14.984  0.00  0.00    +0.000 A 
ATOM     23  C   UNL     1       6.609   5.162  16.154  0.00  0.00    +0.000 A 
ATOM     24  C   UNL     1       7.116   5.903  17.334  0.00  0.00    +0.000 C 
ENDBRANCH  17  18
ENDBRANCH  15  17
ENDBRANCH  14  15
ENDBRANCH   4  14
TORSDOF 6
ENDMDL
MODEL 9
REMARK VINA RESULT:      -6.3      2.693      8.457
REMARK  Name = 
REMARK  10 active torsions:
REMARK  status: ('A' for Active; 'I' for Inactive)
REMARK    1  A    between atoms: C_1  and  C_2
REMARK    2  A    between atoms: C_5  and  C_6
REMARK    3  A    between atoms: C_6  and  N_7
REMARK    4  A    between atoms: N_10  and  C_11
REMARK    5  A    between atoms: C_11  and  C_12
REMARK    6  A    between atoms: C_12  and  C_13
REMARK    7  A    between atoms: C_12  and  C_14
REMARK    8  A    between atoms: C_14  and  N_15
REMARK    9  A    between atoms: C_17  and  C_18
REMARK   10  A    between atoms: C_20  and  C_21
REMARK                            x       y       z     vdW  Elec       q    Type
REMARK                         _______ _______ _______ _____ _____    ______ ____
ROOT
ATOM      1  N   UNL     1       2.804   6.083  18.838  0.00  0.00    +0.000 N 
ATOM      2  C   UNL     1       2.210   6.262  20.057  0.00  0.00    +0.000 C 
ATOM      3  O   UNL     1       1.953   5.341  20.822  0.00  0.00    +0.000 OA
ATOM      4  N   UNL     1       1.941   7.578  20.320  0.00  0.00    +0.000 N 
ATOM      5  H   UNL     1       2.653   6.777  18.119  0.00  0.00    +0.000 HD
ATOM      6  H   UNL     1       2.406   8.268  19.749  0.00  0.00    +0.000 HD
ENDROOT
BRANCH   1   7
ATOM      7  C   UNL     1       3.080   4.735  18.384  0.00  0.00    +0.000 C 
BRANCH   7  12
ATOM      8  C   UNL     1       6.333   4.008  14.688  0.00  0.00    +0.000 C 
ATOM      9  C   UNL     1       5.917   4.351  16.073  0.00  0.00    +0.000 A 
ATOM     10  C   UNL     1       6.747   4.732  17.104  0.00  0.00    +0.000 A 
ATOM     11  S   UNL     1       5.836   5.050  18.517  0.00  0.00    +0.000 S 
ATOM     12  C   UNL     1       4.393   4.662  17.659  0.00  0.00    +0.000 A 
ATOM     13  N   UNL     1       4.567   4.300  16.399  0.00  0.00    +0.000 NA
ENDBRANCH   7  12
ENDBRANCH   1   7
BRANCH   4  14
ATOM     14  C   UNL     1       1.349   8.018  21.575  0.00  0.00    +0.000 C 
BRANCH  14  15
ATOM     15  C   UNL     1       0.190   9.002  21.349  0.00  0.00    +0.000 C 
ATOM     16  C   UNL     1      -0.295   9.583  22.683  0.00  0.00    +0.000 C 
BRANCH  15  17
ATOM     17  C   UNL     1       0.596  10.151  20.400  0.00  0.00    +0.000 C 
BRANCH  17  18
ATOM     18  N   UNL     1      -0.455  10.596  19.496  0.00  0.00    +0.000 N 
ATOM     19  N   UNL     1      -0.697   9.875  18.381  0.00  0.00    +0.000 NA
ATOM     20  C   UNL     1      -1.712  10.510  17.786  0.00  0.00    +0.000 A 
ATOM     21  C   UNL     1      -2.293  10.009  16.519  0.00  0.00    +0.000 C 
ATOM     22  C   UNL     1      -2.116  11.642  18.521  0.00  0.00    +0.000 A 
ATOM     23  C   UNL     1      -1.318  11.654  19.646  0.00  0.00    +0.000 A 
ATOM     24  C   UNL     1      -1.349  12.571  20.810  0.00  0.00    +0.000 C 
ENDBRANCH  17  18
ENDBRANCH  15  17
ENDBRANCH  14  15
ENDBRANCH   4  14
TORSDOF 6
ENDMDL
