MODEL 1
REMARK VINA RESULT:      -7.6      0.000      0.000
REMARK  Name = 
REMARK  5 active torsions:
REMARK  status: ('A' for Active; 'I' for Inactive)
REMARK    1  A    between atoms: O_1  and  C_2
REMARK    2  A    between atoms: C_3  and  N_4
REMARK    3  A    between atoms: N_9  and  C_10
REMARK    4  A    between atoms: C_24  and  C_25
REMARK    5  A    between atoms: C_27  and  O_28
REMARK                            x       y       z     vdW  Elec       q    Type
REMARK                         _______ _______ _______ _____ _____    ______ ____
ROOT
ATOM      1  N   UNL     1       1.454   8.913  19.289  0.00  0.00    +0.000 N 
ATOM      2  C   UNL     1       1.974   9.382  18.106  0.00  0.00    +0.000 A 
ATOM      3  N   UNL     1       2.693   8.477  17.481  0.00  0.00    +0.000 NA
ATOM      4  C   UNL     1       2.679   7.378  18.308  0.00  0.00    +0.000 A 
ATOM      5  C   UNL     1       3.323   6.117  18.233  0.00  0.00    +0.000 A 
ATOM      6  N   UNL     1       4.148   5.790  17.150  0.00  0.00    +0.000 N 
ATOM      7  N   UNL     1       3.143   5.251  19.251  0.00  0.00    +0.000 NA
ATOM      8  C   UNL     1       2.341   5.629  20.266  0.00  0.00    +0.000 A 
ATOM      9 CL   UNL     1       2.138   4.460  21.500  0.00  0.00    +0.000 Cl
ATOM     10  N   UNL     1       1.662   6.782  20.450  0.00  0.00    +0.000 NA
ATOM     11  C   UNL     1       1.903   7.629  19.438  0.00  0.00    +0.000 A 
ATOM     12  H   UNL     1       3.610   5.762  16.289  0.00  0.00    +0.000 HD
ENDROOT
BRANCH   6  13
ATOM     13  C   UNL     1       5.151   4.746  17.311  0.00  0.00    +0.000 C 
ATOM     14  C   UNL     1       5.743   4.364  15.932  0.00  0.00    +0.000 C 
ATOM     15  C   UNL     1       7.210   4.824  16.027  0.00  0.00    +0.000 C 
ATOM     16  C   UNL     1       7.301   6.358  16.131  0.00  0.00    +0.000 C 
ATOM     17  C   UNL     1       6.830   6.643  17.563  0.00  0.00    +0.000 C 
ATOM     18  C   UNL     1       6.418   5.246  18.065  0.00  0.00    +0.000 C 
ATOM     19  C   UNL     1       7.541   4.396  17.453  0.00  0.00    +0.000 C 
ENDBRANCH   6  13
BRANCH   1  21
ATOM     20  C   UNL     1       1.068  10.139  21.463  0.00  0.00    +0.000 C 
ATOM     21  C   UNL     1       0.523   9.682  20.095  0.00  0.00    +0.000 C 
ATOM     22  C   UNL     1      -0.062  10.958  19.519  0.00  0.00    +0.000 C 
ATOM     23  C   UNL     1      -1.518  11.248  19.750  0.00  0.00    +0.000 C 
ATOM     24  C   UNL     1      -0.479  11.849  20.692  0.00  0.00    +0.000 C 
ATOM     25  C   UNL     1      -0.030  11.132  21.957  0.00  0.00    +0.000 C 
BRANCH  20  26
ATOM     26  O   UNL     1       1.230   9.052  22.361  0.00  0.00    +0.000 OA
ATOM     27  H   UNL     1       1.454   8.265  21.829  0.00  0.00    +0.000 HD
ENDBRANCH  20  26
BRANCH  24  28
ATOM     28  C   UNL     1      -0.458  13.352  20.795  0.00  0.00    +0.000 C 
ATOM     29 CL   UNL     1      -0.382  13.953  22.456  0.00  0.00    +0.000 Cl
ENDBRANCH  24  28
BRANCH  25  30
ATOM     30  O   UNL     1      -1.165  10.504  22.543  0.00  0.00    +0.000 OA
ATOM     31  H   UNL     1      -1.709  10.129  21.830  0.00  0.00    +0.000 HD
ENDBRANCH  25  30
ENDBRANCH   1  21
TORSDOF 5
ENDMDL
MODEL 2
REMARK VINA RESULT:      -7.3      2.962      4.179
REMARK  Name = 
REMARK  5 active torsions:
REMARK  status: ('A' for Active; 'I' for Inactive)
REMARK    1  A    between atoms: O_1  and  C_2
REMARK    2  A    between atoms: C_3  and  N_4
REMARK    3  A    between atoms: N_9  and  C_10
REMARK    4  A    between atoms: C_24  and  C_25
REMARK    5  A    between atoms: C_27  and  O_28
REMARK                            x       y       z     vdW  Elec       q    Type
REMARK                         _______ _______ _______ _____ _____    ______ ____
ROOT
ATOM      1  N   UNL     1       1.180   9.391  19.270  0.00  0.00    +0.000 N 
ATOM      2  C   UNL     1       0.725   8.888  20.467  0.00  0.00    +0.000 A 
ATOM      3  N   UNL     1       1.295   7.747  20.781  0.00  0.00    +0.000 NA
ATOM      4  C   UNL     1       2.131   7.466  19.726  0.00  0.00    +0.000 A 
ATOM      5  C   UNL     1       2.959   6.352  19.434  0.00  0.00    +0.000 A 
ATOM      6  N   UNL     1       3.048   5.267  20.314  0.00  0.00    +0.000 N 
ATOM      7  N   UNL     1       3.636   6.354  18.269  0.00  0.00    +0.000 NA
ATOM      8  C   UNL     1       3.505   7.426  17.464  0.00  0.00    +0.000 A 
ATOM      9 CL   UNL     1       4.424   7.365  16.021  0.00  0.00    +0.000 Cl
ATOM     10  N   UNL     1       2.770   8.548  17.629  0.00  0.00    +0.000 NA
ATOM     11  C   UNL     1       2.081   8.486  18.778  0.00  0.00    +0.000 A 
ATOM     12  H   UNL     1       3.453   5.557  21.199  0.00  0.00    +0.000 HD
ENDROOT
BRANCH   6  13
ATOM     13  C   UNL     1       3.484   3.974  19.805  0.00  0.00    +0.000 C 
ATOM     14  C   UNL     1       3.078   2.852  20.793  0.00  0.00    +0.000 C 
ATOM     15  C   UNL     1       2.040   2.032  20.005  0.00  0.00    +0.000 C 
ATOM     16  C   UNL     1       0.769   2.862  19.741  0.00  0.00    +0.000 C 
ATOM     17  C   UNL     1       1.214   3.855  18.659  0.00  0.00    +0.000 C 
ATOM     18  C   UNL     1       2.718   3.547  18.519  0.00  0.00    +0.000 C 
ATOM     19  C   UNL     1       2.691   2.016  18.626  0.00  0.00    +0.000 C 
ENDBRANCH   6  13
BRANCH   1  21
ATOM     20  C   UNL     1      -0.631  11.147  19.147  0.00  0.00    +0.000 C 
ATOM     21  C   UNL     1       0.797  10.700  18.774  0.00  0.00    +0.000 C 
ATOM     22  C   UNL     1       1.639  11.902  19.154  0.00  0.00    +0.000 C 
ATOM     23  C   UNL     1       1.929  12.937  18.104  0.00  0.00    +0.000 C 
ATOM     24  C   UNL     1       0.751  13.145  19.051  0.00  0.00    +0.000 C 
ATOM     25  C   UNL     1      -0.647  12.646  18.715  0.00  0.00    +0.000 C 
BRANCH  20  26
ATOM     26  O   UNL     1      -1.620  10.395  18.462  0.00  0.00    +0.000 OA
ATOM     27  H   UNL     1      -2.011  10.977  17.782  0.00  0.00    +0.000 HD
ENDBRANCH  20  26
BRANCH  24  28
ATOM     28  C   UNL     1       0.774  14.400  19.885  0.00  0.00    +0.000 C 
ATOM     29 CL   UNL     1       0.894  15.886  18.935  0.00  0.00    +0.000 Cl
ENDBRANCH  24  28
BRANCH  25  30
ATOM     30  O   UNL     1      -0.875  12.851  17.325  0.00  0.00    +0.000 OA
ATOM     31  H   UNL     1      -0.014  12.854  16.872  0.00  0.00    +0.000 HD
ENDBRANCH  25  30
ENDBRANCH   1  21
TORSDOF 5
ENDMDL
MODEL 3
REMARK VINA RESULT:      -7.1      2.936      4.053
REMARK  Name = 
REMARK  5 active torsions:
REMARK  status: ('A' for Active; 'I' for Inactive)
REMARK    1  A    between atoms: O_1  and  C_2
REMARK    2  A    between atoms: C_3  and  N_4
REMARK    3  A    between atoms: N_9  and  C_10
REMARK    4  A    between atoms: C_24  and  C_25
REMARK    5  A    between atoms: C_27  and  O_28
REMARK                            x       y       z     vdW  Elec       q    Type
REMARK                         _______ _______ _______ _____ _____    ______ ____
ROOT
ATOM      1  N   UNL     1       1.151   9.221  19.642  0.00  0.00    +0.000 N 
ATOM      2  C   UNL     1       0.720   8.612  20.798  0.00  0.00    +0.000 A 
ATOM      3  N   UNL     1       1.307   7.455  21.004  0.00  0.00    +0.000 NA
ATOM      4  C   UNL     1       2.129   7.275  19.917  0.00  0.00    +0.000 A 
ATOM      5  C   UNL     1       2.963   6.200  19.517  0.00  0.00    +0.000 A 
ATOM      6  N   UNL     1       3.078   5.044  20.299  0.00  0.00    +0.000 N 
ATOM      7  N   UNL     1       3.621   6.309  18.346  0.00  0.00    +0.000 NA
ATOM      8  C   UNL     1       3.465   7.445  17.638  0.00  0.00    +0.000 A 
ATOM      9 CL   UNL     1       4.361   7.518  16.181  0.00  0.00    +0.000 Cl
ATOM     10  N   UNL     1       2.722   8.540  17.910  0.00  0.00    +0.000 NA
ATOM     11  C   UNL     1       2.052   8.372  19.060  0.00  0.00    +0.000 A 
ATOM     12  H   UNL     1       3.494   5.263  21.199  0.00  0.00    +0.000 HD
ENDROOT
BRANCH   6  13
ATOM     13  C   UNL     1       3.518   3.805  19.675  0.00  0.00    +0.000 C 
ATOM     14  C   UNL     1       3.119   2.596  20.558  0.00  0.00    +0.000 C 
ATOM     15  C   UNL     1       2.083   1.847  19.699  0.00  0.00    +0.000 C 
ATOM     16  C   UNL     1       0.808   2.692  19.512  0.00  0.00    +0.000 C 
ATOM     17  C   UNL     1       1.247   3.781  18.525  0.00  0.00    +0.000 C 
ATOM     18  C   UNL     1       2.752   3.493  18.356  0.00  0.00    +0.000 C 
ATOM     19  C   UNL     1       2.732   1.958  18.323  0.00  0.00    +0.000 C 
ENDBRANCH   6  13
BRANCH   1  21
ATOM     20  C   UNL     1      -0.694  10.682  18.726  0.00  0.00    +0.000 C 
ATOM     21  C   UNL     1       0.746  10.563  19.265  0.00  0.00    +0.000 C 
ATOM     22  C   UNL     1       0.811  11.665  20.305  0.00  0.00    +0.000 C 
ATOM     23  C   UNL     1       1.319  13.017  19.887  0.00  0.00    +0.000 C 
ATOM     24  C   UNL     1      -0.184  12.753  19.892  0.00  0.00    +0.000 C 
ATOM     25  C   UNL     1      -0.912  12.226  18.665  0.00  0.00    +0.000 C 
BRANCH  20  26
ATOM     26  O   UNL     1      -0.834  10.084  17.447  0.00  0.00    +0.000 OA
ATOM     27  H   UNL     1      -0.265   9.291  17.431  0.00  0.00    +0.000 HD
ENDBRANCH  20  26
BRANCH  24  28
ATOM     28  C   UNL     1      -1.019  13.655  20.764  0.00  0.00    +0.000 C 
ATOM     29 CL   UNL     1      -2.514  12.907  21.341  0.00  0.00    +0.000 Cl
ENDBRANCH  24  28
BRANCH  25  30
ATOM     30  O   UNL     1      -0.357  12.849  17.511  0.00  0.00    +0.000 OA
ATOM     31  H   UNL     1      -0.912  12.622  16.745  0.00  0.00    +0.000 HD
ENDBRANCH  25  30
ENDBRANCH   1  21
TORSDOF 5
ENDMDL
MODEL 4
REMARK VINA RESULT:      -7.0      3.083      4.307
REMARK  Name = 
REMARK  5 active torsions:
REMARK  status: ('A' for Active; 'I' for Inactive)
REMARK    1  A    between atoms: O_1  and  C_2
REMARK    2  A    between atoms: C_3  and  N_4
REMARK    3  A    between atoms: N_9  and  C_10
REMARK    4  A    between atoms: C_24  and  C_25
REMARK    5  A    between atoms: C_27  and  O_28
REMARK                            x       y       z     vdW  Elec       q    Type
REMARK                         _______ _______ _______ _____ _____    ______ ____
ROOT
ATOM      1  N   UNL     1       1.360  11.460  18.967  0.00  0.00    +0.000 N 
ATOM      2  C   UNL     1       1.917  10.900  17.841  0.00  0.00    +0.000 A 
ATOM      3  N   UNL     1       2.049   9.597  17.942  0.00  0.00    +0.000 NA
ATOM      4  C   UNL     1       1.599   9.290  19.204  0.00  0.00    +0.000 A 
ATOM      5  C   UNL     1       1.552   8.075  19.934  0.00  0.00    +0.000 A 
ATOM      6  N   UNL     1       2.005   6.876  19.371  0.00  0.00    +0.000 N 
ATOM      7  N   UNL     1       1.086   8.112  21.198  0.00  0.00    +0.000 NA
ATOM      8  C   UNL     1       0.669   9.298  21.683  0.00  0.00    +0.000 A 
ATOM      9 CL   UNL     1       0.060   9.252  23.282  0.00  0.00    +0.000 Cl
ATOM     10  N   UNL     1       0.644  10.514  21.094  0.00  0.00    +0.000 NA
ATOM     11  C   UNL     1       1.155  10.440  19.855  0.00  0.00    +0.000 A 
ATOM     12  H   UNL     1       1.436   6.620  18.570  0.00  0.00    +0.000 HD
ENDROOT
BRANCH   6  13
ATOM     13  C   UNL     1       2.401   5.784  20.249  0.00  0.00    +0.000 C 
ATOM     14  C   UNL     1       1.205   4.825  20.472  0.00  0.00    +0.000 C 
ATOM     15  C   UNL     1       1.657   3.518  19.792  0.00  0.00    +0.000 C 
ATOM     16  C   UNL     1       1.788   3.707  18.269  0.00  0.00    +0.000 C 
ATOM     17  C   UNL     1       3.064   4.547  18.125  0.00  0.00    +0.000 C 
ATOM     18  C   UNL     1       3.443   4.834  19.591  0.00  0.00    +0.000 C 
ATOM     19  C   UNL     1       3.119   3.474  20.226  0.00  0.00    +0.000 C 
ENDBRANCH   6  13
BRANCH   1  21
ATOM     20  C   UNL     1      -0.520  13.145  19.010  0.00  0.00    +0.000 C 
ATOM     21  C   UNL     1       0.996  12.862  19.046  0.00  0.00    +0.000 C 
ATOM     22  C   UNL     1       1.464  13.673  20.239  0.00  0.00    +0.000 C 
ATOM     23  C   UNL     1       1.958  15.073  20.006  0.00  0.00    +0.000 C 
ATOM     24  C   UNL     1       0.503  14.853  20.406  0.00  0.00    +0.000 C 
ATOM     25  C   UNL     1      -0.596  14.661  19.371  0.00  0.00    +0.000 C 
BRANCH  20  26
ATOM     26  O   UNL     1      -1.079  12.884  17.732  0.00  0.00    +0.000 OA
ATOM     27  H   UNL     1      -0.352  12.916  17.082  0.00  0.00    +0.000 HD
ENDBRANCH  20  26
BRANCH  24  28
ATOM     28  C   UNL     1       0.045  15.532  21.671  0.00  0.00    +0.000 C 
ATOM     29 CL   UNL     1      -0.959  14.510  22.708  0.00  0.00    +0.000 Cl
ENDBRANCH  24  28
BRANCH  25  30
ATOM     30  O   UNL     1      -0.339  15.536  18.277  0.00  0.00    +0.000 OA
ATOM     31  H   UNL     1       0.393  15.164  17.755  0.00  0.00    +0.000 HD
ENDBRANCH  25  30
ENDBRANCH   1  21
TORSDOF 5
ENDMDL
MODEL 5
REMARK VINA RESULT:      -6.8      3.104      4.600
REMARK  Name = 
REMARK  5 active torsions:
REMARK  status: ('A' for Active; 'I' for Inactive)
REMARK    1  A    between atoms: O_1  and  C_2
REMARK    2  A    between atoms: C_3  and  N_4
REMARK    3  A    between atoms: N_9  and  C_10
REMARK    4  A    between atoms: C_24  and  C_25
REMARK    5  A    between atoms: C_27  and  O_28
REMARK                            x       y       z     vdW  Elec       q    Type
REMARK                         _______ _______ _______ _____ _____    ______ ____
ROOT
ATOM      1  N   UNL     1       1.277  12.054  19.518  0.00  0.00    +0.000 N 
ATOM      2  C   UNL     1       1.762  11.598  18.315  0.00  0.00    +0.000 A 
ATOM      3  N   UNL     1       1.876  10.289  18.285  0.00  0.00    +0.000 NA
ATOM      4  C   UNL     1       1.488   9.869  19.536  0.00  0.00    +0.000 A 
ATOM      5  C   UNL     1       1.459   8.590  20.148  0.00  0.00    +0.000 A 
ATOM      6  N   UNL     1       1.860   7.445  19.450  0.00  0.00    +0.000 N 
ATOM      7  N   UNL     1       1.062   8.512  21.434  0.00  0.00    +0.000 NA
ATOM      8  C   UNL     1       0.693   9.652  22.051  0.00  0.00    +0.000 A 
ATOM      9 CL   UNL     1       0.171   9.461  23.670  0.00  0.00    +0.000 Cl
ATOM     10  N   UNL     1       0.659  10.918  21.583  0.00  0.00    +0.000 NA
ATOM     11  C   UNL     1       1.101  10.957  20.316  0.00  0.00    +0.000 A 
ATOM     12  H   UNL     1       1.244   7.275  18.661  0.00  0.00    +0.000 HD
ENDROOT
BRANCH   6  13
ATOM     13  C   UNL     1       2.283   6.269  20.198  0.00  0.00    +0.000 C 
ATOM     14  C   UNL     1       1.120   5.249  20.282  0.00  0.00    +0.000 C 
ATOM     15  C   UNL     1       1.628   4.051  19.458  0.00  0.00    +0.000 C 
ATOM     16  C   UNL     1       1.774   4.427  17.971  0.00  0.00    +0.000 C 
ATOM     17  C   UNL     1       3.020   5.322  17.953  0.00  0.00    +0.000 C 
ATOM     18  C   UNL     1       3.368   5.442  19.450  0.00  0.00    +0.000 C 
ATOM     19  C   UNL     1       3.084   4.005  19.910  0.00  0.00    +0.000 C 
ENDBRANCH   6  13
BRANCH   1  21
ATOM     20  C   UNL     1       1.965  14.232  20.597  0.00  0.00    +0.000 C 
ATOM     21  C   UNL     1       0.942  13.447  19.750  0.00  0.00    +0.000 C 
ATOM     22  C   UNL     1       0.723  14.356  18.555  0.00  0.00    +0.000 C 
ATOM     23  C   UNL     1      -0.409  15.343  18.602  0.00  0.00    +0.000 C 
ATOM     24  C   UNL     1       0.991  15.793  19.008  0.00  0.00    +0.000 C 
ATOM     25  C   UNL     1       1.478  15.706  20.447  0.00  0.00    +0.000 C 
BRANCH  20  26
ATOM     26  O   UNL     1       1.963  13.816  21.953  0.00  0.00    +0.000 OA
ATOM     27  H   UNL     1       1.259  13.147  22.053  0.00  0.00    +0.000 HD
ENDBRANCH  20  26
BRANCH  24  28
ATOM     28  C   UNL     1       1.579  16.940  18.227  0.00  0.00    +0.000 C 
ATOM     29 CL   UNL     1       0.373  17.936  17.403  0.00  0.00    +0.000 Cl
ENDBRANCH  24  28
BRANCH  25  30
ATOM     30  O   UNL     1       0.399  16.055  21.308  0.00  0.00    +0.000 OA
ATOM     31  H   UNL     1       0.461  17.005  21.506  0.00  0.00    +0.000 HD
ENDBRANCH  25  30
ENDBRANCH   1  21
TORSDOF 5
ENDMDL
MODEL 6
REMARK VINA RESULT:      -6.8      3.235      4.672
REMARK  Name = 
REMARK  5 active torsions:
REMARK  status: ('A' for Active; 'I' for Inactive)
REMARK    1  A    between atoms: O_1  and  C_2
REMARK    2  A    between atoms: C_3  and  N_4
REMARK    3  A    between atoms: N_9  and  C_10
REMARK    4  A    between atoms: C_24  and  C_25
REMARK    5  A    between atoms: C_27  and  O_28
REMARK                            x       y       z     vdW  Elec       q    Type
REMARK                         _______ _______ _______ _____ _____    ______ ____
ROOT
ATOM      1  N   UNL     1      -0.430  10.318  21.586  0.00  0.00    +0.000 N 
ATOM      2  C   UNL     1      -0.572   9.310  22.512  0.00  0.00    +0.000 A 
ATOM      3  N   UNL     1       0.168   8.263  22.230  0.00  0.00    +0.000 NA
ATOM      4  C   UNL     1       0.794   8.577  21.046  0.00  0.00    +0.000 A 
ATOM      5  C   UNL     1       1.657   7.840  20.196  0.00  0.00    +0.000 A 
ATOM      6  N   UNL     1       2.040   6.532  20.513  0.00  0.00    +0.000 N 
ATOM      7  N   UNL     1       2.074   8.425  19.055  0.00  0.00    +0.000 NA
ATOM      8  C   UNL     1       1.665   9.684  18.805  0.00  0.00    +0.000 A 
ATOM      9 CL   UNL     1       2.266  10.365  17.354  0.00  0.00    +0.000 Cl
ATOM     10  N   UNL     1       0.866  10.495  19.531  0.00  0.00    +0.000 NA
ATOM     11  C   UNL     1       0.440   9.861  20.634  0.00  0.00    +0.000 A 
ATOM     12  H   UNL     1       2.587   6.519  21.369  0.00  0.00    +0.000 HD
ENDROOT
BRANCH   6  13
ATOM     13  C   UNL     1       2.496   5.648  19.450  0.00  0.00    +0.000 C 
ATOM     14  C   UNL     1       3.777   4.900  19.897  0.00  0.00    +0.000 C 
ATOM     15  C   UNL     1       3.328   3.429  19.979  0.00  0.00    +0.000 C 
ATOM     16  C   UNL     1       2.292   3.232  21.103  0.00  0.00    +0.000 C 
ATOM     17  C   UNL     1       1.023   3.875  20.531  0.00  0.00    +0.000 C 
ATOM     18  C   UNL     1       1.519   4.464  19.195  0.00  0.00    +0.000 C 
ATOM     19  C   UNL     1       2.453   3.337  18.733  0.00  0.00    +0.000 C 
ENDBRANCH   6  13
BRANCH   1  21
ATOM     20  C   UNL     1      -2.039  12.018  20.637  0.00  0.00    +0.000 C 
ATOM     21  C   UNL     1      -1.045  11.622  21.748  0.00  0.00    +0.000 C 
ATOM     22  C   UNL     1      -1.823  11.912  23.018  0.00  0.00    +0.000 C 
ATOM     23  C   UNL     1      -1.665  13.259  23.665  0.00  0.00    +0.000 C 
ATOM     24  C   UNL     1      -2.827  13.025  22.705  0.00  0.00    +0.000 C 
ATOM     25  C   UNL     1      -2.707  13.304  21.214  0.00  0.00    +0.000 C 
BRANCH  20  26
ATOM     26  O   UNL     1      -1.384  12.277  19.405  0.00  0.00    +0.000 OA
ATOM     27  H   UNL     1      -1.226  11.416  18.972  0.00  0.00    +0.000 HD
ENDBRANCH  20  26
BRANCH  24  28
ATOM     28  C   UNL     1      -4.211  13.238  23.262  0.00  0.00    +0.000 C 
ATOM     29 CL   UNL     1      -4.500  12.404  24.794  0.00  0.00    +0.000 Cl
ENDBRANCH  24  28
BRANCH  25  30
ATOM     30  O   UNL     1      -1.938  14.490  21.040  0.00  0.00    +0.000 OA
ATOM     31  H   UNL     1      -2.461  15.118  20.513  0.00  0.00    +0.000 HD
ENDBRANCH  25  30
ENDBRANCH   1  21
TORSDOF 5
ENDMDL
MODEL 7
REMARK VINA RESULT:      -6.7      2.686      8.142
REMARK  Name = 
REMARK  5 active torsions:
REMARK  status: ('A' for Active; 'I' for Inactive)
REMARK    1  A    between atoms: O_1  and  C_2
REMARK    2  A    between atoms: C_3  and  N_4
REMARK    3  A    between atoms: N_9  and  C_10
REMARK    4  A    between atoms: C_24  and  C_25
REMARK    5  A    between atoms: C_27  and  O_28
REMARK                            x       y       z     vdW  Elec       q    Type
REMARK                         _______ _______ _______ _____ _____    ______ ____
ROOT
ATOM      1  N   UNL     1       2.359   7.371  19.013  0.00  0.00    +0.000 N 
ATOM      2  C   UNL     1       2.528   7.929  17.768  0.00  0.00    +0.000 A 
ATOM      3  N   UNL     1       2.104   9.171  17.714  0.00  0.00    +0.000 NA
ATOM      4  C   UNL     1       1.596   9.429  18.965  0.00  0.00    +0.000 A 
ATOM      5  C   UNL     1       0.932  10.556  19.514  0.00  0.00    +0.000 A 
ATOM      6  N   UNL     1       0.700  11.703  18.747  0.00  0.00    +0.000 N 
ATOM      7  N   UNL     1       0.503  10.479  20.790  0.00  0.00    +0.000 NA
ATOM      8  C   UNL     1       0.753   9.345  21.473  0.00  0.00    +0.000 A 
ATOM      9 CL   UNL     1       0.206   9.343  23.095  0.00  0.00    +0.000 Cl
ATOM     10  N   UNL     1       1.383   8.217  21.078  0.00  0.00    +0.000 NA
ATOM     11  C   UNL     1       1.755   8.319  19.793  0.00  0.00    +0.000 A 
ATOM     12  H   UNL     1       1.579  12.134  18.475  0.00  0.00    +0.000 HD
ENDROOT
BRANCH   6  13
ATOM     13  C   UNL     1      -0.365  12.615  19.137  0.00  0.00    +0.000 C 
ATOM     14  C   UNL     1      -0.278  12.912  20.655  0.00  0.00    +0.000 C 
ATOM     15  C   UNL     1       0.079  14.409  20.712  0.00  0.00    +0.000 C 
ATOM     16  C   UNL     1       1.485  14.662  20.136  0.00  0.00    +0.000 C 
ATOM     17  C   UNL     1       1.285  14.485  18.625  0.00  0.00    +0.000 C 
ATOM     18  C   UNL     1      -0.187  14.038  18.532  0.00  0.00    +0.000 C 
ATOM     19  C   UNL     1      -0.814  14.948  19.598  0.00  0.00    +0.000 C 
ENDBRANCH   6  13
BRANCH   1  21
ATOM     20  C   UNL     1       1.793   4.955  19.482  0.00  0.00    +0.000 C 
ATOM     21  C   UNL     1       2.866   6.055  19.357  0.00  0.00    +0.000 C 
ATOM     22  C   UNL     1       3.907   5.415  18.459  0.00  0.00    +0.000 C 
ATOM     23  C   UNL     1       5.053   4.682  19.097  0.00  0.00    +0.000 C 
ATOM     24  C   UNL     1       3.821   3.899  18.655  0.00  0.00    +0.000 C 
ATOM     25  C   UNL     1       2.645   3.653  19.590  0.00  0.00    +0.000 C 
BRANCH  20  26
ATOM     26  O   UNL     1       0.973   5.138  20.625  0.00  0.00    +0.000 OA
ATOM     27  H   UNL     1       1.533   4.999  21.412  0.00  0.00    +0.000 HD
ENDBRANCH  20  26
BRANCH  24  28
ATOM     28  C   UNL     1       4.051   2.797  17.652  0.00  0.00    +0.000 C 
ATOM     29 CL   UNL     1       3.702   1.180  18.274  0.00  0.00    +0.000 Cl
ENDBRANCH  24  28
BRANCH  25  30
ATOM     30  O   UNL     1       3.156   3.395  20.894  0.00  0.00    +0.000 OA
ATOM     31  H   UNL     1       2.443   3.007  21.430  0.00  0.00    +0.000 HD
ENDBRANCH  25  30
ENDBRANCH   1  21
TORSDOF 5
ENDMDL
MODEL 8
REMARK VINA RESULT:      -6.7      3.233      7.841
REMARK  Name = 
REMARK  5 active torsions:
REMARK  status: ('A' for Active; 'I' for Inactive)
REMARK    1  A    between atoms: O_1  and  C_2
REMARK    2  A    between atoms: C_3  and  N_4
REMARK    3  A    between atoms: N_9  and  C_10
REMARK    4  A    between atoms: C_24  and  C_25
REMARK    5  A    between atoms: C_27  and  O_28
REMARK                            x       y       z     vdW  Elec       q    Type
REMARK                         _______ _______ _______ _____ _____    ______ ____
ROOT
ATOM      1  N   UNL     1       2.505   7.083  18.412  0.00  0.00    +0.000 N 
ATOM      2  C   UNL     1       2.901   7.889  17.370  0.00  0.00    +0.000 A 
ATOM      3  N   UNL     1       2.574   9.147  17.558  0.00  0.00    +0.000 NA
ATOM      4  C   UNL     1       1.898   9.165  18.755  0.00  0.00    +0.000 A 
ATOM      5  C   UNL     1       1.235  10.199  19.464  0.00  0.00    +0.000 A 
ATOM      6  N   UNL     1       1.201  11.508  18.968  0.00  0.00    +0.000 N 
ATOM      7  N   UNL     1       0.611   9.880  20.615  0.00  0.00    +0.000 NA
ATOM      8  C   UNL     1       0.677   8.602  21.035  0.00  0.00    +0.000 A 
ATOM      9 CL   UNL     1      -0.112   8.287  22.522  0.00  0.00    +0.000 Cl
ATOM     10  N   UNL     1       1.283   7.534  20.470  0.00  0.00    +0.000 NA
ATOM     11  C   UNL     1       1.854   7.886  19.308  0.00  0.00    +0.000 A 
ATOM     12  H   UNL     1       2.138  11.898  18.927  0.00  0.00    +0.000 HD
ENDROOT
BRANCH   6  13
ATOM     13  C   UNL     1       0.152  12.411  19.419  0.00  0.00    +0.000 C 
ATOM     14  C   UNL     1       0.472  12.925  20.845  0.00  0.00    +0.000 C 
ATOM     15  C   UNL     1       0.720  14.431  20.641  0.00  0.00    +0.000 C 
ATOM     16  C   UNL     1       1.986  14.671  19.795  0.00  0.00    +0.000 C 
ATOM     17  C   UNL     1       1.547  14.270  18.381  0.00  0.00    +0.000 C 
ATOM     18  C   UNL     1       0.118  13.741  18.611  0.00  0.00    +0.000 C 
ATOM     19  C   UNL     1      -0.386  14.759  19.643  0.00  0.00    +0.000 C 
ENDBRANCH   6  13
BRANCH   1  21
ATOM     20  C   UNL     1       3.649   5.282  19.764  0.00  0.00    +0.000 C 
ATOM     21  C   UNL     1       2.864   5.679  18.497  0.00  0.00    +0.000 C 
ATOM     22  C   UNL     1       1.763   4.638  18.439  0.00  0.00    +0.000 C 
ATOM     23  C   UNL     1       1.995   3.391  17.633  0.00  0.00    +0.000 C 
ATOM     24  C   UNL     1       2.280   3.375  19.132  0.00  0.00    +0.000 C 
ATOM     25  C   UNL     1       3.651   3.724  19.694  0.00  0.00    +0.000 C 
BRANCH  20  26
ATOM     26  O   UNL     1       4.967   5.807  19.760  0.00  0.00    +0.000 OA
ATOM     27  H   UNL     1       5.370   5.590  20.622  0.00  0.00    +0.000 HD
ENDBRANCH  20  26
BRANCH  24  28
ATOM     28  C   UNL     1       1.520   2.361  19.948  0.00  0.00    +0.000 C 
ATOM     29 CL   UNL     1       1.481   2.721  21.678  0.00  0.00    +0.000 Cl
ENDBRANCH  24  28
BRANCH  25  30
ATOM     30  O   UNL     1       4.643   3.180  18.829  0.00  0.00    +0.000 OA
ATOM     31  H   UNL     1       4.509   2.218  18.778  0.00  0.00    +0.000 HD
ENDBRANCH  25  30
ENDBRANCH   1  21
TORSDOF 5
ENDMDL
MODEL 9
REMARK VINA RESULT:      -6.3      3.206      4.641
REMARK  Name = 
REMARK  5 active torsions:
REMARK  status: ('A' for Active; 'I' for Inactive)
REMARK    1  A    between atoms: O_1  and  C_2
REMARK    2  A    between atoms: C_3  and  N_4
REMARK    3  A    between atoms: N_9  and  C_10
REMARK    4  A    between atoms: C_24  and  C_25
REMARK    5  A    between atoms: C_27  and  O_28
REMARK                            x       y       z     vdW  Elec       q    Type
REMARK                         _______ _______ _______ _____ _____    ______ ____
ROOT
ATOM      1  N   UNL     1      -0.177  10.531  22.108  0.00  0.00    +0.000 N 
ATOM      2  C   UNL     1      -0.248   9.487  23.000  0.00  0.00    +0.000 A 
ATOM      3  N   UNL     1       0.416   8.430  22.590  0.00  0.00    +0.000 NA
ATOM      4  C   UNL     1       0.911   8.779  21.355  0.00  0.00    +0.000 A 
ATOM      5  C   UNL     1       1.642   8.054  20.379  0.00  0.00    +0.000 A 
ATOM      6  N   UNL     1       2.011   6.721  20.595  0.00  0.00    +0.000 N 
ATOM      7  N   UNL     1       1.945   8.677  19.223  0.00  0.00    +0.000 NA
ATOM      8  C   UNL     1       1.557   9.958  19.075  0.00  0.00    +0.000 A 
ATOM      9 CL   UNL     1       2.011  10.686  17.594  0.00  0.00    +0.000 Cl
ATOM     10  N   UNL     1       0.877  10.761  19.924  0.00  0.00    +0.000 NA
ATOM     11  C   UNL     1       0.559  10.090  21.042  0.00  0.00    +0.000 A 
ATOM     12  H   UNL     1       2.652   6.652  21.380  0.00  0.00    +0.000 HD
ENDROOT
BRANCH   6  13
ATOM     13  C   UNL     1       2.308   5.872  19.450  0.00  0.00    +0.000 C 
ATOM     14  C   UNL     1       3.687   5.192  19.638  0.00  0.00    +0.000 C 
ATOM     15  C   UNL     1       3.339   3.698  19.775  0.00  0.00    +0.000 C 
ATOM     16  C   UNL     1       2.542   3.435  21.067  0.00  0.00    +0.000 C 
ATOM     17  C   UNL     1       1.156   4.012  20.751  0.00  0.00    +0.000 C 
ATOM     18  C   UNL     1       1.363   4.639  19.358  0.00  0.00    +0.000 C 
ATOM     19  C   UNL     1       2.254   3.569  18.710  0.00  0.00    +0.000 C 
ENDBRANCH   6  13
BRANCH   1  21
ATOM     20  C   UNL     1      -0.232  12.971  21.461  0.00  0.00    +0.000 C 
ATOM     21  C   UNL     1      -0.720  11.846  22.395  0.00  0.00    +0.000 C 
ATOM     22  C   UNL     1      -2.226  12.032  22.392  0.00  0.00    +0.000 C 
ATOM     23  C   UNL     1      -2.846  12.884  23.463  0.00  0.00    +0.000 C 
ATOM     24  C   UNL     1      -2.511  13.510  22.112  0.00  0.00    +0.000 C 
ATOM     25  C   UNL     1      -1.164  14.163  21.840  0.00  0.00    +0.000 C 
BRANCH  20  26
ATOM     26  O   UNL     1       1.134  13.288  21.678  0.00  0.00    +0.000 OA
ATOM     27  H   UNL     1       1.386  13.963  21.020  0.00  0.00    +0.000 HD
ENDBRANCH  20  26
BRANCH  24  28
ATOM     28  C   UNL     1      -3.660  14.128  21.357  0.00  0.00    +0.000 C 
ATOM     29 CL   UNL     1      -5.251  13.615  21.932  0.00  0.00    +0.000 Cl
ENDBRANCH  24  28
BRANCH  25  30
ATOM     30  O   UNL     1      -0.763  14.869  23.010  0.00  0.00    +0.000 OA
ATOM     31  H   UNL     1      -1.501  15.438  23.291  0.00  0.00    +0.000 HD
ENDBRANCH  25  30
ENDBRANCH   1  21
TORSDOF 5
ENDMDL
