MODEL 1
REMARK VINA RESULT:      -7.5      0.000      0.000
REMARK  Name = 
REMARK  17 active torsions:
REMARK  status: ('A' for Active; 'I' for Inactive)
REMARK    1  A    between atoms: C_1  and  O_2
REMARK    2  A    between atoms: O_2  and  C_3
REMARK    3  A    between atoms: C_5  and  C_6
REMARK    4  A    between atoms: C_6  and  C_7
REMARK    5  A    between atoms: C_6  and  N_19
REMARK    6  A    between atoms: C_9  and  O_10
REMARK    7  A    between atoms: O_10  and  C_11
REMARK    8  A    between atoms: C_12  and  O_13
REMARK    9  A    between atoms: O_13  and  C_14
REMARK   10  A    between atoms: C_15  and  O_16
REMARK   11  A    between atoms: O_16  and  C_17
REMARK   12  A    between atoms: C_24  and  C_25
REMARK   13  A    between atoms: C_25  and  O_27
REMARK   14  A    between atoms: C_29  and  O_30
REMARK   15  A    between atoms: O_30  and  C_31
REMARK   16  A    between atoms: C_32  and  O_33
REMARK   17  A    between atoms: O_33  and  C_34
REMARK                            x       y       z     vdW  Elec       q    Type
REMARK                         _______ _______ _______ _____ _____    ______ ____
ROOT
ATOM      1  C   UNL     1       3.538   5.138  19.124  0.00  0.00    +0.000 C 
ENDROOT
BRANCH   1   4
ATOM      2  C   UNL     1       6.803   5.922  17.325  0.00  0.00    +0.000 A 
ATOM      3  C   UNL     1       5.696   6.032  18.180  0.00  0.00    +0.000 A 
ATOM      4  C   UNL     1       4.581   5.214  18.021  0.00  0.00    +0.000 A 
ATOM      5  C   UNL     1       4.518   4.407  16.878  0.00  0.00    +0.000 A 
ATOM      6  C   UNL     1       5.590   4.311  15.978  0.00  0.00    +0.000 A 
ATOM      7  C   UNL     1       6.762   5.061  16.204  0.00  0.00    +0.000 A 
BRANCH   2   9
ATOM      8  C   UNL     1       7.746   8.097  17.484  0.00  0.00    +0.000 C 
ATOM      9  O   UNL     1       7.920   6.683  17.568  0.00  0.00    +0.000 OA
ENDBRANCH   2   9
BRANCH   6  10
ATOM     10  O   UNL     1       5.313   3.406  14.982  0.00  0.00    +0.000 OA
ATOM     11  C   UNL     1       5.002   3.870  13.681  0.00  0.00    +0.000 C 
ENDBRANCH   6  10
BRANCH   7  12
ATOM     12  O   UNL     1       7.766   4.903  15.285  0.00  0.00    +0.000 OA
ATOM     13  C   UNL     1       7.664   5.524  14.014  0.00  0.00    +0.000 C 
ENDBRANCH   7  12
ENDBRANCH   1   4
BRANCH   1  14
ATOM     14  C   UNL     1       2.864   6.489  19.336  0.00  0.00    +0.000 A 
ATOM     15  C   UNL     1       2.089   6.750  20.466  0.00  0.00    +0.000 A 
ATOM     16  C   UNL     1       1.362   7.938  20.577  0.00  0.00    +0.000 A 
ATOM     17  C   UNL     1       1.358   8.876  19.521  0.00  0.00    +0.000 A 
ATOM     18  C   UNL     1       2.138   8.633  18.376  0.00  0.00    +0.000 A 
ATOM     19  C   UNL     1       2.897   7.451  18.308  0.00  0.00    +0.000 A 
BRANCH  16  20
ATOM     20  O   UNL     1       0.592   8.228  21.680  0.00  0.00    +0.000 OA
ATOM     21  C   UNL     1       1.150   9.161  22.599  0.00  0.00    +0.000 C 
ENDBRANCH  16  20
BRANCH  17  22
ATOM     22  O   UNL     1       0.492   9.931  19.700  0.00  0.00    +0.000 OA
ATOM     23  C   UNL     1      -0.728   9.926  18.976  0.00  0.00    +0.000 C 
ENDBRANCH  17  22
BRANCH  18  24
ATOM     24  O   UNL     1       2.079   9.532  17.343  0.00  0.00    +0.000 OA
ATOM     25  C   UNL     1       2.469  10.878  17.580  0.00  0.00    +0.000 C 
ENDBRANCH  18  24
ENDBRANCH   1  14
BRANCH   1  26
ATOM     26  N   UNL     1       2.603   3.972  18.997  0.00  0.00    +0.000 N 
ATOM     27  C   UNL     1       1.443   3.913  18.226  0.00  0.00    +0.000 C 
ATOM     28  O   UNL     1       1.097   4.617  17.294  0.00  0.00    +0.000 OA
ATOM     29  C   UNL     1       0.591   2.792  18.754  0.00  0.00    +0.000 C 
ATOM     30  C   UNL     1       1.612   1.858  19.361  0.00  0.00    +0.000 C 
ATOM     31  C   UNL     1       2.751   2.773  19.823  0.00  0.00    +0.000 C 
BRANCH  31  32
ATOM     32  C   UNL     1       4.060   2.013  19.592  0.00  0.00    +0.000 C 
ATOM     33  O   UNL     1       4.983   1.983  20.390  0.00  0.00    +0.000 OA
BRANCH  32  34
ATOM     34  O   UNL     1       4.050   1.252  18.468  0.00  0.00    +0.000 OA
ATOM     35  H   UNL     1       3.415   0.508  18.542  0.00  0.00    +0.000 HD
ENDBRANCH  32  34
ENDBRANCH  31  32
ENDBRANCH   1  26
TORSDOF 11
ENDMDL
MODEL 2
REMARK VINA RESULT:      -7.5      0.412      2.000
REMARK  Name = 
REMARK  17 active torsions:
REMARK  status: ('A' for Active; 'I' for Inactive)
REMARK    1  A    between atoms: C_1  and  O_2
REMARK    2  A    between atoms: O_2  and  C_3
REMARK    3  A    between atoms: C_5  and  C_6
REMARK    4  A    between atoms: C_6  and  C_7
REMARK    5  A    between atoms: C_6  and  N_19
REMARK    6  A    between atoms: C_9  and  O_10
REMARK    7  A    between atoms: O_10  and  C_11
REMARK    8  A    between atoms: C_12  and  O_13
REMARK    9  A    between atoms: O_13  and  C_14
REMARK   10  A    between atoms: C_15  and  O_16
REMARK   11  A    between atoms: O_16  and  C_17
REMARK   12  A    between atoms: C_24  and  C_25
REMARK   13  A    between atoms: C_25  and  O_27
REMARK   14  A    between atoms: C_29  and  O_30
REMARK   15  A    between atoms: O_30  and  C_31
REMARK   16  A    between atoms: C_32  and  O_33
REMARK   17  A    between atoms: O_33  and  C_34
REMARK                            x       y       z     vdW  Elec       q    Type
REMARK                         _______ _______ _______ _____ _____    ______ ____
ROOT
ATOM      1  C   UNL     1       3.372   5.158  19.117  0.00  0.00    +0.000 C 
ENDROOT
BRANCH   1   4
ATOM      2  C   UNL     1       6.705   5.995  17.474  0.00  0.00    +0.000 A 
ATOM      3  C   UNL     1       5.560   6.085  18.279  0.00  0.00    +0.000 A 
ATOM      4  C   UNL     1       4.463   5.255  18.062  0.00  0.00    +0.000 A 
ATOM      5  C   UNL     1       4.460   4.459  16.910  0.00  0.00    +0.000 A 
ATOM      6  C   UNL     1       5.572   4.383  16.059  0.00  0.00    +0.000 A 
ATOM      7  C   UNL     1       6.724   5.144  16.344  0.00  0.00    +0.000 A 
BRANCH   2   9
ATOM      8  C   UNL     1       7.660   8.169  17.554  0.00  0.00    +0.000 C 
ATOM      9  O   UNL     1       7.801   6.766  17.773  0.00  0.00    +0.000 OA
ENDBRANCH   2   9
BRANCH   6  10
ATOM     10  O   UNL     1       5.350   3.485  15.043  0.00  0.00    +0.000 OA
ATOM     11  C   UNL     1       5.052   3.958  13.742  0.00  0.00    +0.000 C 
ENDBRANCH   6  10
BRANCH   7  12
ATOM     12  O   UNL     1       7.770   5.006  15.470  0.00  0.00    +0.000 OA
ATOM     13  C   UNL     1       7.683   5.567  14.170  0.00  0.00    +0.000 C 
ENDBRANCH   7  12
ENDBRANCH   1   4
BRANCH   1  14
ATOM     14  C   UNL     1       2.596   6.465  19.227  0.00  0.00    +0.000 A 
ATOM     15  C   UNL     1       2.579   7.394  18.187  0.00  0.00    +0.000 A 
ATOM     16  C   UNL     1       1.985   8.648  18.356  0.00  0.00    +0.000 A 
ATOM     17  C   UNL     1       1.434   9.016  19.603  0.00  0.00    +0.000 A 
ATOM     18  C   UNL     1       1.436   8.091  20.662  0.00  0.00    +0.000 A 
ATOM     19  C   UNL     1       1.999   6.819  20.453  0.00  0.00    +0.000 A 
BRANCH  16  20
ATOM     20  O   UNL     1       1.946   9.585  17.349  0.00  0.00    +0.000 OA
ATOM     21  C   UNL     1       2.741  10.749  17.553  0.00  0.00    +0.000 C 
ENDBRANCH  16  20
BRANCH  17  22
ATOM     22  O   UNL     1       1.009  10.324  19.674  0.00  0.00    +0.000 OA
ATOM     23  C   UNL     1      -0.349  10.604  19.372  0.00  0.00    +0.000 C 
ENDBRANCH  17  22
BRANCH  18  24
ATOM     24  O   UNL     1       0.942   8.487  21.878  0.00  0.00    +0.000 OA
ATOM     25  C   UNL     1      -0.464   8.469  22.087  0.00  0.00    +0.000 C 
ENDBRANCH  18  24
ENDBRANCH   1  14
BRANCH   1  26
ATOM     26  N   UNL     1       2.528   3.923  19.005  0.00  0.00    +0.000 N 
ATOM     27  C   UNL     1       1.383   3.762  18.227  0.00  0.00    +0.000 C 
ATOM     28  O   UNL     1       0.993   4.420  17.279  0.00  0.00    +0.000 OA
ATOM     29  C   UNL     1       0.613   2.590  18.771  0.00  0.00    +0.000 C 
ATOM     30  C   UNL     1       1.696   1.747  19.403  0.00  0.00    +0.000 C 
ATOM     31  C   UNL     1       2.758   2.753  19.856  0.00  0.00    +0.000 C 
BRANCH  31  32
ATOM     32  C   UNL     1       4.123   2.090  19.649  0.00  0.00    +0.000 C 
ATOM     33  O   UNL     1       5.067   2.215  20.413  0.00  0.00    +0.000 OA
BRANCH  32  34
ATOM     34  O   UNL     1       4.150   1.229  18.601  0.00  0.00    +0.000 OA
ATOM     35  H   UNL     1       5.056   0.893  18.433  0.00  0.00    +0.000 HD
ENDBRANCH  32  34
ENDBRANCH  31  32
ENDBRANCH   1  26
TORSDOF 11
ENDMDL
MODEL 3
REMARK VINA RESULT:      -7.0      1.067      6.356
REMARK  Name = 
REMARK  17 active torsions:
REMARK  status: ('A' for Active; 'I' for Inactive)
REMARK    1  A    between atoms: C_1  and  O_2
REMARK    2  A    between atoms: O_2  and  C_3
REMARK    3  A    between atoms: C_5  and  C_6
REMARK    4  A    between atoms: C_6  and  C_7
REMARK    5  A    between atoms: C_6  and  N_19
REMARK    6  A    between atoms: C_9  and  O_10
REMARK    7  A    between atoms: O_10  and  C_11
REMARK    8  A    between atoms: C_12  and  O_13
REMARK    9  A    between atoms: O_13  and  C_14
REMARK   10  A    between atoms: C_15  and  O_16
REMARK   11  A    between atoms: O_16  and  C_17
REMARK   12  A    between atoms: C_24  and  C_25
REMARK   13  A    between atoms: C_25  and  O_27
REMARK   14  A    between atoms: C_29  and  O_30
REMARK   15  A    between atoms: O_30  and  C_31
REMARK   16  A    between atoms: C_32  and  O_33
REMARK   17  A    between atoms: O_33  and  C_34
REMARK                            x       y       z     vdW  Elec       q    Type
REMARK                         _______ _______ _______ _____ _____    ______ ____
ROOT
ATOM      1  C   UNL     1       2.819   5.485  17.931  0.00  0.00    +0.000 C 
ENDROOT
BRANCH   1   4
ATOM      2  C   UNL     1       2.010   9.202  18.135  0.00  0.00    +0.000 A 
ATOM      3  C   UNL     1       2.550   7.980  17.706  0.00  0.00    +0.000 A 
ATOM      4  C   UNL     1       2.510   6.852  18.522  0.00  0.00    +0.000 A 
ATOM      5  C   UNL     1       2.083   7.014  19.846  0.00  0.00    +0.000 A 
ATOM      6  C   UNL     1       1.582   8.235  20.319  0.00  0.00    +0.000 A 
ATOM      7  C   UNL     1       1.523   9.349  19.455  0.00  0.00    +0.000 A 
BRANCH   2   9
ATOM      8  C   UNL     1       2.634  11.456  17.722  0.00  0.00    +0.000 C 
ATOM      9  O   UNL     1       1.987  10.268  17.270  0.00  0.00    +0.000 OA
ENDBRANCH   2   9
BRANCH   6  10
ATOM     10  O   UNL     1       1.165   8.122  21.622  0.00  0.00    +0.000 OA
ATOM     11  C   UNL     1      -0.219   8.140  21.920  0.00  0.00    +0.000 C 
ENDBRANCH   6  10
BRANCH   7  12
ATOM     12  O   UNL     1       1.011  10.501  19.990  0.00  0.00    +0.000 OA
ATOM     13  C   UNL     1      -0.344  10.847  19.756  0.00  0.00    +0.000 C 
ENDBRANCH   7  12
ENDBRANCH   1   4
BRANCH   1  14
ATOM     14  C   UNL     1       4.203   5.462  17.293  0.00  0.00    +0.000 A 
ATOM     15  C   UNL     1       5.099   6.519  17.454  0.00  0.00    +0.000 A 
ATOM     16  C   UNL     1       6.304   6.549  16.747  0.00  0.00    +0.000 A 
ATOM     17  C   UNL     1       6.614   5.533  15.816  0.00  0.00    +0.000 A 
ATOM     18  C   UNL     1       5.725   4.457  15.644  0.00  0.00    +0.000 A 
ATOM     19  C   UNL     1       4.540   4.425  16.401  0.00  0.00    +0.000 A 
BRANCH  16  20
ATOM     20  O   UNL     1       7.212   7.574  16.887  0.00  0.00    +0.000 OA
ATOM     21  C   UNL     1       7.956   7.584  18.100  0.00  0.00    +0.000 C 
ENDBRANCH  16  20
BRANCH  17  22
ATOM     22  O   UNL     1       7.761   5.758  15.089  0.00  0.00    +0.000 OA
ATOM     23  C   UNL     1       7.703   5.596  13.680  0.00  0.00    +0.000 C 
ENDBRANCH  17  22
BRANCH  18  24
ATOM     24  O   UNL     1       6.022   3.509  14.700  0.00  0.00    +0.000 OA
ATOM     25  C   UNL     1       5.344   3.548  13.450  0.00  0.00    +0.000 C 
ENDBRANCH  18  24
ENDBRANCH   1  14
BRANCH   1  26
ATOM     26  N   UNL     1       2.525   4.343  18.859  0.00  0.00    +0.000 N 
ATOM     27  C   UNL     1       1.418   3.497  18.817  0.00  0.00    +0.000 C 
ATOM     28  O   UNL     1       0.640   3.286  17.905  0.00  0.00    +0.000 OA
ATOM     29  C   UNL     1       1.283   2.843  20.164  0.00  0.00    +0.000 C 
ATOM     30  C   UNL     1       2.703   2.846  20.679  0.00  0.00    +0.000 C 
ATOM     31  C   UNL     1       3.345   4.084  20.044  0.00  0.00    +0.000 C 
BRANCH  31  32
ATOM     32  C   UNL     1       4.800   3.726  19.731  0.00  0.00    +0.000 C 
ATOM     33  O   UNL     1       5.745   4.475  19.924  0.00  0.00    +0.000 OA
BRANCH  32  34
ATOM     34  O   UNL     1       4.966   2.436  19.343  0.00  0.00    +0.000 OA
ATOM     35  H   UNL     1       5.293   2.376  18.421  0.00  0.00    +0.000 HD
ENDBRANCH  32  34
ENDBRANCH  31  32
ENDBRANCH   1  26
TORSDOF 11
ENDMDL
MODEL 4
REMARK VINA RESULT:      -6.9      0.803      2.916
REMARK  Name = 
REMARK  17 active torsions:
REMARK  status: ('A' for Active; 'I' for Inactive)
REMARK    1  A    between atoms: C_1  and  O_2
REMARK    2  A    between atoms: O_2  and  C_3
REMARK    3  A    between atoms: C_5  and  C_6
REMARK    4  A    between atoms: C_6  and  C_7
REMARK    5  A    between atoms: C_6  and  N_19
REMARK    6  A    between atoms: C_9  and  O_10
REMARK    7  A    between atoms: O_10  and  C_11
REMARK    8  A    between atoms: C_12  and  O_13
REMARK    9  A    between atoms: O_13  and  C_14
REMARK   10  A    between atoms: C_15  and  O_16
REMARK   11  A    between atoms: O_16  and  C_17
REMARK   12  A    between atoms: C_24  and  C_25
REMARK   13  A    between atoms: C_25  and  O_27
REMARK   14  A    between atoms: C_29  and  O_30
REMARK   15  A    between atoms: O_30  and  C_31
REMARK   16  A    between atoms: C_32  and  O_33
REMARK   17  A    between atoms: O_33  and  C_34
REMARK                            x       y       z     vdW  Elec       q    Type
REMARK                         _______ _______ _______ _____ _____    ______ ____
ROOT
ATOM      1  C   UNL     1       3.316   5.109  19.317  0.00  0.00    +0.000 C 
ENDROOT
BRANCH   1   4
ATOM      2  C   UNL     1       5.330   5.421  16.098  0.00  0.00    +0.000 A 
ATOM      3  C   UNL     1       4.329   5.055  17.010  0.00  0.00    +0.000 A 
ATOM      4  C   UNL     1       4.509   5.224  18.380  0.00  0.00    +0.000 A 
ATOM      5  C   UNL     1       5.780   5.597  18.834  0.00  0.00    +0.000 A 
ATOM      6  C   UNL     1       6.817   5.924  17.947  0.00  0.00    +0.000 A 
ATOM      7  C   UNL     1       6.595   5.856  16.557  0.00  0.00    +0.000 A 
BRANCH   2   9
ATOM      8  C   UNL     1       5.193   4.018  14.186  0.00  0.00    +0.000 C 
ATOM      9  O   UNL     1       5.082   5.322  14.751  0.00  0.00    +0.000 OA
ENDBRANCH   2   9
BRANCH   6  10
ATOM     10  O   UNL     1       7.939   6.324  18.632  0.00  0.00    +0.000 OA
ATOM     11  C   UNL     1       8.289   5.680  19.842  0.00  0.00    +0.000 C 
ENDBRANCH   6  10
BRANCH   7  12
ATOM     12  O   UNL     1       7.654   6.201  15.759  0.00  0.00    +0.000 OA
ATOM     13  C   UNL     1       8.006   5.379  14.658  0.00  0.00    +0.000 C 
ENDBRANCH   7  12
ENDBRANCH   1   4
BRANCH   1  14
ATOM     14  C   UNL     1       2.513   6.405  19.344  0.00  0.00    +0.000 A 
ATOM     15  C   UNL     1       2.586   7.331  18.304  0.00  0.00    +0.000 A 
ATOM     16  C   UNL     1       1.958   8.576  18.410  0.00  0.00    +0.000 A 
ATOM     17  C   UNL     1       1.281   8.938  19.595  0.00  0.00    +0.000 A 
ATOM     18  C   UNL     1       1.192   8.014  20.652  0.00  0.00    +0.000 A 
ATOM     19  C   UNL     1       1.792   6.752  20.504  0.00  0.00    +0.000 A 
BRANCH  16  20
ATOM     20  O   UNL     1       2.006   9.511  17.401  0.00  0.00    +0.000 OA
ATOM     21  C   UNL     1       2.684  10.724  17.709  0.00  0.00    +0.000 C 
ENDBRANCH  16  20
BRANCH  17  22
ATOM     22  O   UNL     1       0.831  10.239  19.619  0.00  0.00    +0.000 OA
ATOM     23  C   UNL     1      -0.564  10.468  19.496  0.00  0.00    +0.000 C 
ENDBRANCH  17  22
BRANCH  18  24
ATOM     24  O   UNL     1       0.573   8.405  21.811  0.00  0.00    +0.000 OA
ATOM     25  C   UNL     1       1.288   9.221  22.730  0.00  0.00    +0.000 C 
ENDBRANCH  18  24
ENDBRANCH   1  14
BRANCH   1  26
ATOM     26  N   UNL     1       2.507   3.862  19.119  0.00  0.00    +0.000 N 
ATOM     27  C   UNL     1       1.394   3.711  18.293  0.00  0.00    +0.000 C 
ATOM     28  O   UNL     1       1.021   4.403  17.363  0.00  0.00    +0.000 OA
ATOM     29  C   UNL     1       0.635   2.498  18.756  0.00  0.00    +0.000 C 
ATOM     30  C   UNL     1       1.715   1.651  19.387  0.00  0.00    +0.000 C 
ATOM     31  C   UNL     1       2.737   2.660  19.923  0.00  0.00    +0.000 C 
BRANCH  31  32
ATOM     32  C   UNL     1       4.123   2.038  19.735  0.00  0.00    +0.000 C 
ATOM     33  O   UNL     1       4.983   2.011  20.601  0.00  0.00    +0.000 OA
BRANCH  32  34
ATOM     34  O   UNL     1       4.267   1.389  18.551  0.00  0.00    +0.000 OA
ATOM     35  H   UNL     1       4.888   0.634  18.627  0.00  0.00    +0.000 HD
ENDBRANCH  32  34
ENDBRANCH  31  32
ENDBRANCH   1  26
TORSDOF 11
ENDMDL
MODEL 5
REMARK VINA RESULT:      -6.7      0.652      2.200
REMARK  Name = 
REMARK  17 active torsions:
REMARK  status: ('A' for Active; 'I' for Inactive)
REMARK    1  A    between atoms: C_1  and  O_2
REMARK    2  A    between atoms: O_2  and  C_3
REMARK    3  A    between atoms: C_5  and  C_6
REMARK    4  A    between atoms: C_6  and  C_7
REMARK    5  A    between atoms: C_6  and  N_19
REMARK    6  A    between atoms: C_9  and  O_10
REMARK    7  A    between atoms: O_10  and  C_11
REMARK    8  A    between atoms: C_12  and  O_13
REMARK    9  A    between atoms: O_13  and  C_14
REMARK   10  A    between atoms: C_15  and  O_16
REMARK   11  A    between atoms: O_16  and  C_17
REMARK   12  A    between atoms: C_24  and  C_25
REMARK   13  A    between atoms: C_25  and  O_27
REMARK   14  A    between atoms: C_29  and  O_30
REMARK   15  A    between atoms: O_30  and  C_31
REMARK   16  A    between atoms: C_32  and  O_33
REMARK   17  A    between atoms: O_33  and  C_34
REMARK                            x       y       z     vdW  Elec       q    Type
REMARK                         _______ _______ _______ _____ _____    ______ ____
ROOT
ATOM      1  C   UNL     1       3.500   5.159  19.381  0.00  0.00    +0.000 C 
ENDROOT
BRANCH   1   4
ATOM      2  C   UNL     1       5.417   5.193  16.089  0.00  0.00    +0.000 A 
ATOM      3  C   UNL     1       4.466   4.877  17.070  0.00  0.00    +0.000 A 
ATOM      4  C   UNL     1       4.661   5.238  18.401  0.00  0.00    +0.000 A 
ATOM      5  C   UNL     1       5.909   5.761  18.763  0.00  0.00    +0.000 A 
ATOM      6  C   UNL     1       6.898   6.045  17.811  0.00  0.00    +0.000 A 
ATOM      7  C   UNL     1       6.654   5.778  16.448  0.00  0.00    +0.000 A 
BRANCH   2   9
ATOM      8  C   UNL     1       5.276   3.530  14.398  0.00  0.00    +0.000 C 
ATOM      9  O   UNL     1       5.149   4.900  14.774  0.00  0.00    +0.000 OA
ENDBRANCH   2   9
BRANCH   6  10
ATOM     10  O   UNL     1       7.999   6.614  18.403  0.00  0.00    +0.000 OA
ATOM     11  C   UNL     1       8.216   8.008  18.285  0.00  0.00    +0.000 C 
ENDBRANCH   6  10
BRANCH   7  12
ATOM     12  O   UNL     1       7.666   6.093  15.580  0.00  0.00    +0.000 OA
ATOM     13  C   UNL     1       7.818   5.358  14.377  0.00  0.00    +0.000 C 
ENDBRANCH   7  12
ENDBRANCH   1   4
BRANCH   1  14
ATOM     14  C   UNL     1       2.789   6.502  19.499  0.00  0.00    +0.000 A 
ATOM     15  C   UNL     1       1.948   6.791  20.573  0.00  0.00    +0.000 A 
ATOM     16  C   UNL     1       1.192   7.966  20.594  0.00  0.00    +0.000 A 
ATOM     17  C   UNL     1       1.228   8.861  19.502  0.00  0.00    +0.000 A 
ATOM     18  C   UNL     1       2.076   8.589  18.412  0.00  0.00    +0.000 A 
ATOM     19  C   UNL     1       2.861   7.423  18.435  0.00  0.00    +0.000 A 
BRANCH  16  20
ATOM     20  O   UNL     1       0.356   8.284  21.640  0.00  0.00    +0.000 OA
ATOM     21  C   UNL     1       0.947   9.015  22.708  0.00  0.00    +0.000 C 
ENDBRANCH  16  20
BRANCH  17  22
ATOM     22  O   UNL     1       0.334   9.903  19.589  0.00  0.00    +0.000 OA
ATOM     23  C   UNL     1       0.794  11.138  20.115  0.00  0.00    +0.000 C 
ENDBRANCH  17  22
BRANCH  18  24
ATOM     24  O   UNL     1       2.058   9.445  17.341  0.00  0.00    +0.000 OA
ATOM     25  C   UNL     1       2.602  10.749  17.494  0.00  0.00    +0.000 C 
ENDBRANCH  18  24
ENDBRANCH   1  14
BRANCH   1  26
ATOM     26  N   UNL     1       2.601   3.979  19.161  0.00  0.00    +0.000 N 
ATOM     27  C   UNL     1       1.473   3.929  18.342  0.00  0.00    +0.000 C 
ATOM     28  O   UNL     1       1.146   4.668  17.432  0.00  0.00    +0.000 OA
ATOM     29  C   UNL     1       0.631   2.764  18.784  0.00  0.00    +0.000 C 
ATOM     30  C   UNL     1       1.651   1.826  19.386  0.00  0.00    +0.000 C 
ATOM     31  C   UNL     1       2.747   2.744  19.936  0.00  0.00    +0.000 C 
BRANCH  31  32
ATOM     32  C   UNL     1       4.083   2.028  19.721  0.00  0.00    +0.000 C 
ATOM     33  O   UNL     1       4.983   1.997  20.546  0.00  0.00    +0.000 OA
BRANCH  32  34
ATOM     34  O   UNL     1       4.128   1.304  18.574  0.00  0.00    +0.000 OA
ATOM     35  H   UNL     1       3.351   0.711  18.491  0.00  0.00    +0.000 HD
ENDBRANCH  32  34
ENDBRANCH  31  32
ENDBRANCH   1  26
TORSDOF 11
ENDMDL
MODEL 6
REMARK VINA RESULT:      -6.5      1.197      1.275
REMARK  Name = 
REMARK  17 active torsions:
REMARK  status: ('A' for Active; 'I' for Inactive)
REMARK    1  A    between atoms: C_1  and  O_2
REMARK    2  A    between atoms: O_2  and  C_3
REMARK    3  A    between atoms: C_5  and  C_6
REMARK    4  A    between atoms: C_6  and  C_7
REMARK    5  A    between atoms: C_6  and  N_19
REMARK    6  A    between atoms: C_9  and  O_10
REMARK    7  A    between atoms: O_10  and  C_11
REMARK    8  A    between atoms: C_12  and  O_13
REMARK    9  A    between atoms: O_13  and  C_14
REMARK   10  A    between atoms: C_15  and  O_16
REMARK   11  A    between atoms: O_16  and  C_17
REMARK   12  A    between atoms: C_24  and  C_25
REMARK   13  A    between atoms: C_25  and  O_27
REMARK   14  A    between atoms: C_29  and  O_30
REMARK   15  A    between atoms: O_30  and  C_31
REMARK   16  A    between atoms: C_32  and  O_33
REMARK   17  A    between atoms: O_33  and  C_34
REMARK                            x       y       z     vdW  Elec       q    Type
REMARK                         _______ _______ _______ _____ _____    ______ ____
ROOT
ATOM      1  C   UNL     1       3.310   5.441  19.668  0.00  0.00    +0.000 C 
ENDROOT
BRANCH   1   4
ATOM      2  C   UNL     1       6.864   5.129  18.334  0.00  0.00    +0.000 A 
ATOM      3  C   UNL     1       5.784   5.319  19.209  0.00  0.00    +0.000 A 
ATOM      4  C   UNL     1       4.498   5.541  18.724  0.00  0.00    +0.000 A 
ATOM      5  C   UNL     1       4.342   5.750  17.348  0.00  0.00    +0.000 A 
ATOM      6  C   UNL     1       5.413   5.614  16.452  0.00  0.00    +0.000 A 
ATOM      7  C   UNL     1       6.694   5.281  16.938  0.00  0.00    +0.000 A 
BRANCH   2   9
ATOM      8  C   UNL     1       8.418   5.410  20.109  0.00  0.00    +0.000 C 
ATOM      9  O   UNL     1       8.101   4.824  18.848  0.00  0.00    +0.000 OA
ENDBRANCH   2   9
BRANCH   6  10
ATOM     10  O   UNL     1       4.994   5.799  15.157  0.00  0.00    +0.000 OA
ATOM     11  C   UNL     1       4.843   7.112  14.649  0.00  0.00    +0.000 C 
ENDBRANCH   6  10
BRANCH   7  12
ATOM     12  O   UNL     1       7.683   5.156  15.998  0.00  0.00    +0.000 OA
ATOM     13  C   UNL     1       7.394   4.561  14.744  0.00  0.00    +0.000 C 
ENDBRANCH   7  12
ENDBRANCH   1   4
BRANCH   1  14
ATOM     14  C   UNL     1       2.558   6.765  19.746  0.00  0.00    +0.000 A 
ATOM     15  C   UNL     1       1.644   7.028  20.767  0.00  0.00    +0.000 A 
ATOM     16  C   UNL     1       0.858   8.183  20.744  0.00  0.00    +0.000 A 
ATOM     17  C   UNL     1       0.938   9.082  19.658  0.00  0.00    +0.000 A 
ATOM     18  C   UNL     1       1.858   8.838  18.622  0.00  0.00    +0.000 A 
ATOM     19  C   UNL     1       2.670   7.692  18.691  0.00  0.00    +0.000 A 
BRANCH  16  20
ATOM     20  O   UNL     1      -0.049   8.474  21.738  0.00  0.00    +0.000 OA
ATOM     21  C   UNL     1       0.440   9.271  22.811  0.00  0.00    +0.000 C 
ENDBRANCH  16  20
BRANCH  17  22
ATOM     22  O   UNL     1       0.013  10.101  19.693  0.00  0.00    +0.000 OA
ATOM     23  C   UNL     1      -1.096  10.029  18.810  0.00  0.00    +0.000 C 
ENDBRANCH  17  22
BRANCH  18  24
ATOM     24  O   UNL     1       1.883   9.696  17.554  0.00  0.00    +0.000 OA
ATOM     25  C   UNL     1       2.417  11.001  17.734  0.00  0.00    +0.000 C 
ENDBRANCH  18  24
ENDBRANCH   1  14
BRANCH   1  26
ATOM     26  N   UNL     1       2.451   4.233  19.437  0.00  0.00    +0.000 N 
ATOM     27  C   UNL     1       1.423   4.106  18.503  0.00  0.00    +0.000 C 
ATOM     28  O   UNL     1       1.194   4.771  17.510  0.00  0.00    +0.000 OA
ATOM     29  C   UNL     1       0.547   2.961  18.932  0.00  0.00    +0.000 C 
ATOM     30  C   UNL     1       1.501   2.087  19.712  0.00  0.00    +0.000 C 
ATOM     31  C   UNL     1       2.520   3.061  20.311  0.00  0.00    +0.000 C 
BRANCH  31  32
ATOM     32  C   UNL     1       3.879   2.354  20.300  0.00  0.00    +0.000 C 
ATOM     33  O   UNL     1       4.466   1.985  21.305  0.00  0.00    +0.000 OA
BRANCH  32  34
ATOM     34  O   UNL     1       4.315   2.044  19.053  0.00  0.00    +0.000 OA
ATOM     35  H   UNL     1       3.567   1.862  18.445  0.00  0.00    +0.000 HD
ENDBRANCH  32  34
ENDBRANCH  31  32
ENDBRANCH   1  26
TORSDOF 11
ENDMDL
MODEL 7
REMARK VINA RESULT:      -6.5      5.829      9.413
REMARK  Name = 
REMARK  17 active torsions:
REMARK  status: ('A' for Active; 'I' for Inactive)
REMARK    1  A    between atoms: C_1  and  O_2
REMARK    2  A    between atoms: O_2  and  C_3
REMARK    3  A    between atoms: C_5  and  C_6
REMARK    4  A    between atoms: C_6  and  C_7
REMARK    5  A    between atoms: C_6  and  N_19
REMARK    6  A    between atoms: C_9  and  O_10
REMARK    7  A    between atoms: O_10  and  C_11
REMARK    8  A    between atoms: C_12  and  O_13
REMARK    9  A    between atoms: O_13  and  C_14
REMARK   10  A    between atoms: C_15  and  O_16
REMARK   11  A    between atoms: O_16  and  C_17
REMARK   12  A    between atoms: C_24  and  C_25
REMARK   13  A    between atoms: C_25  and  O_27
REMARK   14  A    between atoms: C_29  and  O_30
REMARK   15  A    between atoms: O_30  and  C_31
REMARK   16  A    between atoms: C_32  and  O_33
REMARK   17  A    between atoms: O_33  and  C_34
REMARK                            x       y       z     vdW  Elec       q    Type
REMARK                         _______ _______ _______ _____ _____    ______ ____
ROOT
ATOM      1  C   UNL     1      -0.473  11.861  20.591  0.00  0.00    +0.000 C 
ENDROOT
BRANCH   1   4
ATOM      2  C   UNL     1       0.439  15.407  19.538  0.00  0.00    +0.000 A 
ATOM      3  C   UNL     1      -0.054  14.094  19.501  0.00  0.00    +0.000 A 
ATOM      4  C   UNL     1       0.299  13.167  20.478  0.00  0.00    +0.000 A 
ATOM      5  C   UNL     1       1.297  13.525  21.393  0.00  0.00    +0.000 A 
ATOM      6  C   UNL     1       1.844  14.816  21.425  0.00  0.00    +0.000 A 
ATOM      7  C   UNL     1       1.403  15.786  20.501  0.00  0.00    +0.000 A 
BRANCH   2   9
ATOM      8  C   UNL     1      -1.103  17.133  19.001  0.00  0.00    +0.000 C 
ATOM      9  O   UNL     1      -0.001  16.317  18.609  0.00  0.00    +0.000 OA
ENDBRANCH   2   9
BRANCH   6  10
ATOM     10  O   UNL     1       2.748  14.939  22.452  0.00  0.00    +0.000 OA
ATOM     11  C   UNL     1       4.113  14.641  22.223  0.00  0.00    +0.000 C 
ENDBRANCH   6  10
BRANCH   7  12
ATOM     12  O   UNL     1       1.978  17.025  20.605  0.00  0.00    +0.000 OA
ATOM     13  C   UNL     1       3.138  17.331  19.849  0.00  0.00    +0.000 C 
ENDBRANCH   7  12
ENDBRANCH   1   4
BRANCH   1  14
ATOM     14  C   UNL     1      -1.801  11.942  19.846  0.00  0.00    +0.000 A 
ATOM     15  C   UNL     1      -2.915  12.567  20.405  0.00  0.00    +0.000 A 
ATOM     16  C   UNL     1      -4.161  12.507  19.775  0.00  0.00    +0.000 A 
ATOM     17  C   UNL     1      -4.325  11.767  18.583  0.00  0.00    +0.000 A 
ATOM     18  C   UNL     1      -3.212  11.134  18.002  0.00  0.00    +0.000 A 
ATOM     19  C   UNL     1      -1.959  11.248  18.631  0.00  0.00    +0.000 A 
BRANCH  16  20
ATOM     20  O   UNL     1      -5.279  13.117  20.297  0.00  0.00    +0.000 OA
ATOM     21  C   UNL     1      -5.045  14.295  21.060  0.00  0.00    +0.000 C 
ENDBRANCH  16  20
BRANCH  17  22
ATOM     22  O   UNL     1      -5.627  11.674  18.146  0.00  0.00    +0.000 OA
ATOM     23  C   UNL     1      -6.060  12.573  17.137  0.00  0.00    +0.000 C 
ENDBRANCH  17  22
BRANCH  18  24
ATOM     24  O   UNL     1      -3.404  10.380  16.873  0.00  0.00    +0.000 OA
ATOM     25  C   UNL     1      -2.795  10.794  15.658  0.00  0.00    +0.000 C 
ENDBRANCH  18  24
ENDBRANCH   1  14
BRANCH   1  26
ATOM     26  N   UNL     1       0.350  10.643  20.296  0.00  0.00    +0.000 N 
ATOM     27  C   UNL     1       1.156  10.430  19.178  0.00  0.00    +0.000 C 
ATOM     28  O   UNL     1       1.606  11.236  18.385  0.00  0.00    +0.000 OA
ATOM     29  C   UNL     1       1.393   8.950  19.053  0.00  0.00    +0.000 C 
ATOM     30  C   UNL     1       1.266   8.472  20.480  0.00  0.00    +0.000 C 
ATOM     31  C   UNL     1       0.272   9.440  21.128  0.00  0.00    +0.000 C 
BRANCH  31  32
ATOM     32  C   UNL     1       0.727   9.652  22.575  0.00  0.00    +0.000 C 
ATOM     33  O   UNL     1      -0.014   9.995  23.482  0.00  0.00    +0.000 OA
BRANCH  32  34
ATOM     34  O   UNL     1       2.016   9.286  22.793  0.00  0.00    +0.000 OA
ATOM     35  H   UNL     1       2.631  10.038  22.662  0.00  0.00    +0.000 HD
ENDBRANCH  32  34
ENDBRANCH  31  32
ENDBRANCH   1  26
TORSDOF 11
ENDMDL
MODEL 8
REMARK VINA RESULT:      -6.5      1.194      6.507
REMARK  Name = 
REMARK  17 active torsions:
REMARK  status: ('A' for Active; 'I' for Inactive)
REMARK    1  A    between atoms: C_1  and  O_2
REMARK    2  A    between atoms: O_2  and  C_3
REMARK    3  A    between atoms: C_5  and  C_6
REMARK    4  A    between atoms: C_6  and  C_7
REMARK    5  A    between atoms: C_6  and  N_19
REMARK    6  A    between atoms: C_9  and  O_10
REMARK    7  A    between atoms: O_10  and  C_11
REMARK    8  A    between atoms: C_12  and  O_13
REMARK    9  A    between atoms: O_13  and  C_14
REMARK   10  A    between atoms: C_15  and  O_16
REMARK   11  A    between atoms: O_16  and  C_17
REMARK   12  A    between atoms: C_24  and  C_25
REMARK   13  A    between atoms: C_25  and  O_27
REMARK   14  A    between atoms: C_29  and  O_30
REMARK   15  A    between atoms: O_30  and  C_31
REMARK   16  A    between atoms: C_32  and  O_33
REMARK   17  A    between atoms: O_33  and  C_34
REMARK                            x       y       z     vdW  Elec       q    Type
REMARK                         _______ _______ _______ _____ _____    ______ ____
ROOT
ATOM      1  C   UNL     1       2.678   5.590  17.897  0.00  0.00    +0.000 C 
ENDROOT
BRANCH   1   4
ATOM      2  C   UNL     1       1.944   9.318  18.173  0.00  0.00    +0.000 A 
ATOM      3  C   UNL     1       2.456   8.094  17.719  0.00  0.00    +0.000 A 
ATOM      4  C   UNL     1       2.400   6.952  18.514  0.00  0.00    +0.000 A 
ATOM      5  C   UNL     1       1.986   7.098  19.844  0.00  0.00    +0.000 A 
ATOM      6  C   UNL     1       1.513   8.321  20.342  0.00  0.00    +0.000 A 
ATOM      7  C   UNL     1       1.469   9.450  19.499  0.00  0.00    +0.000 A 
BRANCH   2   9
ATOM      8  C   UNL     1       2.649  11.551  17.774  0.00  0.00    +0.000 C 
ATOM      9  O   UNL     1       1.936  10.399  17.327  0.00  0.00    +0.000 OA
ENDBRANCH   2   9
BRANCH   6  10
ATOM     10  O   UNL     1       1.102   8.192  21.647  0.00  0.00    +0.000 OA
ATOM     11  C   UNL     1      -0.279   8.228  21.954  0.00  0.00    +0.000 C 
ENDBRANCH   6  10
BRANCH   7  12
ATOM     12  O   UNL     1       0.984  10.603  20.058  0.00  0.00    +0.000 OA
ATOM     13  C   UNL     1      -0.356  10.997  19.811  0.00  0.00    +0.000 C 
ENDBRANCH   7  12
ENDBRANCH   1   4
BRANCH   1  14
ATOM     14  C   UNL     1       3.954   5.615  17.064  0.00  0.00    +0.000 A 
ATOM     15  C   UNL     1       4.294   4.560  16.217  0.00  0.00    +0.000 A 
ATOM     16  C   UNL     1       5.533   4.531  15.571  0.00  0.00    +0.000 A 
ATOM     17  C   UNL     1       6.487   5.546  15.806  0.00  0.00    +0.000 A 
ATOM     18  C   UNL     1       6.160   6.621  16.653  0.00  0.00    +0.000 A 
ATOM     19  C   UNL     1       4.890   6.650  17.255  0.00  0.00    +0.000 A 
BRANCH  16  20
ATOM     20  O   UNL     1       5.898   3.509  14.725  0.00  0.00    +0.000 OA
ATOM     21  C   UNL     1       5.345   3.560  13.415  0.00  0.00    +0.000 C 
ENDBRANCH  16  20
BRANCH  17  22
ATOM     22  O   UNL     1       7.712   5.323  15.221  0.00  0.00    +0.000 OA
ATOM     23  C   UNL     1       7.869   5.652  13.849  0.00  0.00    +0.000 C 
ENDBRANCH  17  22
BRANCH  18  24
ATOM     24  O   UNL     1       7.118   7.568  16.907  0.00  0.00    +0.000 OA
ATOM     25  C   UNL     1       7.885   7.468  18.100  0.00  0.00    +0.000 C 
ENDBRANCH  18  24
ENDBRANCH   1  14
BRANCH   1  26
ATOM     26  N   UNL     1       2.573   4.451  18.868  0.00  0.00    +0.000 N 
ATOM     27  C   UNL     1       1.590   3.462  18.891  0.00  0.00    +0.000 C 
ATOM     28  O   UNL     1       0.820   3.117  18.013  0.00  0.00    +0.000 OA
ATOM     29  C   UNL     1       1.588   2.843  20.261  0.00  0.00    +0.000 C 
ATOM     30  C   UNL     1       3.010   3.055  20.724  0.00  0.00    +0.000 C 
ATOM     31  C   UNL     1       3.456   4.346  20.031  0.00  0.00    +0.000 C 
BRANCH  31  32
ATOM     32  C   UNL     1       4.936   4.178  19.677  0.00  0.00    +0.000 C 
ATOM     33  O   UNL     1       5.401   3.188  19.134  0.00  0.00    +0.000 OA
BRANCH  32  34
ATOM     34  O   UNL     1       5.673   5.297  19.895  0.00  0.00    +0.000 OA
ATOM     35  H   UNL     1       5.756   5.838  19.082  0.00  0.00    +0.000 HD
ENDBRANCH  32  34
ENDBRANCH  31  32
ENDBRANCH   1  26
TORSDOF 11
ENDMDL
MODEL 9
REMARK VINA RESULT:      -6.5      1.244      6.666
REMARK  Name = 
REMARK  17 active torsions:
REMARK  status: ('A' for Active; 'I' for Inactive)
REMARK    1  A    between atoms: C_1  and  O_2
REMARK    2  A    between atoms: O_2  and  C_3
REMARK    3  A    between atoms: C_5  and  C_6
REMARK    4  A    between atoms: C_6  and  C_7
REMARK    5  A    between atoms: C_6  and  N_19
REMARK    6  A    between atoms: C_9  and  O_10
REMARK    7  A    between atoms: O_10  and  C_11
REMARK    8  A    between atoms: C_12  and  O_13
REMARK    9  A    between atoms: O_13  and  C_14
REMARK   10  A    between atoms: C_15  and  O_16
REMARK   11  A    between atoms: O_16  and  C_17
REMARK   12  A    between atoms: C_24  and  C_25
REMARK   13  A    between atoms: C_25  and  O_27
REMARK   14  A    between atoms: C_29  and  O_30
REMARK   15  A    between atoms: O_30  and  C_31
REMARK   16  A    between atoms: C_32  and  O_33
REMARK   17  A    between atoms: O_33  and  C_34
REMARK                            x       y       z     vdW  Elec       q    Type
REMARK                         _______ _______ _______ _____ _____    ______ ____
ROOT
ATOM      1  C   UNL     1       3.308   5.046  17.723  0.00  0.00    +0.000 C 
ENDROOT
BRANCH   1   4
ATOM      2  C   UNL     1       2.258   8.700  17.964  0.00  0.00    +0.000 A 
ATOM      3  C   UNL     1       2.892   7.524  17.535  0.00  0.00    +0.000 A 
ATOM      4  C   UNL     1       2.888   6.378  18.326  0.00  0.00    +0.000 A 
ATOM      5  C   UNL     1       2.396   6.484  19.633  0.00  0.00    +0.000 A 
ATOM      6  C   UNL     1       1.800   7.661  20.107  0.00  0.00    +0.000 A 
ATOM      7  C   UNL     1       1.707   8.787  19.264  0.00  0.00    +0.000 A 
BRANCH   2   9
ATOM      8  C   UNL     1       2.653  11.023  17.661  0.00  0.00    +0.000 C 
ATOM      9  O   UNL     1       2.205   9.782  17.119  0.00  0.00    +0.000 OA
ENDBRANCH   2   9
BRANCH   6  10
ATOM     10  O   UNL     1       1.335   7.492  21.389  0.00  0.00    +0.000 OA
ATOM     11  C   UNL     1       1.337   8.589  22.284  0.00  0.00    +0.000 C 
ENDBRANCH   6  10
BRANCH   7  12
ATOM     12  O   UNL     1       1.102   9.894  19.798  0.00  0.00    +0.000 OA
ATOM     13  C   UNL     1      -0.276  10.130  19.558  0.00  0.00    +0.000 C 
ENDBRANCH   7  12
ENDBRANCH   1   4
BRANCH   1  14
ATOM     14  C   UNL     1       4.484   5.221  16.769  0.00  0.00    +0.000 A 
ATOM     15  C   UNL     1       4.680   4.364  15.686  0.00  0.00    +0.000 A 
ATOM     16  C   UNL     1       5.838   4.447  14.908  0.00  0.00    +0.000 A 
ATOM     17  C   UNL     1       6.856   5.370  15.236  0.00  0.00    +0.000 A 
ATOM     18  C   UNL     1       6.673   6.246  16.321  0.00  0.00    +0.000 A 
ATOM     19  C   UNL     1       5.480   6.173  17.060  0.00  0.00    +0.000 A 
BRANCH  16  20
ATOM     20  O   UNL     1       6.060   3.620  13.831  0.00  0.00    +0.000 OA
ATOM     21  C   UNL     1       5.041   3.606  12.838  0.00  0.00    +0.000 C 
ENDBRANCH  16  20
BRANCH  17  22
ATOM     22  O   UNL     1       7.998   5.251  14.477  0.00  0.00    +0.000 OA
ATOM     23  C   UNL     1       7.965   5.724  13.139  0.00  0.00    +0.000 C 
ENDBRANCH  17  22
BRANCH  18  24
ATOM     24  O   UNL     1       7.695   7.098  16.652  0.00  0.00    +0.000 OA
ATOM     25  C   UNL     1       7.807   7.548  17.996  0.00  0.00    +0.000 C 
ENDBRANCH  18  24
ENDBRANCH   1  14
BRANCH   1  26
ATOM     26  N   UNL     1       3.462   3.946  18.731  0.00  0.00    +0.000 N 
ATOM     27  C   UNL     1       4.511   3.784  19.635  0.00  0.00    +0.000 C 
ATOM     28  O   UNL     1       5.331   4.597  20.021  0.00  0.00    +0.000 OA
ATOM     29  C   UNL     1       4.513   2.351  20.090  0.00  0.00    +0.000 C 
ATOM     30  C   UNL     1       3.066   1.950  19.932  0.00  0.00    +0.000 C 
ATOM     31  C   UNL     1       2.552   2.800  18.766  0.00  0.00    +0.000 C 
BRANCH  31  32
ATOM     32  C   UNL     1       1.099   3.167  19.083  0.00  0.00    +0.000 C 
ATOM     33  O   UNL     1       0.193   3.139  18.266  0.00  0.00    +0.000 OA
BRANCH  32  34
ATOM     34  O   UNL     1       0.877   3.396  20.402  0.00  0.00    +0.000 OA
ATOM     35  H   UNL     1       1.300   2.713  20.963  0.00  0.00    +0.000 HD
ENDBRANCH  32  34
ENDBRANCH  31  32
ENDBRANCH   1  26
TORSDOF 11
ENDMDL
