MODEL 1
REMARK VINA RESULT:      -7.5      0.000      0.000
REMARK  Name = 
REMARK  3 active torsions:
REMARK  status: ('A' for Active; 'I' for Inactive)
REMARK    1  A    between atoms: N_5  and  C_6
REMARK    2  A    between atoms: C_6  and  C_7
REMARK    3  A    between atoms: C_10  and  C_11
REMARK                            x       y       z     vdW  Elec       q    Type
REMARK                         _______ _______ _______ _____ _____    ______ ____
ROOT
ATOM      1  C   UNL     1       5.296   5.180  18.355  0.00  0.00    +0.000 A 
ATOM      2  C   UNL     1       4.538   5.669  17.286  0.00  0.00    +0.000 A 
ATOM      3  C   UNL     1       5.004   5.559  15.971  0.00  0.00    +0.000 A 
ATOM      4  C   UNL     1       6.244   4.966  15.675  0.00  0.00    +0.000 A 
ATOM      5  C   UNL     1       7.034   4.567  16.769  0.00  0.00    +0.000 A 
ATOM      6  C   UNL     1       6.566   4.659  18.085  0.00  0.00    +0.000 A 
ENDROOT
BRANCH   4   7
ATOM      7  C   UNL     1       6.664   4.699  14.275  0.00  0.00    +0.000 A 
ATOM      8  C   UNL     1       7.670   5.448  13.641  0.00  0.00    +0.000 A 
ATOM      9  C   UNL     1       8.002   5.238  12.296  0.00  0.00    +0.000 A 
ATOM     10  C   UNL     1       7.345   4.260  11.558  0.00  0.00    +0.000 A 
ATOM     11  C   UNL     1       6.359   3.491  12.161  0.00  0.00    +0.000 A 
ATOM     12  C   UNL     1       6.018   3.714  13.500  0.00  0.00    +0.000 A 
ENDBRANCH   4   7
BRANCH   1  13
ATOM     13  C   UNL     1       4.712   5.112  19.750  0.00  0.00    +0.000 C 
BRANCH  13  18
ATOM     14  O   UNL     1       0.080   2.153  19.214  0.00  0.00    +0.000 OA
ATOM     15  C   UNL     1       1.114   2.781  19.403  0.00  0.00    +0.000 A 
ATOM     16  C   UNL     1       1.092   4.149  19.975  0.00  0.00    +0.000 A 
ATOM     17  C   UNL     1       2.256   4.795  20.107  0.00  0.00    +0.000 A 
ATOM     18  N   UNL     1       3.496   4.266  19.755  0.00  0.00    +0.000 N 
ATOM     19  C   UNL     1       3.523   2.963  19.259  0.00  0.00    +0.000 A 
ATOM     20  C   UNL     1       2.438   2.204  19.073  0.00  0.00    +0.000 A 
ENDBRANCH  13  18
ENDBRANCH   1  13
TORSDOF 3
ENDMDL
MODEL 2
REMARK VINA RESULT:      -7.5      4.347      8.359
REMARK  Name = 
REMARK  3 active torsions:
REMARK  status: ('A' for Active; 'I' for Inactive)
REMARK    1  A    between atoms: N_5  and  C_6
REMARK    2  A    between atoms: C_6  and  C_7
REMARK    3  A    between atoms: C_10  and  C_11
REMARK                            x       y       z     vdW  Elec       q    Type
REMARK                         _______ _______ _______ _____ _____    ______ ____
ROOT
ATOM      1  C   UNL     1       2.420   6.063  18.791  0.00  0.00    +0.000 A 
ATOM      2  C   UNL     1       1.995   5.871  20.110  0.00  0.00    +0.000 A 
ATOM      3  C   UNL     1       1.465   6.935  20.850  0.00  0.00    +0.000 A 
ATOM      4  C   UNL     1       1.347   8.226  20.306  0.00  0.00    +0.000 A 
ATOM      5  C   UNL     1       1.867   8.419  19.013  0.00  0.00    +0.000 A 
ATOM      6  C   UNL     1       2.382   7.357  18.262  0.00  0.00    +0.000 A 
ENDROOT
BRANCH   4   7
ATOM      7  C   UNL     1       0.635   9.312  21.028  0.00  0.00    +0.000 A 
ATOM      8  C   UNL     1       0.574  10.625  20.530  0.00  0.00    +0.000 A 
ATOM      9  C   UNL     1      -0.032  11.657  21.257  0.00  0.00    +0.000 A 
ATOM     10  C   UNL     1      -0.608  11.395  22.495  0.00  0.00    +0.000 A 
ATOM     11  C   UNL     1      -0.579  10.105  23.007  0.00  0.00    +0.000 A 
ATOM     12  C   UNL     1       0.041   9.079  22.285  0.00  0.00    +0.000 A 
ENDBRANCH   4   7
BRANCH   1  13
ATOM     13  C   UNL     1       2.800   4.882  17.923  0.00  0.00    +0.000 C 
BRANCH  13  18
ATOM     14  O   UNL     1       8.238   4.261  17.188  0.00  0.00    +0.000 OA
ATOM     15  C   UNL     1       7.040   4.472  17.331  0.00  0.00    +0.000 A 
ATOM     16  C   UNL     1       6.485   4.923  18.630  0.00  0.00    +0.000 A 
ATOM     17  C   UNL     1       5.160   5.085  18.726  0.00  0.00    +0.000 A 
ATOM     18  N   UNL     1       4.261   4.870  17.684  0.00  0.00    +0.000 N 
ATOM     19  C   UNL     1       4.786   4.489  16.449  0.00  0.00    +0.000 A 
ATOM     20  C   UNL     1       6.087   4.289  16.211  0.00  0.00    +0.000 A 
ENDBRANCH  13  18
ENDBRANCH   1  13
TORSDOF 3
ENDMDL
MODEL 3
REMARK VINA RESULT:      -7.5      1.555      1.765
REMARK  Name = 
REMARK  3 active torsions:
REMARK  status: ('A' for Active; 'I' for Inactive)
REMARK    1  A    between atoms: N_5  and  C_6
REMARK    2  A    between atoms: C_6  and  C_7
REMARK    3  A    between atoms: C_10  and  C_11
REMARK                            x       y       z     vdW  Elec       q    Type
REMARK                         _______ _______ _______ _____ _____    ______ ____
ROOT
ATOM      1  C   UNL     1       3.604   5.688  17.720  0.00  0.00    +0.000 A 
ATOM      2  C   UNL     1       4.324   6.680  17.046  0.00  0.00    +0.000 A 
ATOM      3  C   UNL     1       5.168   6.349  15.979  0.00  0.00    +0.000 A 
ATOM      4  C   UNL     1       5.330   5.019  15.553  0.00  0.00    +0.000 A 
ATOM      5  C   UNL     1       4.673   4.027  16.303  0.00  0.00    +0.000 A 
ATOM      6  C   UNL     1       3.814   4.353  17.360  0.00  0.00    +0.000 A 
ENDROOT
BRANCH   4   7
ATOM      7  C   UNL     1       6.091   4.685  14.321  0.00  0.00    +0.000 A 
ATOM      8  C   UNL     1       7.296   5.329  13.990  0.00  0.00    +0.000 A 
ATOM      9  C   UNL     1       7.963   5.061  12.787  0.00  0.00    +0.000 A 
ATOM     10  C   UNL     1       7.448   4.128  11.894  0.00  0.00    +0.000 A 
ATOM     11  C   UNL     1       6.268   3.463  12.201  0.00  0.00    +0.000 A 
ATOM     12  C   UNL     1       5.596   3.744  13.396  0.00  0.00    +0.000 A 
ENDBRANCH   4   7
BRANCH   1  13
ATOM     13  C   UNL     1       2.542   6.059  18.733  0.00  0.00    +0.000 C 
BRANCH  13  18
ATOM     14  O   UNL     1       1.057   2.114  22.300  0.00  0.00    +0.000 OA
ATOM     15  C   UNL     1       1.437   2.940  21.481  0.00  0.00    +0.000 A 
ATOM     16  C   UNL     1       2.541   3.881  21.789  0.00  0.00    +0.000 A 
ATOM     17  C   UNL     1       2.870   4.790  20.864  0.00  0.00    +0.000 A 
ATOM     18  N   UNL     1       2.254   4.909  19.620  0.00  0.00    +0.000 N 
ATOM     19  C   UNL     1       1.246   3.996  19.311  0.00  0.00    +0.000 A 
ATOM     20  C   UNL     1       0.815   3.038  20.139  0.00  0.00    +0.000 A 
ENDBRANCH  13  18
ENDBRANCH   1  13
TORSDOF 3
ENDMDL
MODEL 4
REMARK VINA RESULT:      -7.4      4.511      8.312
REMARK  Name = 
REMARK  3 active torsions:
REMARK  status: ('A' for Active; 'I' for Inactive)
REMARK    1  A    between atoms: N_5  and  C_6
REMARK    2  A    between atoms: C_6  and  C_7
REMARK    3  A    between atoms: C_10  and  C_11
REMARK                            x       y       z     vdW  Elec       q    Type
REMARK                         _______ _______ _______ _____ _____    ______ ____
ROOT
ATOM      1  C   UNL     1       2.618   7.335  18.606  0.00  0.00    +0.000 A 
ATOM      2  C   UNL     1       2.087   8.529  18.109  0.00  0.00    +0.000 A 
ATOM      3  C   UNL     1       1.280   9.342  18.914  0.00  0.00    +0.000 A 
ATOM      4  C   UNL     1       0.967   8.989  20.238  0.00  0.00    +0.000 A 
ATOM      5  C   UNL     1       1.430   7.739  20.688  0.00  0.00    +0.000 A 
ATOM      6  C   UNL     1       2.252   6.931  19.894  0.00  0.00    +0.000 A 
ENDROOT
BRANCH   4   7
ATOM      7  C   UNL     1       0.252   9.925  21.144  0.00  0.00    +0.000 A 
ATOM      8  C   UNL     1      -0.199   9.534  22.417  0.00  0.00    +0.000 A 
ATOM      9  C   UNL     1      -0.940  10.401  23.230  0.00  0.00    +0.000 A 
ATOM     10  C   UNL     1      -1.233  11.689  22.794  0.00  0.00    +0.000 A 
ATOM     11  C   UNL     1      -0.787  12.110  21.548  0.00  0.00    +0.000 A 
ATOM     12  C   UNL     1      -0.060  11.236  20.732  0.00  0.00    +0.000 A 
ENDBRANCH   4   7
BRANCH   1  13
ATOM     13  C   UNL     1       3.650   6.560  17.815  0.00  0.00    +0.000 C 
BRANCH  13  18
ATOM     14  O   UNL     1       3.649   1.079  18.489  0.00  0.00    +0.000 OA
ATOM     15  C   UNL     1       3.602   2.299  18.399  0.00  0.00    +0.000 A 
ATOM     16  C   UNL     1       2.578   2.973  17.565  0.00  0.00    +0.000 A 
ATOM     17  C   UNL     1       2.618   4.307  17.473  0.00  0.00    +0.000 A 
ATOM     18  N   UNL     1       3.551   5.115  18.120  0.00  0.00    +0.000 N 
ATOM     19  C   UNL     1       4.488   4.486  18.941  0.00  0.00    +0.000 A 
ATOM     20  C   UNL     1       4.565   3.163  19.122  0.00  0.00    +0.000 A 
ENDBRANCH  13  18
ENDBRANCH   1  13
TORSDOF 3
ENDMDL
MODEL 5
REMARK VINA RESULT:      -7.4      4.562      8.287
REMARK  Name = 
REMARK  3 active torsions:
REMARK  status: ('A' for Active; 'I' for Inactive)
REMARK    1  A    between atoms: N_5  and  C_6
REMARK    2  A    between atoms: C_6  and  C_7
REMARK    3  A    between atoms: C_10  and  C_11
REMARK                            x       y       z     vdW  Elec       q    Type
REMARK                         _______ _______ _______ _____ _____    ______ ____
ROOT
ATOM      1  C   UNL     1       2.617   7.409  18.597  0.00  0.00    +0.000 A 
ATOM      2  C   UNL     1       2.054   8.574  18.066  0.00  0.00    +0.000 A 
ATOM      3  C   UNL     1       1.233   9.392  18.853  0.00  0.00    +0.000 A 
ATOM      4  C   UNL     1       0.940   9.074  20.190  0.00  0.00    +0.000 A 
ATOM      5  C   UNL     1       1.438   7.851  20.676  0.00  0.00    +0.000 A 
ATOM      6  C   UNL     1       2.273   7.038  19.901  0.00  0.00    +0.000 A 
ENDROOT
BRANCH   4   7
ATOM      7  C   UNL     1       0.210  10.021  21.073  0.00  0.00    +0.000 A 
ATOM      8  C   UNL     1       0.087  11.387  20.763  0.00  0.00    +0.000 A 
ATOM      9  C   UNL     1      -0.535  12.283  21.641  0.00  0.00    +0.000 A 
ATOM     10  C   UNL     1      -1.066  11.830  22.844  0.00  0.00    +0.000 A 
ATOM     11  C   UNL     1      -0.975  10.484  23.170  0.00  0.00    +0.000 A 
ATOM     12  C   UNL     1      -0.339   9.593  22.298  0.00  0.00    +0.000 A 
ENDBRANCH   4   7
BRANCH   1  13
ATOM     13  C   UNL     1       3.662   6.635  17.822  0.00  0.00    +0.000 C 
BRANCH  13  18
ATOM     14  O   UNL     1       3.645   1.154  18.495  0.00  0.00    +0.000 OA
ATOM     15  C   UNL     1       3.604   2.374  18.407  0.00  0.00    +0.000 A 
ATOM     16  C   UNL     1       2.558   3.055  17.606  0.00  0.00    +0.000 A 
ATOM     17  C   UNL     1       2.604   4.389  17.514  0.00  0.00    +0.000 A 
ATOM     18  N   UNL     1       3.563   5.190  18.130  0.00  0.00    +0.000 N 
ATOM     19  C   UNL     1       4.521   4.555  18.920  0.00  0.00    +0.000 A 
ATOM     20  C   UNL     1       4.596   3.231  19.099  0.00  0.00    +0.000 A 
ENDBRANCH  13  18
ENDBRANCH   1  13
TORSDOF 3
ENDMDL
MODEL 6
REMARK VINA RESULT:      -7.4      0.953      1.132
REMARK  Name = 
REMARK  3 active torsions:
REMARK  status: ('A' for Active; 'I' for Inactive)
REMARK    1  A    between atoms: N_5  and  C_6
REMARK    2  A    between atoms: C_6  and  C_7
REMARK    3  A    between atoms: C_10  and  C_11
REMARK                            x       y       z     vdW  Elec       q    Type
REMARK                         _______ _______ _______ _____ _____    ______ ____
ROOT
ATOM      1  C   UNL     1       4.698   5.787  18.145  0.00  0.00    +0.000 A 
ATOM      2  C   UNL     1       4.638   6.684  17.074  0.00  0.00    +0.000 A 
ATOM      3  C   UNL     1       5.244   6.377  15.850  0.00  0.00    +0.000 A 
ATOM      4  C   UNL     1       5.938   5.171  15.653  0.00  0.00    +0.000 A 
ATOM      5  C   UNL     1       6.070   4.325  16.770  0.00  0.00    +0.000 A 
ATOM      6  C   UNL     1       5.451   4.618  17.991  0.00  0.00    +0.000 A 
ENDROOT
BRANCH   4   7
ATOM      7  C   UNL     1       6.437   4.771  14.313  0.00  0.00    +0.000 A 
ATOM      8  C   UNL     1       7.509   5.431  13.687  0.00  0.00    +0.000 A 
ATOM      9  C   UNL     1       7.919   5.096  12.390  0.00  0.00    +0.000 A 
ATOM     10  C   UNL     1       7.276   4.078  11.694  0.00  0.00    +0.000 A 
ATOM     11  C   UNL     1       6.225   3.396  12.292  0.00  0.00    +0.000 A 
ATOM     12  C   UNL     1       5.807   3.743  13.581  0.00  0.00    +0.000 A 
ENDBRANCH   4   7
BRANCH   1  13
ATOM     13  C   UNL     1       3.877   6.020  19.396  0.00  0.00    +0.000 C 
BRANCH  13  18
ATOM     14  O   UNL     1       0.026   2.062  19.479  0.00  0.00    +0.000 OA
ATOM     15  C   UNL     1       0.825   2.990  19.473  0.00  0.00    +0.000 A 
ATOM     16  C   UNL     1       1.168   3.705  18.219  0.00  0.00    +0.000 A 
ATOM     17  C   UNL     1       2.086   4.676  18.280  0.00  0.00    +0.000 A 
ATOM     18  N   UNL     1       2.738   5.075  19.444  0.00  0.00    +0.000 N 
ATOM     19  C   UNL     1       2.384   4.435  20.632  0.00  0.00    +0.000 A 
ATOM     20  C   UNL     1       1.485   3.448  20.718  0.00  0.00    +0.000 A 
ENDBRANCH  13  18
ENDBRANCH   1  13
TORSDOF 3
ENDMDL
MODEL 7
REMARK VINA RESULT:      -7.4      4.195      8.247
REMARK  Name = 
REMARK  3 active torsions:
REMARK  status: ('A' for Active; 'I' for Inactive)
REMARK    1  A    between atoms: N_5  and  C_6
REMARK    2  A    between atoms: C_6  and  C_7
REMARK    3  A    between atoms: C_10  and  C_11
REMARK                            x       y       z     vdW  Elec       q    Type
REMARK                         _______ _______ _______ _____ _____    ______ ____
ROOT
ATOM      1  C   UNL     1       2.403   5.722  18.724  0.00  0.00    +0.000 A 
ATOM      2  C   UNL     1       1.992   5.563  20.051  0.00  0.00    +0.000 A 
ATOM      3  C   UNL     1       1.552   6.662  20.799  0.00  0.00    +0.000 A 
ATOM      4  C   UNL     1       1.516   7.958  20.253  0.00  0.00    +0.000 A 
ATOM      5  C   UNL     1       2.023   8.112  18.950  0.00  0.00    +0.000 A 
ATOM      6  C   UNL     1       2.447   7.014  18.192  0.00  0.00    +0.000 A 
ENDROOT
BRANCH   4   7
ATOM      7  C   UNL     1       0.897   9.093  20.985  0.00  0.00    +0.000 A 
ATOM      8  C   UNL     1       0.352   8.943  22.273  0.00  0.00    +0.000 A 
ATOM      9  C   UNL     1      -0.299  10.001  22.920  0.00  0.00    +0.000 A 
ATOM     10  C   UNL     1      -0.405  11.241  22.301  0.00  0.00    +0.000 A 
ATOM     11  C   UNL     1       0.138  11.425  21.036  0.00  0.00    +0.000 A 
ATOM     12  C   UNL     1       0.774  10.362  20.385  0.00  0.00    +0.000 A 
ENDBRANCH   4   7
BRANCH   1  13
ATOM     13  C   UNL     1       2.682   4.515  17.853  0.00  0.00    +0.000 C 
BRANCH  13  18
ATOM     14  O   UNL     1       8.119   4.551  16.886  0.00  0.00    +0.000 OA
ATOM     15  C   UNL     1       6.919   4.469  17.116  0.00  0.00    +0.000 A 
ATOM     16  C   UNL     1       5.949   4.134  16.046  0.00  0.00    +0.000 A 
ATOM     17  C   UNL     1       4.648   4.112  16.360  0.00  0.00    +0.000 A 
ATOM     18  N   UNL     1       4.139   4.369  17.631  0.00  0.00    +0.000 N 
ATOM     19  C   UNL     1       5.053   4.639  18.648  0.00  0.00    +0.000 A 
ATOM     20  C   UNL     1       6.378   4.697  18.477  0.00  0.00    +0.000 A 
ENDBRANCH  13  18
ENDBRANCH   1  13
TORSDOF 3
ENDMDL
MODEL 8
REMARK VINA RESULT:      -7.3      3.814      7.742
REMARK  Name = 
REMARK  3 active torsions:
REMARK  status: ('A' for Active; 'I' for Inactive)
REMARK    1  A    between atoms: N_5  and  C_6
REMARK    2  A    between atoms: C_6  and  C_7
REMARK    3  A    between atoms: C_10  and  C_11
REMARK                            x       y       z     vdW  Elec       q    Type
REMARK                         _______ _______ _______ _____ _____    ______ ____
ROOT
ATOM      1  C   UNL     1       3.274   4.800  19.054  0.00  0.00    +0.000 A 
ATOM      2  C   UNL     1       3.254   5.937  18.239  0.00  0.00    +0.000 A 
ATOM      3  C   UNL     1       2.591   7.099  18.652  0.00  0.00    +0.000 A 
ATOM      4  C   UNL     1       1.918   7.166  19.884  0.00  0.00    +0.000 A 
ATOM      5  C   UNL     1       1.869   5.984  20.645  0.00  0.00    +0.000 A 
ATOM      6  C   UNL     1       2.544   4.824  20.247  0.00  0.00    +0.000 A 
ENDROOT
BRANCH   4   7
ATOM      7  C   UNL     1       1.359   8.444  20.396  0.00  0.00    +0.000 A 
ATOM      8  C   UNL     1       1.049   8.633  21.754  0.00  0.00    +0.000 A 
ATOM      9  C   UNL     1       0.448   9.813  22.212  0.00  0.00    +0.000 A 
ATOM     10  C   UNL     1       0.160  10.841  21.321  0.00  0.00    +0.000 A 
ATOM     11  C   UNL     1       0.471  10.692  19.976  0.00  0.00    +0.000 A 
ATOM     12  C   UNL     1       1.056   9.505  19.520  0.00  0.00    +0.000 A 
ENDBRANCH   4   7
BRANCH   1  13
ATOM     13  C   UNL     1       4.155   3.618  18.708  0.00  0.00    +0.000 C 
BRANCH  13  18
ATOM     14  O   UNL     1       7.657   5.610  14.933  0.00  0.00    +0.000 OA
ATOM     15  C   UNL     1       6.917   5.102  15.765  0.00  0.00    +0.000 A 
ATOM     16  C   UNL     1       5.669   4.408  15.367  0.00  0.00    +0.000 A 
ATOM     17  C   UNL     1       4.884   3.920  16.335  0.00  0.00    +0.000 A 
ATOM     18  N   UNL     1       5.163   4.008  17.697  0.00  0.00    +0.000 N 
ATOM     19  C   UNL     1       6.358   4.621  18.071  0.00  0.00    +0.000 A 
ATOM     20  C   UNL     1       7.235   5.154  17.212  0.00  0.00    +0.000 A 
ENDBRANCH  13  18
ENDBRANCH   1  13
TORSDOF 3
ENDMDL
MODEL 9
REMARK VINA RESULT:      -7.3      5.015      7.829
REMARK  Name = 
REMARK  3 active torsions:
REMARK  status: ('A' for Active; 'I' for Inactive)
REMARK    1  A    between atoms: N_5  and  C_6
REMARK    2  A    between atoms: C_6  and  C_7
REMARK    3  A    between atoms: C_10  and  C_11
REMARK                            x       y       z     vdW  Elec       q    Type
REMARK                         _______ _______ _______ _____ _____    ______ ____
ROOT
ATOM      1  C   UNL     1       2.636   6.708  19.051  0.00  0.00    +0.000 A 
ATOM      2  C   UNL     1       2.021   7.289  20.164  0.00  0.00    +0.000 A 
ATOM      3  C   UNL     1       1.422   8.551  20.071  0.00  0.00    +0.000 A 
ATOM      4  C   UNL     1       1.424   9.281  18.870  0.00  0.00    +0.000 A 
ATOM      5  C   UNL     1       2.130   8.722  17.789  0.00  0.00    +0.000 A 
ATOM      6  C   UNL     1       2.715   7.453  17.870  0.00  0.00    +0.000 A 
ENDROOT
BRANCH   4   7
ATOM      7  C   UNL     1       0.649  10.540  18.724  0.00  0.00    +0.000 A 
ATOM      8  C   UNL     1      -0.719  10.543  18.401  0.00  0.00    +0.000 A 
ATOM      9  C   UNL     1      -1.420  11.737  18.189  0.00  0.00    +0.000 A 
ATOM     10  C   UNL     1      -0.771  12.960  18.312  0.00  0.00    +0.000 A 
ATOM     11  C   UNL     1       0.577  12.991  18.647  0.00  0.00    +0.000 A 
ATOM     12  C   UNL     1       1.278  11.796  18.843  0.00  0.00    +0.000 A 
ENDBRANCH   4   7
BRANCH   1  13
ATOM     13  C   UNL     1       3.101   5.267  19.090  0.00  0.00    +0.000 C 
BRANCH  13  18
ATOM     14  O   UNL     1       8.095   4.250  16.965  0.00  0.00    +0.000 OA
ATOM     15  C   UNL     1       6.990   4.544  17.402  0.00  0.00    +0.000 A 
ATOM     16  C   UNL     1       6.834   5.225  18.710  0.00  0.00    +0.000 A 
ATOM     17  C   UNL     1       5.594   5.470  19.148  0.00  0.00    +0.000 A 
ATOM     18  N   UNL     1       4.432   5.140  18.454  0.00  0.00    +0.000 N 
ATOM     19  C   UNL     1       4.578   4.540  17.203  0.00  0.00    +0.000 A 
ATOM     20  C   UNL     1       5.754   4.236  16.644  0.00  0.00    +0.000 A 
ENDBRANCH  13  18
ENDBRANCH   1  13
TORSDOF 3
ENDMDL
