MODEL 1
REMARK VINA RESULT:      -6.7      0.000      0.000
REMARK  Name = 
REMARK  12 active torsions:
REMARK  status: ('A' for Active; 'I' for Inactive)
REMARK    1  A    between atoms: C_1  and  C_2
REMARK    2  A    between atoms: C_2  and  C_3
REMARK    3  A    between atoms: C_3  and  N_4
REMARK    4  A    between atoms: N_4  and  C_5
REMARK    5  A    between atoms: C_5  and  C_6
REMARK    6  A    between atoms: C_6  and  C_7
REMARK    7  A    between atoms: C_8  and  C_10
REMARK    8  A    between atoms: C_10  and  N_11
REMARK    9  A    between atoms: N_14  and  C_15
REMARK   10  A    between atoms: C_19  and  C_20
REMARK   11  A    between atoms: C_28  and  C_29
REMARK   12  A    between atoms: C_30  and  C_31
REMARK                            x       y       z     vdW  Elec       q    Type
REMARK                         _______ _______ _______ _____ _____    ______ ____
ROOT
ATOM      1  N   UNL     1       3.637   6.372  18.380  0.00  0.00    +0.000 N 
ATOM      2  C   UNL     1       4.447   6.214  17.249  0.00  0.00    +0.000 A 
ATOM      3  O   UNL     1       4.960   7.206  16.717  0.00  0.00    +0.000 OA
ATOM      4  N   UNL     1       4.644   4.902  16.761  0.00  0.00    +0.000 N 
ATOM      5  C   UNL     1       4.087   3.738  17.320  0.00  0.00    +0.000 A 
ATOM      6  O   UNL     1       4.190   2.617  16.829  0.00  0.00    +0.000 OA
ATOM      7  C   UNL     1       3.293   3.950  18.518  0.00  0.00    +0.000 A 
ATOM      8  C   UNL     1       2.578   2.988  19.333  0.00  0.00    +0.000 A 
ATOM      9  C   UNL     1       2.496   1.511  19.093  0.00  0.00    +0.000 C 
ATOM     10  C   UNL     1       1.946   3.615  20.398  0.00  0.00    +0.000 A 
ATOM     11  C   UNL     1       1.111   3.021  21.484  0.00  0.00    +0.000 C 
ATOM     12  S   UNL     1       2.208   5.303  20.390  0.00  0.00    +0.000 S 
ATOM     13  C   UNL     1       3.128   5.228  18.974  0.00  0.00    +0.000 A 
ENDROOT
BRANCH   4  14
ATOM     14  C   UNL     1       5.447   4.737  15.579  0.00  0.00    +0.000 A 
ATOM     15  C   UNL     1       6.799   5.114  15.581  0.00  0.00    +0.000 A 
ATOM     16  C   UNL     1       7.590   4.951  14.445  0.00  0.00    +0.000 A 
ATOM     17  C   UNL     1       7.044   4.392  13.293  0.00  0.00    +0.000 A 
ATOM     18  C   UNL     1       5.699   3.991  13.264  0.00  0.00    +0.000 A 
ATOM     19  C   UNL     1       4.909   4.177  14.410  0.00  0.00    +0.000 A 
BRANCH  18  20
ATOM     20  C   UNL     1       5.103   3.345  12.038  0.00  0.00    +0.000 C 
ATOM     21  F   UNL     1       5.559   2.081  11.812  0.00  0.00    +0.000 F 
ATOM     22  F   UNL     1       3.747   3.239  12.118  0.00  0.00    +0.000 F 
ATOM     23  F   UNL     1       5.357   4.041  10.897  0.00  0.00    +0.000 F 
ENDBRANCH  18  20
ENDBRANCH   4  14
BRANCH   1  24
ATOM     24  C   UNL     1       3.453   7.742  18.886  0.00  0.00    +0.000 C 
BRANCH  24  26
ATOM     25  N   UNL     1       1.254   8.957  19.122  0.00  0.00    +0.000 N 
ATOM     26  C   UNL     1       2.234   8.448  18.258  0.00  0.00    +0.000 C 
ATOM     27  O   UNL     1       2.105   8.511  17.032  0.00  0.00    +0.000 OA
BRANCH  25  28
ATOM     28  C   UNL     1       0.074   9.596  18.524  0.00  0.00    +0.000 C 
BRANCH  28  30
ATOM     29  C   UNL     1      -1.468  11.491  19.325  0.00  0.00    +0.000 C 
ATOM     30  C   UNL     1      -0.086  11.094  18.827  0.00  0.00    +0.000 C 
ENDBRANCH  28  30
ENDBRANCH  25  28
BRANCH  25  31
ATOM     31  C   UNL     1       1.429   9.096  20.574  0.00  0.00    +0.000 C 
BRANCH  31  32
ATOM     32  C   UNL     1       0.314   8.465  21.421  0.00  0.00    +0.000 C 
ATOM     33  C   UNL     1      -0.377   9.407  22.393  0.00  0.00    +0.000 C 
ENDBRANCH  31  32
ENDBRANCH  25  31
ENDBRANCH  24  26
ENDBRANCH   1  24
TORSDOF 8
ENDMDL
MODEL 2
REMARK VINA RESULT:      -6.7      3.977      8.112
REMARK  Name = 
REMARK  12 active torsions:
REMARK  status: ('A' for Active; 'I' for Inactive)
REMARK    1  A    between atoms: C_1  and  C_2
REMARK    2  A    between atoms: C_2  and  C_3
REMARK    3  A    between atoms: C_3  and  N_4
REMARK    4  A    between atoms: N_4  and  C_5
REMARK    5  A    between atoms: C_5  and  C_6
REMARK    6  A    between atoms: C_6  and  C_7
REMARK    7  A    between atoms: C_8  and  C_10
REMARK    8  A    between atoms: C_10  and  N_11
REMARK    9  A    between atoms: N_14  and  C_15
REMARK   10  A    between atoms: C_19  and  C_20
REMARK   11  A    between atoms: C_28  and  C_29
REMARK   12  A    between atoms: C_30  and  C_31
REMARK                            x       y       z     vdW  Elec       q    Type
REMARK                         _______ _______ _______ _____ _____    ______ ____
ROOT
ATOM      1  N   UNL     1       3.281   7.050  17.760  0.00  0.00    +0.000 N 
ATOM      2  C   UNL     1       2.517   8.177  18.090  0.00  0.00    +0.000 A 
ATOM      3  O   UNL     1       2.529   9.166  17.349  0.00  0.00    +0.000 OA
ATOM      4  N   UNL     1       1.753   8.125  19.278  0.00  0.00    +0.000 N 
ATOM      5  C   UNL     1       1.701   7.031  20.160  0.00  0.00    +0.000 A 
ATOM      6  O   UNL     1       1.107   7.038  21.237  0.00  0.00    +0.000 OA
ATOM      7  C   UNL     1       2.474   5.872  19.750  0.00  0.00    +0.000 A 
ATOM      8  C   UNL     1       2.648   4.596  20.416  0.00  0.00    +0.000 A 
ATOM      9  C   UNL     1       2.050   4.193  21.730  0.00  0.00    +0.000 C 
ATOM     10  C   UNL     1       3.471   3.759  19.674  0.00  0.00    +0.000 A 
ATOM     11  C   UNL     1       3.913   2.365  19.970  0.00  0.00    +0.000 C 
ATOM     12  S   UNL     1       4.011   4.509  18.237  0.00  0.00    +0.000 S 
ATOM     13  C   UNL     1       3.195   5.945  18.591  0.00  0.00    +0.000 A 
ENDROOT
BRANCH   4  14
ATOM     14  C   UNL     1       0.993   9.290  19.641  0.00  0.00    +0.000 A 
ATOM     15  C   UNL     1       1.374  10.072  20.743  0.00  0.00    +0.000 A 
ATOM     16  C   UNL     1       0.650  11.209  21.099  0.00  0.00    +0.000 A 
ATOM     17  C   UNL     1      -0.456  11.593  20.346  0.00  0.00    +0.000 A 
ATOM     18  C   UNL     1      -0.853  10.841  19.230  0.00  0.00    +0.000 A 
ATOM     19  C   UNL     1      -0.126   9.687  18.893  0.00  0.00    +0.000 A 
BRANCH  18  20
ATOM     20  C   UNL     1      -2.024  11.266  18.379  0.00  0.00    +0.000 C 
ATOM     21  F   UNL     1      -2.600  10.238  17.694  0.00  0.00    +0.000 F 
ATOM     22  F   UNL     1      -3.024  11.823  19.118  0.00  0.00    +0.000 F 
ATOM     23  F   UNL     1      -1.689  12.195  17.443  0.00  0.00    +0.000 F 
ENDBRANCH  18  20
ENDBRANCH   4  14
BRANCH   1  24
ATOM     24  C   UNL     1       4.060   7.112  16.512  0.00  0.00    +0.000 C 
BRANCH  24  26
ATOM     25  N   UNL     1       6.112   5.694  16.129  0.00  0.00    +0.000 N 
ATOM     26  C   UNL     1       5.560   6.833  16.735  0.00  0.00    +0.000 C 
ATOM     27  O   UNL     1       6.235   7.561  17.467  0.00  0.00    +0.000 OA
BRANCH  25  28
ATOM     28  C   UNL     1       7.532   5.406  16.372  0.00  0.00    +0.000 C 
BRANCH  28  30
ATOM     29  C   UNL     1       7.993   5.290  18.898  0.00  0.00    +0.000 C 
ATOM     30  C   UNL     1       7.823   4.523  17.595  0.00  0.00    +0.000 C 
ENDBRANCH  28  30
ENDBRANCH  25  28
BRANCH  25  31
ATOM     31  C   UNL     1       5.432   4.899  15.097  0.00  0.00    +0.000 C 
BRANCH  31  32
ATOM     32  C   UNL     1       6.358   4.311  14.023  0.00  0.00    +0.000 C 
ATOM     33  C   UNL     1       5.653   3.652  12.848  0.00  0.00    +0.000 C 
ENDBRANCH  31  32
ENDBRANCH  25  31
ENDBRANCH  24  26
ENDBRANCH   1  24
TORSDOF 8
ENDMDL
MODEL 3
REMARK VINA RESULT:      -6.5      6.461     11.599
REMARK  Name = 
REMARK  12 active torsions:
REMARK  status: ('A' for Active; 'I' for Inactive)
REMARK    1  A    between atoms: C_1  and  C_2
REMARK    2  A    between atoms: C_2  and  C_3
REMARK    3  A    between atoms: C_3  and  N_4
REMARK    4  A    between atoms: N_4  and  C_5
REMARK    5  A    between atoms: C_5  and  C_6
REMARK    6  A    between atoms: C_6  and  C_7
REMARK    7  A    between atoms: C_8  and  C_10
REMARK    8  A    between atoms: C_10  and  N_11
REMARK    9  A    between atoms: N_14  and  C_15
REMARK   10  A    between atoms: C_19  and  C_20
REMARK   11  A    between atoms: C_28  and  C_29
REMARK   12  A    between atoms: C_30  and  C_31
REMARK                            x       y       z     vdW  Elec       q    Type
REMARK                         _______ _______ _______ _____ _____    ______ ____
ROOT
ATOM      1  N   UNL     1       0.215  11.387  18.844  0.00  0.00    +0.000 N 
ATOM      2  C   UNL     1      -1.066  11.403  19.411  0.00  0.00    +0.000 A 
ATOM      3  O   UNL     1      -1.705  10.351  19.512  0.00  0.00    +0.000 OA
ATOM      4  N   UNL     1      -1.573  12.648  19.849  0.00  0.00    +0.000 N 
ATOM      5  C   UNL     1      -0.894  13.876  19.758  0.00  0.00    +0.000 A 
ATOM      6  O   UNL     1      -1.387  14.962  20.055  0.00  0.00    +0.000 OA
ATOM      7  C   UNL     1       0.447  13.799  19.205  0.00  0.00    +0.000 A 
ATOM      8  C   UNL     1       1.408  14.857  18.966  0.00  0.00    +0.000 A 
ATOM      9  C   UNL     1       1.206  16.317  19.238  0.00  0.00    +0.000 C 
ATOM     10  C   UNL     1       2.581  14.347  18.425  0.00  0.00    +0.000 A 
ATOM     11  C   UNL     1       3.829  15.064  18.030  0.00  0.00    +0.000 C 
ATOM     12  S   UNL     1       2.500  12.654  18.213  0.00  0.00    +0.000 S 
ATOM     13  C   UNL     1       0.917  12.581  18.800  0.00  0.00    +0.000 A 
ENDROOT
BRANCH   4  14
ATOM     14  C   UNL     1      -2.901  12.676  20.399  0.00  0.00    +0.000 A 
ATOM     15  C   UNL     1      -4.020  12.564  19.560  0.00  0.00    +0.000 A 
ATOM     16  C   UNL     1      -5.313  12.581  20.084  0.00  0.00    +0.000 A 
ATOM     17  C   UNL     1      -5.504  12.695  21.458  0.00  0.00    +0.000 A 
ATOM     18  C   UNL     1      -4.405  12.794  22.325  0.00  0.00    +0.000 A 
ATOM     19  C   UNL     1      -3.109  12.793  21.783  0.00  0.00    +0.000 A 
BRANCH  18  20
ATOM     20  C   UNL     1      -4.594  12.876  23.819  0.00  0.00    +0.000 C 
ATOM     21  F   UNL     1      -4.246  14.083  24.347  0.00  0.00    +0.000 F 
ATOM     22  F   UNL     1      -5.889  12.670  24.188  0.00  0.00    +0.000 F 
ATOM     23  F   UNL     1      -3.862  11.949  24.495  0.00  0.00    +0.000 F 
ENDBRANCH  18  20
ENDBRANCH   4  14
BRANCH   1  24
ATOM     24  C   UNL     1       0.737  10.082  18.406  0.00  0.00    +0.000 C 
BRANCH  24  26
ATOM     25  N   UNL     1       1.815   7.975  19.282  0.00  0.00    +0.000 N 
ATOM     26  C   UNL     1       1.260   9.229  19.579  0.00  0.00    +0.000 C 
ATOM     27  O   UNL     1       1.141   9.619  20.744  0.00  0.00    +0.000 OA
BRANCH  25  28
ATOM     28  C   UNL     1       2.279   7.145  20.403  0.00  0.00    +0.000 C 
BRANCH  28  30
ATOM     29  C   UNL     1       2.676   4.606  20.453  0.00  0.00    +0.000 C 
ATOM     30  C   UNL     1       1.662   5.740  20.476  0.00  0.00    +0.000 C 
ENDBRANCH  28  30
ENDBRANCH  25  28
BRANCH  25  31
ATOM     31  C   UNL     1       2.168   7.532  17.927  0.00  0.00    +0.000 C 
BRANCH  31  32
ATOM     32  C   UNL     1       3.676   7.439  17.651  0.00  0.00    +0.000 C 
ATOM     33  C   UNL     1       4.194   6.045  17.336  0.00  0.00    +0.000 C 
ENDBRANCH  31  32
ENDBRANCH  25  31
ENDBRANCH  24  26
ENDBRANCH   1  24
TORSDOF 8
ENDMDL
MODEL 4
REMARK VINA RESULT:      -6.4      1.129      1.768
REMARK  Name = 
REMARK  12 active torsions:
REMARK  status: ('A' for Active; 'I' for Inactive)
REMARK    1  A    between atoms: C_1  and  C_2
REMARK    2  A    between atoms: C_2  and  C_3
REMARK    3  A    between atoms: C_3  and  N_4
REMARK    4  A    between atoms: N_4  and  C_5
REMARK    5  A    between atoms: C_5  and  C_6
REMARK    6  A    between atoms: C_6  and  C_7
REMARK    7  A    between atoms: C_8  and  C_10
REMARK    8  A    between atoms: C_10  and  N_11
REMARK    9  A    between atoms: N_14  and  C_15
REMARK   10  A    between atoms: C_19  and  C_20
REMARK   11  A    between atoms: C_28  and  C_29
REMARK   12  A    between atoms: C_30  and  C_31
REMARK                            x       y       z     vdW  Elec       q    Type
REMARK                         _______ _______ _______ _____ _____    ______ ____
ROOT
ATOM      1  N   UNL     1       3.847   6.662  17.656  0.00  0.00    +0.000 N 
ATOM      2  C   UNL     1       4.540   6.373  16.473  0.00  0.00    +0.000 A 
ATOM      3  O   UNL     1       4.846   7.288  15.701  0.00  0.00    +0.000 OA
ATOM      4  N   UNL     1       4.863   5.021  16.217  0.00  0.00    +0.000 N 
ATOM      5  C   UNL     1       4.540   3.939  17.056  0.00  0.00    +0.000 A 
ATOM      6  O   UNL     1       4.743   2.760  16.773  0.00  0.00    +0.000 OA
ATOM      7  C   UNL     1       3.863   4.296  18.290  0.00  0.00    +0.000 A 
ATOM      8  C   UNL     1       3.386   3.444  19.361  0.00  0.00    +0.000 A 
ATOM      9  C   UNL     1       3.485   1.950  19.416  0.00  0.00    +0.000 C 
ATOM     10  C   UNL     1       2.796   4.198  20.367  0.00  0.00    +0.000 A 
ATOM     11  C   UNL     1       2.179   3.744  21.648  0.00  0.00    +0.000 C 
ATOM     12  S   UNL     1       2.816   5.867  20.007  0.00  0.00    +0.000 S 
ATOM     13  C   UNL     1       3.573   5.613  18.517  0.00  0.00    +0.000 A 
ENDROOT
BRANCH   4  14
ATOM     14  C   UNL     1       5.543   4.713  14.989  0.00  0.00    +0.000 A 
ATOM     15  C   UNL     1       6.919   4.959  14.858  0.00  0.00    +0.000 A 
ATOM     16  C   UNL     1       7.592   4.656  13.675  0.00  0.00    +0.000 A 
ATOM     17  C   UNL     1       6.901   4.086  12.609  0.00  0.00    +0.000 A 
ATOM     18  C   UNL     1       5.528   3.814  12.714  0.00  0.00    +0.000 A 
ATOM     19  C   UNL     1       4.859   4.140  13.905  0.00  0.00    +0.000 A 
BRANCH  18  20
ATOM     20  C   UNL     1       4.774   3.159  11.584  0.00  0.00    +0.000 C 
ATOM     21  F   UNL     1       3.479   2.864  11.893  0.00  0.00    +0.000 F 
ATOM     22  F   UNL     1       4.719   3.947  10.474  0.00  0.00    +0.000 F 
ATOM     23  F   UNL     1       5.337   1.987  11.182  0.00  0.00    +0.000 F 
ENDBRANCH  18  20
ENDBRANCH   4  14
BRANCH   1  24
ATOM     24  C   UNL     1       3.531   8.077  17.917  0.00  0.00    +0.000 C 
BRANCH  24  26
ATOM     25  N   UNL     1       1.591   9.681  18.088  0.00  0.00    +0.000 N 
ATOM     26  C   UNL     1       2.023   8.379  17.799  0.00  0.00    +0.000 C 
ATOM     27  O   UNL     1       1.222   7.485  17.512  0.00  0.00    +0.000 OA
BRANCH  25  28
ATOM     28  C   UNL     1       0.150   9.961  18.013  0.00  0.00    +0.000 C 
BRANCH  28  30
ATOM     29  C   UNL     1       0.126   9.436  20.530  0.00  0.00    +0.000 C 
ATOM     30  C   UNL     1      -0.554  10.143  19.367  0.00  0.00    +0.000 C 
ENDBRANCH  28  30
ENDBRANCH  25  28
BRANCH  25  31
ATOM     31  C   UNL     1       2.491  10.832  18.242  0.00  0.00    +0.000 C 
BRANCH  31  32
ATOM     32  C   UNL     1       1.789  12.197  18.303  0.00  0.00    +0.000 C 
ATOM     33  C   UNL     1       1.968  12.962  19.605  0.00  0.00    +0.000 C 
ENDBRANCH  31  32
ENDBRANCH  25  31
ENDBRANCH  24  26
ENDBRANCH   1  24
TORSDOF 8
ENDMDL
MODEL 5
REMARK VINA RESULT:      -6.4      3.744      6.550
REMARK  Name = 
REMARK  12 active torsions:
REMARK  status: ('A' for Active; 'I' for Inactive)
REMARK    1  A    between atoms: C_1  and  C_2
REMARK    2  A    between atoms: C_2  and  C_3
REMARK    3  A    between atoms: C_3  and  N_4
REMARK    4  A    between atoms: N_4  and  C_5
REMARK    5  A    between atoms: C_5  and  C_6
REMARK    6  A    between atoms: C_6  and  C_7
REMARK    7  A    between atoms: C_8  and  C_10
REMARK    8  A    between atoms: C_10  and  N_11
REMARK    9  A    between atoms: N_14  and  C_15
REMARK   10  A    between atoms: C_19  and  C_20
REMARK   11  A    between atoms: C_28  and  C_29
REMARK   12  A    between atoms: C_30  and  C_31
REMARK                            x       y       z     vdW  Elec       q    Type
REMARK                         _______ _______ _______ _____ _____    ______ ____
ROOT
ATOM      1  N   UNL     1       0.926  10.963  18.872  0.00  0.00    +0.000 N 
ATOM      2  C   UNL     1       1.614   9.828  18.424  0.00  0.00    +0.000 A 
ATOM      3  O   UNL     1       2.121   9.822  17.297  0.00  0.00    +0.000 OA
ATOM      4  N   UNL     1       1.696   8.723  19.302  0.00  0.00    +0.000 N 
ATOM      5  C   UNL     1       1.138   8.671  20.592  0.00  0.00    +0.000 A 
ATOM      6  O   UNL     1       1.136   7.669  21.305  0.00  0.00    +0.000 OA
ATOM      7  C   UNL     1       0.476   9.888  21.026  0.00  0.00    +0.000 A 
ATOM      8  C   UNL     1      -0.203  10.174  22.274  0.00  0.00    +0.000 A 
ATOM      9  C   UNL     1      -0.382   9.228  23.423  0.00  0.00    +0.000 C 
ATOM     10  C   UNL     1      -0.696  11.472  22.284  0.00  0.00    +0.000 A 
ATOM     11  C   UNL     1      -1.449  12.188  23.355  0.00  0.00    +0.000 C 
ATOM     12  S   UNL     1      -0.351  12.293  20.826  0.00  0.00    +0.000 S 
ATOM     13  C   UNL     1       0.421  10.945  20.161  0.00  0.00    +0.000 A 
ENDROOT
BRANCH   4  14
ATOM     14  C   UNL     1       2.370   7.542  18.835  0.00  0.00    +0.000 A 
ATOM     15  C   UNL     1       1.952   6.271  19.259  0.00  0.00    +0.000 A 
ATOM     16  C   UNL     1       2.592   5.118  18.806  0.00  0.00    +0.000 A 
ATOM     17  C   UNL     1       3.651   5.218  17.909  0.00  0.00    +0.000 A 
ATOM     18  C   UNL     1       4.083   6.474  17.455  0.00  0.00    +0.000 A 
ATOM     19  C   UNL     1       3.441   7.628  17.932  0.00  0.00    +0.000 A 
BRANCH  18  20
ATOM     20  C   UNL     1       5.202   6.598  16.450  0.00  0.00    +0.000 C 
ATOM     21  F   UNL     1       5.749   5.402  16.093  0.00  0.00    +0.000 F 
ATOM     22  F   UNL     1       4.789   7.177  15.288  0.00  0.00    +0.000 F 
ATOM     23  F   UNL     1       6.235   7.360  16.901  0.00  0.00    +0.000 F 
ENDBRANCH  18  20
ENDBRANCH   4  14
BRANCH   1  24
ATOM     24  C   UNL     1       0.861  12.112  17.953  0.00  0.00    +0.000 C 
BRANCH  24  26
ATOM     25  N   UNL     1       1.497  14.507  18.428  0.00  0.00    +0.000 N 
ATOM     26  C   UNL     1       1.927  13.182  18.266  0.00  0.00    +0.000 C 
ATOM     27  O   UNL     1       3.124  12.884  18.317  0.00  0.00    +0.000 OA
BRANCH  25  28
ATOM     28  C   UNL     1       2.516  15.534  18.689  0.00  0.00    +0.000 C 
BRANCH  28  30
ATOM     29  C   UNL     1       2.597  17.313  16.835  0.00  0.00    +0.000 C 
ATOM     30  C   UNL     1       3.236  16.074  17.443  0.00  0.00    +0.000 C 
ENDBRANCH  28  30
ENDBRANCH  25  28
BRANCH  25  31
ATOM     31  C   UNL     1       0.091  14.904  18.577  0.00  0.00    +0.000 C 
BRANCH  31  32
ATOM     32  C   UNL     1      -0.125  16.295  19.194  0.00  0.00    +0.000 C 
ATOM     33  C   UNL     1      -0.837  17.297  18.301  0.00  0.00    +0.000 C 
ENDBRANCH  31  32
ENDBRANCH  25  31
ENDBRANCH  24  26
ENDBRANCH   1  24
TORSDOF 8
ENDMDL
MODEL 6
REMARK VINA RESULT:      -6.3      1.118      1.505
REMARK  Name = 
REMARK  12 active torsions:
REMARK  status: ('A' for Active; 'I' for Inactive)
REMARK    1  A    between atoms: C_1  and  C_2
REMARK    2  A    between atoms: C_2  and  C_3
REMARK    3  A    between atoms: C_3  and  N_4
REMARK    4  A    between atoms: N_4  and  C_5
REMARK    5  A    between atoms: C_5  and  C_6
REMARK    6  A    between atoms: C_6  and  C_7
REMARK    7  A    between atoms: C_8  and  C_10
REMARK    8  A    between atoms: C_10  and  N_11
REMARK    9  A    between atoms: N_14  and  C_15
REMARK   10  A    between atoms: C_19  and  C_20
REMARK   11  A    between atoms: C_28  and  C_29
REMARK   12  A    between atoms: C_30  and  C_31
REMARK                            x       y       z     vdW  Elec       q    Type
REMARK                         _______ _______ _______ _____ _____    ______ ____
ROOT
ATOM      1  N   UNL     1       3.386   6.447  18.229  0.00  0.00    +0.000 N 
ATOM      2  C   UNL     1       4.248   6.304  17.134  0.00  0.00    +0.000 A 
ATOM      3  O   UNL     1       4.629   7.304  16.517  0.00  0.00    +0.000 OA
ATOM      4  N   UNL     1       4.647   4.994  16.782  0.00  0.00    +0.000 N 
ATOM      5  C   UNL     1       4.245   3.820  17.443  0.00  0.00    +0.000 A 
ATOM      6  O   UNL     1       4.525   2.684  17.066  0.00  0.00    +0.000 OA
ATOM      7  C   UNL     1       3.390   4.026  18.598  0.00  0.00    +0.000 A 
ATOM      8  C   UNL     1       2.795   3.051  19.491  0.00  0.00    +0.000 A 
ATOM      9  C   UNL     1       2.934   1.562  19.397  0.00  0.00    +0.000 C 
ATOM     10  C   UNL     1       2.044   3.677  20.477  0.00  0.00    +0.000 A 
ATOM     11  C   UNL     1       1.269   3.072  21.600  0.00  0.00    +0.000 C 
ATOM     12  S   UNL     1       2.061   5.377  20.307  0.00  0.00    +0.000 S 
ATOM     13  C   UNL     1       3.028   5.303  18.923  0.00  0.00    +0.000 A 
ENDROOT
BRANCH   4  14
ATOM     14  C   UNL     1       5.504   4.837  15.638  0.00  0.00    +0.000 A 
ATOM     15  C   UNL     1       6.843   5.254  15.691  0.00  0.00    +0.000 A 
ATOM     16  C   UNL     1       7.686   5.099  14.591  0.00  0.00    +0.000 A 
ATOM     17  C   UNL     1       7.206   4.508  13.425  0.00  0.00    +0.000 A 
ATOM     18  C   UNL     1       5.876   4.068  13.346  0.00  0.00    +0.000 A 
ATOM     19  C   UNL     1       5.032   4.246  14.455  0.00  0.00    +0.000 A 
BRANCH  18  20
ATOM     20  C   UNL     1       5.351   3.388  12.106  0.00  0.00    +0.000 C 
ATOM     21  F   UNL     1       5.678   2.067  12.029  0.00  0.00    +0.000 F 
ATOM     22  F   UNL     1       3.992   3.438  12.026  0.00  0.00    +0.000 F 
ATOM     23  F   UNL     1       5.814   3.953  10.957  0.00  0.00    +0.000 F 
ENDBRANCH  18  20
ENDBRANCH   4  14
BRANCH   1  24
ATOM     24  C   UNL     1       2.990   7.818  18.594  0.00  0.00    +0.000 C 
BRANCH  24  26
ATOM     25  N   UNL     1       1.115   9.485  18.325  0.00  0.00    +0.000 N 
ATOM     26  C   UNL     1       1.621   8.215  18.007  0.00  0.00    +0.000 C 
ATOM     27  O   UNL     1       0.972   7.418  17.324  0.00  0.00    +0.000 OA
BRANCH  25  28
ATOM     28  C   UNL     1      -0.207   9.850  17.797  0.00  0.00    +0.000 C 
BRANCH  28  30
ATOM     29  C   UNL     1      -1.710  11.805  18.525  0.00  0.00    +0.000 C 
ATOM     30  C   UNL     1      -1.196  10.406  18.833  0.00  0.00    +0.000 C 
ENDBRANCH  28  30
ENDBRANCH  25  28
BRANCH  25  31
ATOM     31  C   UNL     1       1.903  10.550  18.958  0.00  0.00    +0.000 C 
BRANCH  31  32
ATOM     32  C   UNL     1       2.345  11.675  18.010  0.00  0.00    +0.000 C 
ATOM     33  C   UNL     1       1.857  13.066  18.380  0.00  0.00    +0.000 C 
ENDBRANCH  31  32
ENDBRANCH  25  31
ENDBRANCH  24  26
ENDBRANCH   1  24
TORSDOF 8
ENDMDL
MODEL 7
REMARK VINA RESULT:      -6.3      5.788     11.022
REMARK  Name = 
REMARK  12 active torsions:
REMARK  status: ('A' for Active; 'I' for Inactive)
REMARK    1  A    between atoms: C_1  and  C_2
REMARK    2  A    between atoms: C_2  and  C_3
REMARK    3  A    between atoms: C_3  and  N_4
REMARK    4  A    between atoms: N_4  and  C_5
REMARK    5  A    between atoms: C_5  and  C_6
REMARK    6  A    between atoms: C_6  and  C_7
REMARK    7  A    between atoms: C_8  and  C_10
REMARK    8  A    between atoms: C_10  and  N_11
REMARK    9  A    between atoms: N_14  and  C_15
REMARK   10  A    between atoms: C_19  and  C_20
REMARK   11  A    between atoms: C_28  and  C_29
REMARK   12  A    between atoms: C_30  and  C_31
REMARK                            x       y       z     vdW  Elec       q    Type
REMARK                         _______ _______ _______ _____ _____    ______ ____
ROOT
ATOM      1  N   UNL     1       0.161  11.333  18.665  0.00  0.00    +0.000 N 
ATOM      2  C   UNL     1      -1.176  11.273  19.077  0.00  0.00    +0.000 A 
ATOM      3  O   UNL     1      -1.776  10.192  19.062  0.00  0.00    +0.000 OA
ATOM      4  N   UNL     1      -1.786  12.476  19.501  0.00  0.00    +0.000 N 
ATOM      5  C   UNL     1      -1.155  13.733  19.539  0.00  0.00    +0.000 A 
ATOM      6  O   UNL     1      -1.727  14.784  19.820  0.00  0.00    +0.000 OA
ATOM      7  C   UNL     1       0.242  13.733  19.146  0.00  0.00    +0.000 A 
ATOM      8  C   UNL     1       1.177  14.837  19.063  0.00  0.00    +0.000 A 
ATOM      9  C   UNL     1       0.880  16.275  19.367  0.00  0.00    +0.000 C 
ATOM     10  C   UNL     1       2.426  14.398  18.644  0.00  0.00    +0.000 A 
ATOM     11  C   UNL     1       3.678  15.181  18.427  0.00  0.00    +0.000 C 
ATOM     12  S   UNL     1       2.445  12.715  18.357  0.00  0.00    +0.000 S 
ATOM     13  C   UNL     1       0.809  12.553  18.751  0.00  0.00    +0.000 A 
ENDROOT
BRANCH   4  14
ATOM     14  C   UNL     1      -3.168  12.428  19.893  0.00  0.00    +0.000 A 
ATOM     15  C   UNL     1      -3.540  12.700  21.219  0.00  0.00    +0.000 A 
ATOM     16  C   UNL     1      -4.878  12.665  21.609  0.00  0.00    +0.000 A 
ATOM     17  C   UNL     1      -5.868  12.374  20.674  0.00  0.00    +0.000 A 
ATOM     18  C   UNL     1      -5.529  12.111  19.337  0.00  0.00    +0.000 A 
ATOM     19  C   UNL     1      -4.175  12.132  18.961  0.00  0.00    +0.000 A 
BRANCH  18  20
ATOM     20  C   UNL     1      -6.591  11.834  18.303  0.00  0.00    +0.000 C 
ATOM     21  F   UNL     1      -7.018  10.540  18.294  0.00  0.00    +0.000 F 
ATOM     22  F   UNL     1      -7.708  12.591  18.494  0.00  0.00    +0.000 F 
ATOM     23  F   UNL     1      -6.174  12.097  17.034  0.00  0.00    +0.000 F 
ENDBRANCH  18  20
ENDBRANCH   4  14
BRANCH   1  24
ATOM     24  C   UNL     1       0.788  10.069  18.240  0.00  0.00    +0.000 C 
BRANCH  24  26
ATOM     25  N   UNL     1       1.883   7.987  19.152  0.00  0.00    +0.000 N 
ATOM     26  C   UNL     1       1.302   9.234  19.429  0.00  0.00    +0.000 C 
ATOM     27  O   UNL     1       1.156   9.631  20.589  0.00  0.00    +0.000 OA
BRANCH  25  28
ATOM     28  C   UNL     1       2.339   7.173  20.288  0.00  0.00    +0.000 C 
BRANCH  28  30
ATOM     29  C   UNL     1       2.488   4.637  20.683  0.00  0.00    +0.000 C 
ATOM     30  C   UNL     1       1.588   5.848  20.488  0.00  0.00    +0.000 C 
ENDBRANCH  28  30
ENDBRANCH  25  28
BRANCH  25  31
ATOM     31  C   UNL     1       2.267   7.539  17.807  0.00  0.00    +0.000 C 
BRANCH  31  32
ATOM     32  C   UNL     1       3.770   7.289  17.616  0.00  0.00    +0.000 C 
ATOM     33  C   UNL     1       4.149   5.866  17.238  0.00  0.00    +0.000 C 
ENDBRANCH  31  32
ENDBRANCH  25  31
ENDBRANCH  24  26
ENDBRANCH   1  24
TORSDOF 8
ENDMDL
MODEL 8
REMARK VINA RESULT:      -6.3      7.722     11.632
REMARK  Name = 
REMARK  12 active torsions:
REMARK  status: ('A' for Active; 'I' for Inactive)
REMARK    1  A    between atoms: C_1  and  C_2
REMARK    2  A    between atoms: C_2  and  C_3
REMARK    3  A    between atoms: C_3  and  N_4
REMARK    4  A    between atoms: N_4  and  C_5
REMARK    5  A    between atoms: C_5  and  C_6
REMARK    6  A    between atoms: C_6  and  C_7
REMARK    7  A    between atoms: C_8  and  C_10
REMARK    8  A    between atoms: C_10  and  N_11
REMARK    9  A    between atoms: N_14  and  C_15
REMARK   10  A    between atoms: C_19  and  C_20
REMARK   11  A    between atoms: C_28  and  C_29
REMARK   12  A    between atoms: C_30  and  C_31
REMARK                            x       y       z     vdW  Elec       q    Type
REMARK                         _______ _______ _______ _____ _____    ______ ____
ROOT
ATOM      1  N   UNL     1       0.247  12.852  19.579  0.00  0.00    +0.000 N 
ATOM      2  C   UNL     1      -0.573  13.403  20.572  0.00  0.00    +0.000 A 
ATOM      3  O   UNL     1      -0.904  14.592  20.505  0.00  0.00    +0.000 OA
ATOM      4  N   UNL     1      -0.990  12.555  21.623  0.00  0.00    +0.000 N 
ATOM      5  C   UNL     1      -0.644  11.198  21.754  0.00  0.00    +0.000 A 
ATOM      6  O   UNL     1      -0.936  10.500  22.723  0.00  0.00    +0.000 OA
ATOM      7  C   UNL     1       0.168  10.663  20.676  0.00  0.00    +0.000 A 
ATOM      8  C   UNL     1       0.702   9.327  20.499  0.00  0.00    +0.000 A 
ATOM      9  C   UNL     1       0.530   8.172  21.438  0.00  0.00    +0.000 C 
ATOM     10  C   UNL     1       1.427   9.237  19.318  0.00  0.00    +0.000 A 
ATOM     11  C   UNL     1       2.141   8.062  18.736  0.00  0.00    +0.000 C 
ATOM     12  S   UNL     1       1.460  10.722  18.476  0.00  0.00    +0.000 S 
ATOM     13  C   UNL     1       0.548  11.503  19.666  0.00  0.00    +0.000 A 
ENDROOT
BRANCH   4  14
ATOM     14  C   UNL     1      -1.802  13.124  22.664  0.00  0.00    +0.000 A 
ATOM     15  C   UNL     1      -1.243  14.010  23.597  0.00  0.00    +0.000 A 
ATOM     16  C   UNL     1      -2.023  14.575  24.606  0.00  0.00    +0.000 A 
ATOM     17  C   UNL     1      -3.380  14.274  24.686  0.00  0.00    +0.000 A 
ATOM     18  C   UNL     1      -3.972  13.403  23.758  0.00  0.00    +0.000 A 
ATOM     19  C   UNL     1      -3.171  12.827  22.758  0.00  0.00    +0.000 A 
BRANCH  18  20
ATOM     20  C   UNL     1      -5.449  13.099  23.805  0.00  0.00    +0.000 C 
ATOM     21  F   UNL     1      -5.941  12.609  22.633  0.00  0.00    +0.000 F 
ATOM     22  F   UNL     1      -5.754  12.168  24.752  0.00  0.00    +0.000 F 
ATOM     23  F   UNL     1      -6.205  14.192  24.099  0.00  0.00    +0.000 F 
ENDBRANCH  18  20
ENDBRANCH   4  14
BRANCH   1  24
ATOM     24  C   UNL     1       0.662  13.742  18.482  0.00  0.00    +0.000 C 
BRANCH  24  26
ATOM     25  N   UNL     1       1.974  15.892  18.630  0.00  0.00    +0.000 N 
ATOM     26  C   UNL     1       1.968  14.499  18.795  0.00  0.00    +0.000 C 
ATOM     27  O   UNL     1       2.987  13.887  19.126  0.00  0.00    +0.000 OA
BRANCH  25  28
ATOM     28  C   UNL     1       3.229  16.610  18.891  0.00  0.00    +0.000 C 
BRANCH  28  30
ATOM     29  C   UNL     1       3.160  18.317  20.812  0.00  0.00    +0.000 C 
ATOM     30  C   UNL     1       3.520  16.907  20.370  0.00  0.00    +0.000 C 
ENDBRANCH  28  30
ENDBRANCH  25  28
BRANCH  25  31
ATOM     31  C   UNL     1       0.765  16.703  18.434  0.00  0.00    +0.000 C 
BRANCH  31  32
ATOM     32  C   UNL     1       0.995  18.040  17.714  0.00  0.00    +0.000 C 
ATOM     33  C   UNL     1      -0.047  18.404  16.669  0.00  0.00    +0.000 C 
ENDBRANCH  31  32
ENDBRANCH  25  31
ENDBRANCH  24  26
ENDBRANCH   1  24
TORSDOF 8
ENDMDL
MODEL 9
REMARK VINA RESULT:      -6.2      6.632     11.334
REMARK  Name = 
REMARK  12 active torsions:
REMARK  status: ('A' for Active; 'I' for Inactive)
REMARK    1  A    between atoms: C_1  and  C_2
REMARK    2  A    between atoms: C_2  and  C_3
REMARK    3  A    between atoms: C_3  and  N_4
REMARK    4  A    between atoms: N_4  and  C_5
REMARK    5  A    between atoms: C_5  and  C_6
REMARK    6  A    between atoms: C_6  and  C_7
REMARK    7  A    between atoms: C_8  and  C_10
REMARK    8  A    between atoms: C_10  and  N_11
REMARK    9  A    between atoms: N_14  and  C_15
REMARK   10  A    between atoms: C_19  and  C_20
REMARK   11  A    between atoms: C_28  and  C_29
REMARK   12  A    between atoms: C_30  and  C_31
REMARK                            x       y       z     vdW  Elec       q    Type
REMARK                         _______ _______ _______ _____ _____    ______ ____
ROOT
ATOM      1  N   UNL     1       0.211  10.640  19.686  0.00  0.00    +0.000 N 
ATOM      2  C   UNL     1       0.155  11.579  20.724  0.00  0.00    +0.000 A 
ATOM      3  O   UNL     1       1.093  11.668  21.523  0.00  0.00    +0.000 OA
ATOM      4  N   UNL     1      -0.995  12.397  20.806  0.00  0.00    +0.000 N 
ATOM      5  C   UNL     1      -2.093  12.341  19.929  0.00  0.00    +0.000 A 
ATOM      6  O   UNL     1      -3.125  12.993  20.070  0.00  0.00    +0.000 OA
ATOM      7  C   UNL     1      -1.966  11.384  18.844  0.00  0.00    +0.000 A 
ATOM      8  C   UNL     1      -2.898  11.065  17.781  0.00  0.00    +0.000 A 
ATOM      9  C   UNL     1      -4.252  11.675  17.577  0.00  0.00    +0.000 C 
ATOM     10  C   UNL     1      -2.379  10.085  16.945  0.00  0.00    +0.000 A 
ATOM     11  C   UNL     1      -2.985   9.462  15.731  0.00  0.00    +0.000 C 
ATOM     12  S   UNL     1      -0.829   9.575  17.449  0.00  0.00    +0.000 S 
ATOM     13  C   UNL     1      -0.838  10.613  18.782  0.00  0.00    +0.000 A 
ENDROOT
BRANCH   4  14
ATOM     14  C   UNL     1      -1.074  13.340  21.889  0.00  0.00    +0.000 A 
ATOM     15  C   UNL     1      -0.136  14.379  21.995  0.00  0.00    +0.000 A 
ATOM     16  C   UNL     1      -0.208  15.305  23.036  0.00  0.00    +0.000 A 
ATOM     17  C   UNL     1      -1.229  15.214  23.978  0.00  0.00    +0.000 A 
ATOM     18  C   UNL     1      -2.190  14.195  23.890  0.00  0.00    +0.000 A 
ATOM     19  C   UNL     1      -2.096  13.259  22.847  0.00  0.00    +0.000 A 
BRANCH  18  20
ATOM     20  C   UNL     1      -3.327  14.107  24.878  0.00  0.00    +0.000 C 
ATOM     21  F   UNL     1      -4.403  14.872  24.539  0.00  0.00    +0.000 F 
ATOM     22  F   UNL     1      -3.802  12.836  25.006  0.00  0.00    +0.000 F 
ATOM     23  F   UNL     1      -2.971  14.501  26.131  0.00  0.00    +0.000 F 
ENDBRANCH  18  20
ENDBRANCH   4  14
BRANCH   1  24
ATOM     24  C   UNL     1       1.421   9.805  19.604  0.00  0.00    +0.000 C 
BRANCH  24  26
ATOM     25  N   UNL     1       1.816   7.337  19.953  0.00  0.00    +0.000 N 
ATOM     26  C   UNL     1       1.331   8.542  20.483  0.00  0.00    +0.000 C 
ATOM     27  O   UNL     1       0.799   8.585  21.597  0.00  0.00    +0.000 OA
BRANCH  25  28
ATOM     28  C   UNL     1       1.696   6.125  20.775  0.00  0.00    +0.000 C 
BRANCH  28  30
ATOM     29  C   UNL     1       1.269   3.599  20.568  0.00  0.00    +0.000 C 
ATOM     30  C   UNL     1       0.840   5.003  20.169  0.00  0.00    +0.000 C 
ENDBRANCH  28  30
ENDBRANCH  25  28
BRANCH  25  31
ATOM     31  C   UNL     1       2.630   7.244  18.734  0.00  0.00    +0.000 C 
BRANCH  31  32
ATOM     32  C   UNL     1       3.697   6.139  18.754  0.00  0.00    +0.000 C 
ATOM     33  C   UNL     1       3.609   5.130  17.621  0.00  0.00    +0.000 C 
ENDBRANCH  31  32
ENDBRANCH  25  31
ENDBRANCH  24  26
ENDBRANCH   1  24
TORSDOF 8
ENDMDL
