MODEL 1
REMARK VINA RESULT:      -7.8      0.000      0.000
REMARK  Name = 
REMARK  7 active torsions:
REMARK  status: ('A' for Active; 'I' for Inactive)
REMARK    1  A    between atoms: N_1  and  C_2
REMARK    2  A    between atoms: C_2  and  C_3
REMARK    3  A    between atoms: C_2  and  C_24
REMARK    4  A    between atoms: C_3  and  N_4
REMARK    5  A    between atoms: N_4  and  C_5
REMARK    6  A    between atoms: C_7  and  C_8
REMARK    7  A    between atoms: C_24  and  C_25
REMARK                            x       y       z     vdW  Elec       q    Type
REMARK                         _______ _______ _______ _____ _____    ______ ____
ROOT
ATOM      1  C   UNL     1       2.892   6.276  20.004  0.00  0.00    +0.000 A 
ATOM      2  N   UNL     1       3.873   5.829  19.179  0.00  0.00    +0.000 NA
ATOM      3  C   UNL     1       4.179   6.446  18.035  0.00  0.00    +0.000 A 
ATOM      4  N   UNL     1       3.580   7.541  17.584  0.00  0.00    +0.000 NA
ATOM      5  C   UNL     1       2.638   8.010  18.416  0.00  0.00    +0.000 A 
ATOM      6  S   UNL     1       1.805   9.425  17.976  0.00  0.00    +0.000 S 
ATOM      7  C   UNL     1       0.918   9.414  19.414  0.00  0.00    +0.000 A 
ATOM      8  C   UNL     1       1.199   8.322  20.224  0.00  0.00    +0.000 A 
ATOM      9  C   UNL     1       2.227   7.473  19.637  0.00  0.00    +0.000 A 
ATOM     10  C   UNL     1       0.522   8.172  21.565  0.00  0.00    +0.000 C 
ATOM     11  C   UNL     1      -0.628   9.183  21.779  0.00  0.00    +0.000 C 
ATOM     12  C   UNL     1      -0.315  10.576  21.219  0.00  0.00    +0.000 C 
ATOM     13  C   UNL     1      -0.059  10.507  19.713  0.00  0.00    +0.000 C 
ENDROOT
BRANCH   3  14
ATOM     14  C   UNL     1       5.233   5.818  17.218  0.00  0.00    +0.000 A 
ATOM     15  C   UNL     1       5.244   5.939  15.818  0.00  0.00    +0.000 A 
ATOM     16  C   UNL     1       6.255   5.341  15.084  0.00  0.00    +0.000 A 
ATOM     17  N   UNL     1       7.259   4.634  15.636  0.00  0.00    +0.000 NA
ATOM     18  C   UNL     1       7.242   4.516  16.980  0.00  0.00    +0.000 A 
ATOM     19  C   UNL     1       6.272   5.078  17.793  0.00  0.00    +0.000 A 
ENDBRANCH   3  14
BRANCH   1  20
ATOM     20  N   UNL     1       2.646   5.473  21.137  0.00  0.00    +0.000 N 
ATOM     21  H   UNL     1       2.619   5.972  22.017  0.00  0.00    +0.000 HD
BRANCH  20  22
ATOM     22  C   UNL     1       1.468   4.610  20.908  0.00  0.00    +0.000 C 
BRANCH  22  23
ATOM     23  C   UNL     1       1.702   3.107  21.166  0.00  0.00    +0.000 C 
BRANCH  23  24
ATOM     24  N   UNL     1       0.938   2.644  22.345  0.00  0.00    +0.000 NA
ATOM     25  H   UNL     1       0.818   1.633  22.277  0.00  0.00    +0.000 HD
ATOM     26  H   UNL     1       0.000   3.041  22.323  0.00  0.00    +0.000 HD
ENDBRANCH  23  24
BRANCH  23  27
ATOM     27  C   UNL     1       1.300   2.298  19.895  0.00  0.00    +0.000 C 
BRANCH  27  28
ATOM     28  C   UNL     1       2.270   2.399  18.736  0.00  0.00    +0.000 A 
ATOM     29  C   UNL     1       3.428   1.604  18.680  0.00  0.00    +0.000 A 
ATOM     30  C   UNL     1       4.292   1.679  17.580  0.00  0.00    +0.000 A 
ATOM     31  C   UNL     1       4.014   2.549  16.526  0.00  0.00    +0.000 A 
ATOM     32  C   UNL     1       2.878   3.356  16.581  0.00  0.00    +0.000 A 
ATOM     33  C   UNL     1       2.022   3.282  17.680  0.00  0.00    +0.000 A 
ATOM     34  F   UNL     1       0.943   4.073  17.711  0.00  0.00    +0.000 F 
ENDBRANCH  27  28
ENDBRANCH  23  27
ENDBRANCH  22  23
ENDBRANCH  20  22
ENDBRANCH   1  20
TORSDOF 7
ENDMDL
MODEL 2
REMARK VINA RESULT:      -7.6      2.744      6.170
REMARK  Name = 
REMARK  7 active torsions:
REMARK  status: ('A' for Active; 'I' for Inactive)
REMARK    1  A    between atoms: N_1  and  C_2
REMARK    2  A    between atoms: C_2  and  C_3
REMARK    3  A    between atoms: C_2  and  C_24
REMARK    4  A    between atoms: C_3  and  N_4
REMARK    5  A    between atoms: N_4  and  C_5
REMARK    6  A    between atoms: C_7  and  C_8
REMARK    7  A    between atoms: C_24  and  C_25
REMARK                            x       y       z     vdW  Elec       q    Type
REMARK                         _______ _______ _______ _____ _____    ______ ____
ROOT
ATOM      1  C   UNL     1       4.357   5.952  17.188  0.00  0.00    +0.000 A 
ATOM      2  N   UNL     1       5.036   5.765  16.028  0.00  0.00    +0.000 NA
ATOM      3  C   UNL     1       5.293   4.549  15.541  0.00  0.00    +0.000 A 
ATOM      4  N   UNL     1       4.923   3.411  16.113  0.00  0.00    +0.000 NA
ATOM      5  C   UNL     1       4.215   3.592  17.239  0.00  0.00    +0.000 A 
ATOM      6  S   UNL     1       3.653   2.218  18.067  0.00  0.00    +0.000 S 
ATOM      7  C   UNL     1       2.876   3.168  19.227  0.00  0.00    +0.000 A 
ATOM      8  C   UNL     1       3.068   4.531  19.038  0.00  0.00    +0.000 A 
ATOM      9  C   UNL     1       3.869   4.797  17.851  0.00  0.00    +0.000 A 
ATOM     10  C   UNL     1       2.415   5.529  19.964  0.00  0.00    +0.000 C 
ATOM     11  C   UNL     1       1.770   4.871  21.205  0.00  0.00    +0.000 C 
ATOM     12  C   UNL     1       1.079   3.539  20.888  0.00  0.00    +0.000 C 
ATOM     13  C   UNL     1       2.081   2.532  20.324  0.00  0.00    +0.000 C 
ENDROOT
BRANCH   3  14
ATOM     14  C   UNL     1       6.084   4.500  14.296  0.00  0.00    +0.000 A 
ATOM     15  C   UNL     1       5.739   3.636  13.244  0.00  0.00    +0.000 A 
ATOM     16  C   UNL     1       6.501   3.622  12.088  0.00  0.00    +0.000 A 
ATOM     17  N   UNL     1       7.578   4.407  11.896  0.00  0.00    +0.000 NA
ATOM     18  C   UNL     1       7.909   5.232  12.911  0.00  0.00    +0.000 A 
ATOM     19  C   UNL     1       7.207   5.311  14.102  0.00  0.00    +0.000 A 
ENDBRANCH   3  14
BRANCH   1  20
ATOM     20  N   UNL     1       4.228   7.294  17.602  0.00  0.00    +0.000 N 
ATOM     21  H   UNL     1       4.979   7.906  17.308  0.00  0.00    +0.000 HD
BRANCH  20  22
ATOM     22  C   UNL     1       2.881   7.806  17.273  0.00  0.00    +0.000 C 
BRANCH  22  23
ATOM     23  C   UNL     1       2.371   8.932  18.194  0.00  0.00    +0.000 C 
BRANCH  23  24
ATOM     24  N   UNL     1       2.354  10.232  17.487  0.00  0.00    +0.000 NA
ATOM     25  H   UNL     1       1.384  10.525  17.370  0.00  0.00    +0.000 HD
ATOM     26  H   UNL     1       2.729  10.115  16.547  0.00  0.00    +0.000 HD
ENDBRANCH  23  24
BRANCH  23  27
ATOM     27  C   UNL     1       0.945   8.568  18.712  0.00  0.00    +0.000 C 
BRANCH  27  28
ATOM     28  C   UNL     1       0.571   9.180  20.045  0.00  0.00    +0.000 A 
ATOM     29  C   UNL     1       1.062   8.657  21.255  0.00  0.00    +0.000 A 
ATOM     30  C   UNL     1       0.741   9.262  22.477  0.00  0.00    +0.000 A 
ATOM     31  C   UNL     1      -0.076  10.392  22.508  0.00  0.00    +0.000 A 
ATOM     32  C   UNL     1      -0.584  10.908  21.316  0.00  0.00    +0.000 A 
ATOM     33  C   UNL     1      -0.266  10.300  20.101  0.00  0.00    +0.000 A 
ATOM     34  F   UNL     1      -0.774  10.810  18.973  0.00  0.00    +0.000 F 
ENDBRANCH  27  28
ENDBRANCH  23  27
ENDBRANCH  22  23
ENDBRANCH  20  22
ENDBRANCH   1  20
TORSDOF 7
ENDMDL
MODEL 3
REMARK VINA RESULT:      -7.6      0.873      1.479
REMARK  Name = 
REMARK  7 active torsions:
REMARK  status: ('A' for Active; 'I' for Inactive)
REMARK    1  A    between atoms: N_1  and  C_2
REMARK    2  A    between atoms: C_2  and  C_3
REMARK    3  A    between atoms: C_2  and  C_24
REMARK    4  A    between atoms: C_3  and  N_4
REMARK    5  A    between atoms: N_4  and  C_5
REMARK    6  A    between atoms: C_7  and  C_8
REMARK    7  A    between atoms: C_24  and  C_25
REMARK                            x       y       z     vdW  Elec       q    Type
REMARK                         _______ _______ _______ _____ _____    ______ ____
ROOT
ATOM      1  C   UNL     1       2.938   6.234  19.996  0.00  0.00    +0.000 A 
ATOM      2  N   UNL     1       3.921   5.807  19.162  0.00  0.00    +0.000 NA
ATOM      3  C   UNL     1       4.212   6.437  18.022  0.00  0.00    +0.000 A 
ATOM      4  N   UNL     1       3.597   7.527  17.582  0.00  0.00    +0.000 NA
ATOM      5  C   UNL     1       2.653   7.977  18.423  0.00  0.00    +0.000 A 
ATOM      6  S   UNL     1       1.800   9.384  17.998  0.00  0.00    +0.000 S 
ATOM      7  C   UNL     1       0.920   9.351  19.440  0.00  0.00    +0.000 A 
ATOM      8  C   UNL     1       1.220   8.256  20.240  0.00  0.00    +0.000 A 
ATOM      9  C   UNL     1       2.256   7.425  19.642  0.00  0.00    +0.000 A 
ATOM     10  C   UNL     1       0.552   8.087  21.583  0.00  0.00    +0.000 C 
ATOM     11  C   UNL     1      -0.610   9.081  21.811  0.00  0.00    +0.000 C 
ATOM     12  C   UNL     1      -0.318  10.483  21.260  0.00  0.00    +0.000 C 
ATOM     13  C   UNL     1      -0.070  10.428  19.753  0.00  0.00    +0.000 C 
ENDROOT
BRANCH   3  14
ATOM     14  C   UNL     1       5.271   5.829  17.194  0.00  0.00    +0.000 A 
ATOM     15  C   UNL     1       6.334   5.116  17.774  0.00  0.00    +0.000 A 
ATOM     16  C   UNL     1       7.307   4.554  16.964  0.00  0.00    +0.000 A 
ATOM     17  N   UNL     1       7.301   4.642  15.620  0.00  0.00    +0.000 NA
ATOM     18  C   UNL     1       6.281   5.332  15.069  0.00  0.00    +0.000 A 
ATOM     19  C   UNL     1       5.268   5.929  15.799  0.00  0.00    +0.000 A 
ENDBRANCH   3  14
BRANCH   1  20
ATOM     20  N   UNL     1       2.708   5.419  21.123  0.00  0.00    +0.000 N 
ATOM     21  H   UNL     1       2.627   5.917  22.001  0.00  0.00    +0.000 HD
BRANCH  20  22
ATOM     22  C   UNL     1       1.591   4.487  20.864  0.00  0.00    +0.000 C 
BRANCH  22  23
ATOM     23  C   UNL     1       1.850   3.028  21.291  0.00  0.00    +0.000 C 
BRANCH  23  24
ATOM     24  N   UNL     1       1.042   2.669  22.477  0.00  0.00    +0.000 NA
ATOM     25  H   UNL     1       0.732   1.701  22.378  0.00  0.00    +0.000 HD
ATOM     26  H   UNL     1       0.195   3.235  22.499  0.00  0.00    +0.000 HD
ENDBRANCH  23  24
BRANCH  23  27
ATOM     27  C   UNL     1       1.529   2.077  20.097  0.00  0.00    +0.000 C 
BRANCH  27  28
ATOM     28  C   UNL     1       2.216   2.428  18.794  0.00  0.00    +0.000 A 
ATOM     29  C   UNL     1       1.607   3.272  17.849  0.00  0.00    +0.000 A 
ATOM     30  C   UNL     1       2.276   3.622  16.669  0.00  0.00    +0.000 A 
ATOM     31  C   UNL     1       3.556   3.130  16.414  0.00  0.00    +0.000 A 
ATOM     32  C   UNL     1       4.161   2.276  17.336  0.00  0.00    +0.000 A 
ATOM     33  C   UNL     1       3.491   1.927  18.508  0.00  0.00    +0.000 A 
ATOM     34  F   UNL     1       4.091   1.099  19.372  0.00  0.00    +0.000 F 
ENDBRANCH  27  28
ENDBRANCH  23  27
ENDBRANCH  22  23
ENDBRANCH  20  22
ENDBRANCH   1  20
TORSDOF 7
ENDMDL
MODEL 4
REMARK VINA RESULT:      -7.5      2.630      6.298
REMARK  Name = 
REMARK  7 active torsions:
REMARK  status: ('A' for Active; 'I' for Inactive)
REMARK    1  A    between atoms: N_1  and  C_2
REMARK    2  A    between atoms: C_2  and  C_3
REMARK    3  A    between atoms: C_2  and  C_24
REMARK    4  A    between atoms: C_3  and  N_4
REMARK    5  A    between atoms: N_4  and  C_5
REMARK    6  A    between atoms: C_7  and  C_8
REMARK    7  A    between atoms: C_24  and  C_25
REMARK                            x       y       z     vdW  Elec       q    Type
REMARK                         _______ _______ _______ _____ _____    ______ ____
ROOT
ATOM      1  C   UNL     1       4.321   5.921  17.216  0.00  0.00    +0.000 A 
ATOM      2  N   UNL     1       5.007   5.748  16.058  0.00  0.00    +0.000 NA
ATOM      3  C   UNL     1       5.278   4.538  15.563  0.00  0.00    +0.000 A 
ATOM      4  N   UNL     1       4.916   3.393  16.126  0.00  0.00    +0.000 NA
ATOM      5  C   UNL     1       4.201   3.559  17.250  0.00  0.00    +0.000 A 
ATOM      6  S   UNL     1       3.646   2.174  18.065  0.00  0.00    +0.000 S 
ATOM      7  C   UNL     1       2.856   3.110  19.228  0.00  0.00    +0.000 A 
ATOM      8  C   UNL     1       3.036   4.475  19.050  0.00  0.00    +0.000 A 
ATOM      9  C   UNL     1       3.840   4.757  17.868  0.00  0.00    +0.000 A 
ATOM     10  C   UNL     1       2.370   5.461  19.979  0.00  0.00    +0.000 C 
ATOM     11  C   UNL     1       1.725   4.789  21.213  0.00  0.00    +0.000 C 
ATOM     12  C   UNL     1       1.047   3.453  20.884  0.00  0.00    +0.000 C 
ATOM     13  C   UNL     1       2.062   2.459  20.317  0.00  0.00    +0.000 C 
ENDROOT
BRANCH   3  14
ATOM     14  C   UNL     1       6.074   4.505  14.322  0.00  0.00    +0.000 A 
ATOM     15  C   UNL     1       5.733   3.656  13.256  0.00  0.00    +0.000 A 
ATOM     16  C   UNL     1       6.501   3.658  12.103  0.00  0.00    +0.000 A 
ATOM     17  N   UNL     1       7.581   4.442  11.928  0.00  0.00    +0.000 NA
ATOM     18  C   UNL     1       7.909   5.252  12.957  0.00  0.00    +0.000 A 
ATOM     19  C   UNL     1       7.201   5.315  14.146  0.00  0.00    +0.000 A 
ENDBRANCH   3  14
BRANCH   1  20
ATOM     20  N   UNL     1       4.178   7.258  17.638  0.00  0.00    +0.000 N 
ATOM     21  H   UNL     1       4.914   7.884  17.335  0.00  0.00    +0.000 HD
BRANCH  20  22
ATOM     22  C   UNL     1       2.818   7.751  17.334  0.00  0.00    +0.000 C 
BRANCH  22  23
ATOM     23  C   UNL     1       2.347   8.937  18.200  0.00  0.00    +0.000 C 
BRANCH  23  24
ATOM     24  N   UNL     1       2.366  10.200  17.429  0.00  0.00    +0.000 NA
ATOM     25  H   UNL     1       1.652  10.147  16.702  0.00  0.00    +0.000 HD
ATOM     26  H   UNL     1       3.258  10.290  16.942  0.00  0.00    +0.000 HD
ENDBRANCH  23  24
BRANCH  23  27
ATOM     27  C   UNL     1       0.914   8.644  18.740  0.00  0.00    +0.000 C 
BRANCH  27  28
ATOM     28  C   UNL     1       0.466   9.528  19.885  0.00  0.00    +0.000 A 
ATOM     29  C   UNL     1      -0.306  10.682  19.661  0.00  0.00    +0.000 A 
ATOM     30  C   UNL     1      -0.748  11.464  20.735  0.00  0.00    +0.000 A 
ATOM     31  C   UNL     1      -0.421  11.110  22.044  0.00  0.00    +0.000 A 
ATOM     32  C   UNL     1       0.360   9.978  22.276  0.00  0.00    +0.000 A 
ATOM     33  C   UNL     1       0.802   9.204  21.204  0.00  0.00    +0.000 A 
ATOM     34  F   UNL     1       1.558   8.128  21.454  0.00  0.00    +0.000 F 
ENDBRANCH  27  28
ENDBRANCH  23  27
ENDBRANCH  22  23
ENDBRANCH  20  22
ENDBRANCH   1  20
TORSDOF 7
ENDMDL
MODEL 5
REMARK VINA RESULT:      -7.3      2.721      6.399
REMARK  Name = 
REMARK  7 active torsions:
REMARK  status: ('A' for Active; 'I' for Inactive)
REMARK    1  A    between atoms: N_1  and  C_2
REMARK    2  A    between atoms: C_2  and  C_3
REMARK    3  A    between atoms: C_2  and  C_24
REMARK    4  A    between atoms: C_3  and  N_4
REMARK    5  A    between atoms: N_4  and  C_5
REMARK    6  A    between atoms: C_7  and  C_8
REMARK    7  A    between atoms: C_24  and  C_25
REMARK                            x       y       z     vdW  Elec       q    Type
REMARK                         _______ _______ _______ _____ _____    ______ ____
ROOT
ATOM      1  C   UNL     1       4.341   5.931  17.207  0.00  0.00    +0.000 A 
ATOM      2  N   UNL     1       5.010   5.747  16.040  0.00  0.00    +0.000 NA
ATOM      3  C   UNL     1       5.271   4.533  15.551  0.00  0.00    +0.000 A 
ATOM      4  N   UNL     1       4.914   3.393  16.129  0.00  0.00    +0.000 NA
ATOM      5  C   UNL     1       4.216   3.570  17.261  0.00  0.00    +0.000 A 
ATOM      6  S   UNL     1       3.670   2.193  18.095  0.00  0.00    +0.000 S 
ATOM      7  C   UNL     1       2.899   3.139  19.262  0.00  0.00    +0.000 A 
ATOM      8  C   UNL     1       3.079   4.503  19.070  0.00  0.00    +0.000 A 
ATOM      9  C   UNL     1       3.867   4.773  17.875  0.00  0.00    +0.000 A 
ATOM     10  C   UNL     1       2.429   5.497  20.001  0.00  0.00    +0.000 C 
ATOM     11  C   UNL     1       1.800   4.837  21.249  0.00  0.00    +0.000 C 
ATOM     12  C   UNL     1       1.115   3.500  20.940  0.00  0.00    +0.000 C 
ATOM     13  C   UNL     1       2.119   2.499  20.367  0.00  0.00    +0.000 C 
ENDROOT
BRANCH   3  14
ATOM     14  C   UNL     1       6.050   4.488  14.300  0.00  0.00    +0.000 A 
ATOM     15  C   UNL     1       7.184   5.296  14.114  0.00  0.00    +0.000 A 
ATOM     16  C   UNL     1       7.894   5.222  12.927  0.00  0.00    +0.000 A 
ATOM     17  N   UNL     1       7.565   4.402  11.911  0.00  0.00    +0.000 NA
ATOM     18  C   UNL     1       6.471   3.632  12.092  0.00  0.00    +0.000 A 
ATOM     19  C   UNL     1       5.701   3.641  13.242  0.00  0.00    +0.000 A 
ENDBRANCH   3  14
BRANCH   1  20
ATOM     20  N   UNL     1       4.207   7.272  17.620  0.00  0.00    +0.000 N 
ATOM     21  H   UNL     1       4.911   7.904  17.258  0.00  0.00    +0.000 HD
BRANCH  20  22
ATOM     22  C   UNL     1       2.822   7.741  17.405  0.00  0.00    +0.000 C 
BRANCH  22  23
ATOM     23  C   UNL     1       2.421   8.984  18.224  0.00  0.00    +0.000 C 
BRANCH  23  24
ATOM     24  N   UNL     1       2.206  10.155  17.344  0.00  0.00    +0.000 NA
ATOM     25  H   UNL     1       3.028  10.757  17.400  0.00  0.00    +0.000 HD
ATOM     26  H   UNL     1       1.426  10.708  17.696  0.00  0.00    +0.000 HD
ENDBRANCH  23  24
BRANCH  23  27
ATOM     27  C   UNL     1       1.133   8.668  19.044  0.00  0.00    +0.000 C 
BRANCH  27  28
ATOM     28  C   UNL     1       0.385   9.880  19.557  0.00  0.00    +0.000 A 
ATOM     29  C   UNL     1       0.794  10.554  20.721  0.00  0.00    +0.000 A 
ATOM     30  C   UNL     1       0.117  11.700  21.158  0.00  0.00    +0.000 A 
ATOM     31  C   UNL     1      -0.978  12.184  20.443  0.00  0.00    +0.000 A 
ATOM     32  C   UNL     1      -1.404  11.512  19.297  0.00  0.00    +0.000 A 
ATOM     33  C   UNL     1      -0.730  10.369  18.868  0.00  0.00    +0.000 A 
ATOM     34  F   UNL     1      -1.165   9.738  17.771  0.00  0.00    +0.000 F 
ENDBRANCH  27  28
ENDBRANCH  23  27
ENDBRANCH  22  23
ENDBRANCH  20  22
ENDBRANCH   1  20
TORSDOF 7
ENDMDL
MODEL 6
REMARK VINA RESULT:      -7.3      0.995      1.347
REMARK  Name = 
REMARK  7 active torsions:
REMARK  status: ('A' for Active; 'I' for Inactive)
REMARK    1  A    between atoms: N_1  and  C_2
REMARK    2  A    between atoms: C_2  and  C_3
REMARK    3  A    between atoms: C_2  and  C_24
REMARK    4  A    between atoms: C_3  and  N_4
REMARK    5  A    between atoms: N_4  and  C_5
REMARK    6  A    between atoms: C_7  and  C_8
REMARK    7  A    between atoms: C_24  and  C_25
REMARK                            x       y       z     vdW  Elec       q    Type
REMARK                         _______ _______ _______ _____ _____    ______ ____
ROOT
ATOM      1  C   UNL     1       2.950   6.067  19.983  0.00  0.00    +0.000 A 
ATOM      2  N   UNL     1       3.932   5.643  19.148  0.00  0.00    +0.000 NA
ATOM      3  C   UNL     1       4.249   6.297  18.028  0.00  0.00    +0.000 A 
ATOM      4  N   UNL     1       3.661   7.411  17.612  0.00  0.00    +0.000 NA
ATOM      5  C   UNL     1       2.718   7.858  18.456  0.00  0.00    +0.000 A 
ATOM      6  S   UNL     1       1.899   9.294  18.061  0.00  0.00    +0.000 S 
ATOM      7  C   UNL     1       1.004   9.240  19.493  0.00  0.00    +0.000 A 
ATOM      8  C   UNL     1       1.272   8.118  20.266  0.00  0.00    +0.000 A 
ATOM      9  C   UNL     1       2.297   7.282  19.655  0.00  0.00    +0.000 A 
ATOM     10  C   UNL     1       0.586   7.927  21.597  0.00  0.00    +0.000 C 
ATOM     11  C   UNL     1      -0.557   8.938  21.840  0.00  0.00    +0.000 C 
ATOM     12  C   UNL     1      -0.230  10.348  21.331  0.00  0.00    +0.000 C 
ATOM     13  C   UNL     1       0.033  10.330  19.825  0.00  0.00    +0.000 C 
ENDROOT
BRANCH   3  14
ATOM     14  C   UNL     1       5.303   5.690  17.195  0.00  0.00    +0.000 A 
ATOM     15  C   UNL     1       5.264   5.768  15.793  0.00  0.00    +0.000 A 
ATOM     16  C   UNL     1       6.276   5.191  15.044  0.00  0.00    +0.000 A 
ATOM     17  N   UNL     1       7.327   4.545  15.582  0.00  0.00    +0.000 NA
ATOM     18  C   UNL     1       7.358   4.467  16.929  0.00  0.00    +0.000 A 
ATOM     19  C   UNL     1       6.391   5.012  17.757  0.00  0.00    +0.000 A 
ENDBRANCH   3  14
BRANCH   1  20
ATOM     20  N   UNL     1       2.691   5.227  21.086  0.00  0.00    +0.000 N 
ATOM     21  H   UNL     1       1.717   5.162  21.355  0.00  0.00    +0.000 HD
BRANCH  20  22
ATOM     22  C   UNL     1       3.343   3.914  20.895  0.00  0.00    +0.000 C 
BRANCH  22  23
ATOM     23  C   UNL     1       2.582   2.717  21.500  0.00  0.00    +0.000 C 
BRANCH  23  24
ATOM     24  N   UNL     1       1.513   3.173  22.416  0.00  0.00    +0.000 NA
ATOM     25  H   UNL     1       1.704   2.804  23.348  0.00  0.00    +0.000 HD
ATOM     26  H   UNL     1       0.622   2.769  22.130  0.00  0.00    +0.000 HD
ENDBRANCH  23  24
BRANCH  23  27
ATOM     27  C   UNL     1       1.989   1.848  20.349  0.00  0.00    +0.000 C 
BRANCH  27  28
ATOM     28  C   UNL     1       2.091   2.458  18.967  0.00  0.00    +0.000 A 
ATOM     29  C   UNL     1       1.191   3.448  18.535  0.00  0.00    +0.000 A 
ATOM     30  C   UNL     1       1.326   4.033  17.270  0.00  0.00    +0.000 A 
ATOM     31  C   UNL     1       2.356   3.634  16.418  0.00  0.00    +0.000 A 
ATOM     32  C   UNL     1       3.243   2.640  16.829  0.00  0.00    +0.000 A 
ATOM     33  C   UNL     1       3.103   2.056  18.088  0.00  0.00    +0.000 A 
ATOM     34  F   UNL     1       3.962   1.098  18.454  0.00  0.00    +0.000 F 
ENDBRANCH  27  28
ENDBRANCH  23  27
ENDBRANCH  22  23
ENDBRANCH  20  22
ENDBRANCH   1  20
TORSDOF 7
ENDMDL
MODEL 7
REMARK VINA RESULT:      -7.2      4.563      8.234
REMARK  Name = 
REMARK  7 active torsions:
REMARK  status: ('A' for Active; 'I' for Inactive)
REMARK    1  A    between atoms: N_1  and  C_2
REMARK    2  A    between atoms: C_2  and  C_3
REMARK    3  A    between atoms: C_2  and  C_24
REMARK    4  A    between atoms: C_3  and  N_4
REMARK    5  A    between atoms: N_4  and  C_5
REMARK    6  A    between atoms: C_7  and  C_8
REMARK    7  A    between atoms: C_24  and  C_25
REMARK                            x       y       z     vdW  Elec       q    Type
REMARK                         _______ _______ _______ _____ _____    ______ ____
ROOT
ATOM      1  C   UNL     1      -0.405  10.517  18.701  0.00  0.00    +0.000 A 
ATOM      2  N   UNL     1       0.511   9.542  18.468  0.00  0.00    +0.000 NA
ATOM      3  C   UNL     1       1.140   8.904  19.457  0.00  0.00    +0.000 A 
ATOM      4  N   UNL     1       0.948   9.136  20.749  0.00  0.00    +0.000 NA
ATOM      5  C   UNL     1       0.013  10.070  20.985  0.00  0.00    +0.000 A 
ATOM      6  S   UNL     1      -0.355  10.452  22.600  0.00  0.00    +0.000 S 
ATOM      7  C   UNL     1      -1.545  11.552  22.125  0.00  0.00    +0.000 A 
ATOM      8  C   UNL     1      -1.651  11.685  20.747  0.00  0.00    +0.000 A 
ATOM      9  C   UNL     1      -0.722  10.803  20.053  0.00  0.00    +0.000 A 
ATOM     10  C   UNL     1      -2.690  12.601  20.146  0.00  0.00    +0.000 C 
ATOM     11  C   UNL     1      -3.388  13.496  21.195  0.00  0.00    +0.000 C 
ATOM     12  C   UNL     1      -3.667  12.767  22.516  0.00  0.00    +0.000 C 
ATOM     13  C   UNL     1      -2.363  12.278  23.147  0.00  0.00    +0.000 C 
ENDROOT
BRANCH   3  14
ATOM     14  C   UNL     1       2.145   7.903  19.052  0.00  0.00    +0.000 A 
ATOM     15  C   UNL     1       2.402   6.765  19.834  0.00  0.00    +0.000 A 
ATOM     16  C   UNL     1       3.348   5.844  19.418  0.00  0.00    +0.000 A 
ATOM     17  N   UNL     1       4.057   5.966  18.279  0.00  0.00    +0.000 NA
ATOM     18  C   UNL     1       3.810   7.063  17.533  0.00  0.00    +0.000 A 
ATOM     19  C   UNL     1       2.885   8.036  17.872  0.00  0.00    +0.000 A 
ENDBRANCH   3  14
BRANCH   1  20
ATOM     20  N   UNL     1      -0.927  11.141  17.549  0.00  0.00    +0.000 N 
ATOM     21  H   UNL     1      -0.234  11.521  16.917  0.00  0.00    +0.000 HD
BRANCH  20  22
ATOM     22  C   UNL     1      -1.912  10.258  16.889  0.00  0.00    +0.000 C 
BRANCH  22  23
ATOM     23  C   UNL     1      -3.301  10.890  16.660  0.00  0.00    +0.000 C 
BRANCH  23  24
ATOM     24  N   UNL     1      -3.718  10.760  15.247  0.00  0.00    +0.000 NA
ATOM     25  H   UNL     1      -4.711  10.524  15.222  0.00  0.00    +0.000 HD
ATOM     26  H   UNL     1      -3.231   9.975  14.816  0.00  0.00    +0.000 HD
ENDBRANCH  23  24
BRANCH  23  27
ATOM     27  C   UNL     1      -4.338  10.210  17.606  0.00  0.00    +0.000 C 
BRANCH  27  28
ATOM     28  C   UNL     1      -5.418  11.128  18.139  0.00  0.00    +0.000 A 
ATOM     29  C   UNL     1      -5.442  12.496  17.815  0.00  0.00    +0.000 A 
ATOM     30  C   UNL     1      -6.472  13.322  18.281  0.00  0.00    +0.000 A 
ATOM     31  C   UNL     1      -7.487  12.796  19.080  0.00  0.00    +0.000 A 
ATOM     32  C   UNL     1      -7.462  11.445  19.424  0.00  0.00    +0.000 A 
ATOM     33  C   UNL     1      -6.432  10.626  18.961  0.00  0.00    +0.000 A 
ATOM     34  F   UNL     1      -6.428   9.335  19.313  0.00  0.00    +0.000 F 
ENDBRANCH  27  28
ENDBRANCH  23  27
ENDBRANCH  22  23
ENDBRANCH  20  22
ENDBRANCH   1  20
TORSDOF 7
ENDMDL
MODEL 8
REMARK VINA RESULT:      -7.2      2.831      6.454
REMARK  Name = 
REMARK  7 active torsions:
REMARK  status: ('A' for Active; 'I' for Inactive)
REMARK    1  A    between atoms: N_1  and  C_2
REMARK    2  A    between atoms: C_2  and  C_3
REMARK    3  A    between atoms: C_2  and  C_24
REMARK    4  A    between atoms: C_3  and  N_4
REMARK    5  A    between atoms: N_4  and  C_5
REMARK    6  A    between atoms: C_7  and  C_8
REMARK    7  A    between atoms: C_24  and  C_25
REMARK                            x       y       z     vdW  Elec       q    Type
REMARK                         _______ _______ _______ _____ _____    ______ ____
ROOT
ATOM      1  C   UNL     1       4.339   5.951  17.210  0.00  0.00    +0.000 A 
ATOM      2  N   UNL     1       5.021   5.771  16.050  0.00  0.00    +0.000 NA
ATOM      3  C   UNL     1       5.288   4.558  15.561  0.00  0.00    +0.000 A 
ATOM      4  N   UNL     1       4.925   3.417  16.131  0.00  0.00    +0.000 NA
ATOM      5  C   UNL     1       4.214   3.590  17.256  0.00  0.00    +0.000 A 
ATOM      6  S   UNL     1       3.659   2.211  18.079  0.00  0.00    +0.000 S 
ATOM      7  C   UNL     1       2.874   3.154  19.240  0.00  0.00    +0.000 A 
ATOM      8  C   UNL     1       3.057   4.518  19.055  0.00  0.00    +0.000 A 
ATOM      9  C   UNL     1       3.858   4.792  17.869  0.00  0.00    +0.000 A 
ATOM     10  C   UNL     1       2.396   5.509  19.981  0.00  0.00    +0.000 C 
ATOM     11  C   UNL     1       1.753   4.845  21.220  0.00  0.00    +0.000 C 
ATOM     12  C   UNL     1       1.071   3.509  20.899  0.00  0.00    +0.000 C 
ATOM     13  C   UNL     1       2.082   2.510  20.335  0.00  0.00    +0.000 C 
ENDROOT
BRANCH   3  14
ATOM     14  C   UNL     1       6.081   4.518  14.318  0.00  0.00    +0.000 A 
ATOM     15  C   UNL     1       5.726   3.675  13.251  0.00  0.00    +0.000 A 
ATOM     16  C   UNL     1       6.491   3.669  12.096  0.00  0.00    +0.000 A 
ATOM     17  N   UNL     1       7.580   4.440  11.919  0.00  0.00    +0.000 NA
ATOM     18  C   UNL     1       7.921   5.243  12.949  0.00  0.00    +0.000 A 
ATOM     19  C   UNL     1       7.217   5.314  14.139  0.00  0.00    +0.000 A 
ENDBRANCH   3  14
BRANCH   1  20
ATOM     20  N   UNL     1       4.201   7.291  17.626  0.00  0.00    +0.000 N 
ATOM     21  H   UNL     1       4.933   7.915  17.310  0.00  0.00    +0.000 HD
BRANCH  20  22
ATOM     22  C   UNL     1       2.837   7.782  17.334  0.00  0.00    +0.000 C 
BRANCH  22  23
ATOM     23  C   UNL     1       2.395   9.006  18.161  0.00  0.00    +0.000 C 
BRANCH  23  24
ATOM     24  N   UNL     1       2.308  10.217  17.315  0.00  0.00    +0.000 NA
ATOM     25  H   UNL     1       2.522  11.031  17.891  0.00  0.00    +0.000 HD
ATOM     26  H   UNL     1       1.349  10.342  16.994  0.00  0.00    +0.000 HD
ENDBRANCH  23  24
BRANCH  23  27
ATOM     27  C   UNL     1       1.021   8.704  18.835  0.00  0.00    +0.000 C 
BRANCH  27  28
ATOM     28  C   UNL     1       0.144   9.916  19.073  0.00  0.00    +0.000 A 
ATOM     29  C   UNL     1      -0.896  10.251  18.188  0.00  0.00    +0.000 A 
ATOM     30  C   UNL     1      -1.726  11.350  18.446  0.00  0.00    +0.000 A 
ATOM     31  C   UNL     1      -1.526  12.129  19.586  0.00  0.00    +0.000 A 
ATOM     32  C   UNL     1      -0.486  11.816  20.460  0.00  0.00    +0.000 A 
ATOM     33  C   UNL     1       0.342  10.724  20.197  0.00  0.00    +0.000 A 
ATOM     34  F   UNL     1       1.338  10.451  21.048  0.00  0.00    +0.000 F 
ENDBRANCH  27  28
ENDBRANCH  23  27
ENDBRANCH  22  23
ENDBRANCH  20  22
ENDBRANCH   1  20
TORSDOF 7
ENDMDL
MODEL 9
REMARK VINA RESULT:      -7.2      0.695      1.193
REMARK  Name = 
REMARK  7 active torsions:
REMARK  status: ('A' for Active; 'I' for Inactive)
REMARK    1  A    between atoms: N_1  and  C_2
REMARK    2  A    between atoms: C_2  and  C_3
REMARK    3  A    between atoms: C_2  and  C_24
REMARK    4  A    between atoms: C_3  and  N_4
REMARK    5  A    between atoms: N_4  and  C_5
REMARK    6  A    between atoms: C_7  and  C_8
REMARK    7  A    between atoms: C_24  and  C_25
REMARK                            x       y       z     vdW  Elec       q    Type
REMARK                         _______ _______ _______ _____ _____    ______ ____
ROOT
ATOM      1  C   UNL     1       2.924   6.095  19.991  0.00  0.00    +0.000 A 
ATOM      2  N   UNL     1       3.908   5.674  19.155  0.00  0.00    +0.000 NA
ATOM      3  C   UNL     1       4.225   6.333  18.039  0.00  0.00    +0.000 A 
ATOM      4  N   UNL     1       3.638   7.449  17.627  0.00  0.00    +0.000 NA
ATOM      5  C   UNL     1       2.694   7.892  18.472  0.00  0.00    +0.000 A 
ATOM      6  S   UNL     1       1.875   9.330  18.083  0.00  0.00    +0.000 S 
ATOM      7  C   UNL     1       0.978   9.270  19.513  0.00  0.00    +0.000 A 
ATOM      8  C   UNL     1       1.245   8.144  20.281  0.00  0.00    +0.000 A 
ATOM      9  C   UNL     1       2.271   7.311  19.668  0.00  0.00    +0.000 A 
ATOM     10  C   UNL     1       0.558   7.946  21.610  0.00  0.00    +0.000 C 
ATOM     11  C   UNL     1      -0.585   8.957  21.857  0.00  0.00    +0.000 C 
ATOM     12  C   UNL     1      -0.258  10.369  21.355  0.00  0.00    +0.000 C 
ATOM     13  C   UNL     1       0.007  10.357  19.849  0.00  0.00    +0.000 C 
ENDROOT
BRANCH   3  14
ATOM     14  C   UNL     1       5.281   5.730  17.204  0.00  0.00    +0.000 A 
ATOM     15  C   UNL     1       6.355   5.029  17.776  0.00  0.00    +0.000 A 
ATOM     16  C   UNL     1       7.325   4.470  16.960  0.00  0.00    +0.000 A 
ATOM     17  N   UNL     1       7.305   4.552  15.616  0.00  0.00    +0.000 NA
ATOM     18  C   UNL     1       6.274   5.231  15.071  0.00  0.00    +0.000 A 
ATOM     19  C   UNL     1       5.263   5.823  15.808  0.00  0.00    +0.000 A 
ENDBRANCH   3  14
BRANCH   1  20
ATOM     20  N   UNL     1       2.664   5.250  21.089  0.00  0.00    +0.000 N 
ATOM     21  H   UNL     1       1.684   5.114  21.303  0.00  0.00    +0.000 HD
BRANCH  20  22
ATOM     22  C   UNL     1       3.422   3.987  20.957  0.00  0.00    +0.000 C 
BRANCH  22  23
ATOM     23  C   UNL     1       2.714   2.741  21.524  0.00  0.00    +0.000 C 
BRANCH  23  24
ATOM     24  N   UNL     1       1.549   3.121  22.353  0.00  0.00    +0.000 NA
ATOM     25  H   UNL     1       0.698   2.843  21.864  0.00  0.00    +0.000 HD
ATOM     26  H   UNL     1       1.507   4.136  22.439  0.00  0.00    +0.000 HD
ENDBRANCH  23  24
BRANCH  23  27
ATOM     27  C   UNL     1       2.274   1.818  20.347  0.00  0.00    +0.000 C 
BRANCH  27  28
ATOM     28  C   UNL     1       2.351   2.450  18.972  0.00  0.00    +0.000 A 
ATOM     29  C   UNL     1       3.400   2.148  18.086  0.00  0.00    +0.000 A 
ATOM     30  C   UNL     1       3.433   2.707  16.802  0.00  0.00    +0.000 A 
ATOM     31  C   UNL     1       2.424   3.578  16.390  0.00  0.00    +0.000 A 
ATOM     32  C   UNL     1       1.390   3.899  17.268  0.00  0.00    +0.000 A 
ATOM     33  C   UNL     1       1.363   3.344  18.547  0.00  0.00    +0.000 A 
ATOM     34  F   UNL     1       0.364   3.676  19.373  0.00  0.00    +0.000 F 
ENDBRANCH  27  28
ENDBRANCH  23  27
ENDBRANCH  22  23
ENDBRANCH  20  22
ENDBRANCH   1  20
TORSDOF 7
ENDMDL
