MODEL 1
REMARK VINA RESULT:      -7.0      0.000      0.000
REMARK  Name = 
REMARK  13 active torsions:
REMARK  status: ('A' for Active; 'I' for Inactive)
REMARK    1  A    between atoms: C_1  and  C_2
REMARK    2  A    between atoms: C_2  and  O_3
REMARK    3  A    between atoms: O_3  and  C_4
REMARK    4  A    between atoms: C_4  and  C_6
REMARK    5  A    between atoms: C_6  and  N_7
REMARK    6  A    between atoms: C_16  and  C_17
REMARK    7  A    between atoms: C_17  and  C_18
REMARK    8  A    between atoms: C_20  and  O_21
REMARK    9  A    between atoms: O_21  and  C_22
REMARK   10  A    between atoms: C_23  and  O_24
REMARK   11  A    between atoms: O_24  and  C_25
REMARK   12  A    between atoms: C_26  and  O_27
REMARK   13  A    between atoms: O_27  and  C_28
REMARK                            x       y       z     vdW  Elec       q    Type
REMARK                         _______ _______ _______ _____ _____    ______ ____
ROOT
ATOM      1  N   UNL     1       2.644   4.265  18.140  0.00  0.00    +0.000 N 
ATOM      2  C   UNL     1       3.000   3.416  17.144  0.00  0.00    +0.000 A 
ATOM      3  C   UNL     1       4.290   3.382  16.643  0.00  0.00    +0.000 A 
ATOM      4  C   UNL     1       5.253   4.246  17.148  0.00  0.00    +0.000 A 
ATOM      5  C   UNL     1       6.535   4.290  16.570  0.00  0.00    +0.000 A 
ATOM      6  C   UNL     1       7.505   5.170  17.042  0.00  0.00    +0.000 A 
ATOM      7  C   UNL     1       7.211   5.989  18.116  0.00  0.00    +0.000 A 
ATOM      8  C   UNL     1       5.955   5.945  18.706  0.00  0.00    +0.000 A 
ATOM      9  C   UNL     1       4.923   5.094  18.227  0.00  0.00    +0.000 A 
ATOM     10  C   UNL     1       3.584   5.065  18.743  0.00  0.00    +0.000 A 
ENDROOT
BRANCH   1  11
ATOM     11  C   UNL     1       1.168   4.408  18.398  0.00  0.00    +0.000 C 
BRANCH  11  12
ATOM     12  C   UNL     1       0.772   3.244  19.276  0.00  0.00    +0.000 C 
ATOM     13  O   UNL     1       0.394   2.165  18.832  0.00  0.00    +0.000 OA
BRANCH  12  14
ATOM     14  O   UNL     1       0.882   3.568  20.582  0.00  0.00    +0.000 OA
BRANCH  14  16
ATOM     15  C   UNL     1       2.943   2.552  21.405  0.00  0.00    +0.000 C 
ATOM     16  C   UNL     1       1.425   2.556  21.444  0.00  0.00    +0.000 C 
ENDBRANCH  14  16
ENDBRANCH  12  14
ENDBRANCH  11  12
ENDBRANCH   1  11
BRANCH  10  17
ATOM     17  C   UNL     1       3.228   5.901  19.956  0.00  0.00    +0.000 C 
BRANCH  17  18
ATOM     18  C   UNL     1       2.294   7.072  19.764  0.00  0.00    +0.000 A 
ATOM     19  C   UNL     1       1.394   7.354  20.795  0.00  0.00    +0.000 A 
ATOM     20  C   UNL     1       0.580   8.498  20.783  0.00  0.00    +0.000 A 
ATOM     21  C   UNL     1       0.675   9.426  19.724  0.00  0.00    +0.000 A 
ATOM     22  C   UNL     1       1.582   9.151  18.677  0.00  0.00    +0.000 A 
ATOM     23  C   UNL     1       2.370   7.983  18.708  0.00  0.00    +0.000 A 
BRANCH  20  24
ATOM     24  O   UNL     1      -0.218   8.772  21.867  0.00  0.00    +0.000 OA
ATOM     25  C   UNL     1       0.405   9.472  22.942  0.00  0.00    +0.000 C 
ENDBRANCH  20  24
BRANCH  21  26
ATOM     26  O   UNL     1      -0.020  10.601  19.624  0.00  0.00    +0.000 OA
ATOM     27  C   UNL     1      -1.285  10.644  18.983  0.00  0.00    +0.000 C 
ENDBRANCH  21  26
BRANCH  22  28
ATOM     28  O   UNL     1       1.889   9.928  17.585  0.00  0.00    +0.000 OA
ATOM     29  C   UNL     1       2.485  11.201  17.785  0.00  0.00    +0.000 C 
ENDBRANCH  22  28
ENDBRANCH  17  18
ENDBRANCH  10  17
TORSDOF 9
ENDMDL
MODEL 2
REMARK VINA RESULT:      -6.8      2.016      4.201
REMARK  Name = 
REMARK  13 active torsions:
REMARK  status: ('A' for Active; 'I' for Inactive)
REMARK    1  A    between atoms: C_1  and  C_2
REMARK    2  A    between atoms: C_2  and  O_3
REMARK    3  A    between atoms: O_3  and  C_4
REMARK    4  A    between atoms: C_4  and  C_6
REMARK    5  A    between atoms: C_6  and  N_7
REMARK    6  A    between atoms: C_16  and  C_17
REMARK    7  A    between atoms: C_17  and  C_18
REMARK    8  A    between atoms: C_20  and  O_21
REMARK    9  A    between atoms: O_21  and  C_22
REMARK   10  A    between atoms: C_23  and  O_24
REMARK   11  A    between atoms: O_24  and  C_25
REMARK   12  A    between atoms: C_26  and  O_27
REMARK   13  A    between atoms: O_27  and  C_28
REMARK                            x       y       z     vdW  Elec       q    Type
REMARK                         _______ _______ _______ _____ _____    ______ ____
ROOT
ATOM      1  N   UNL     1       3.722   5.568  17.735  0.00  0.00    +0.000 N 
ATOM      2  C   UNL     1       3.528   4.583  16.823  0.00  0.00    +0.000 A 
ATOM      3  C   UNL     1       2.757   3.468  17.108  0.00  0.00    +0.000 A 
ATOM      4  C   UNL     1       2.176   3.329  18.361  0.00  0.00    +0.000 A 
ATOM      5  C   UNL     1       1.482   2.151  18.691  0.00  0.00    +0.000 A 
ATOM      6  C   UNL     1       0.917   1.980  19.953  0.00  0.00    +0.000 A 
ATOM      7  C   UNL     1       1.014   2.999  20.882  0.00  0.00    +0.000 A 
ATOM      8  C   UNL     1       1.682   4.174  20.564  0.00  0.00    +0.000 A 
ATOM      9  C   UNL     1       2.311   4.371  19.305  0.00  0.00    +0.000 A 
ATOM     10  C   UNL     1       3.084   5.527  18.951  0.00  0.00    +0.000 A 
ENDROOT
BRANCH   1  11
ATOM     11  C   UNL     1       4.796   6.571  17.413  0.00  0.00    +0.000 C 
BRANCH  11  12
ATOM     12  C   UNL     1       6.084   5.792  17.280  0.00  0.00    +0.000 C 
ATOM     13  O   UNL     1       6.579   5.151  18.201  0.00  0.00    +0.000 OA
BRANCH  12  14
ATOM     14  O   UNL     1       6.596   5.917  16.038  0.00  0.00    +0.000 OA
BRANCH  14  16
ATOM     15  C   UNL     1       6.131   4.244  14.323  0.00  0.00    +0.000 C 
ATOM     16  C   UNL     1       7.070   4.710  15.421  0.00  0.00    +0.000 C 
ENDBRANCH  14  16
ENDBRANCH  12  14
ENDBRANCH  11  12
ENDBRANCH   1  11
BRANCH  10  17
ATOM     17  C   UNL     1       3.171   6.695  19.912  0.00  0.00    +0.000 C 
BRANCH  17  18
ATOM     18  C   UNL     1       2.091   7.750  19.851  0.00  0.00    +0.000 A 
ATOM     19  C   UNL     1       1.183   7.804  20.911  0.00  0.00    +0.000 A 
ATOM     20  C   UNL     1       0.229   8.828  21.025  0.00  0.00    +0.000 A 
ATOM     21  C   UNL     1       0.183   9.866  20.069  0.00  0.00    +0.000 A 
ATOM     22  C   UNL     1       1.098   9.821  18.994  0.00  0.00    +0.000 A 
ATOM     23  C   UNL     1       2.029   8.768  18.897  0.00  0.00    +0.000 A 
BRANCH  20  24
ATOM     24  O   UNL     1      -0.577   8.882  22.136  0.00  0.00    +0.000 OA
ATOM     25  C   UNL     1      -0.032   9.552  23.271  0.00  0.00    +0.000 C 
ENDBRANCH  20  24
BRANCH  21  26
ATOM     26  O   UNL     1      -0.658  10.946  20.098  0.00  0.00    +0.000 OA
ATOM     27  C   UNL     1      -1.709  11.072  19.154  0.00  0.00    +0.000 C 
ENDBRANCH  21  26
BRANCH  22  28
ATOM     28  O   UNL     1       1.282  10.740  17.988  0.00  0.00    +0.000 OA
ATOM     29  C   UNL     1       2.190  11.814  18.187  0.00  0.00    +0.000 C 
ENDBRANCH  22  28
ENDBRANCH  17  18
ENDBRANCH  10  17
TORSDOF 9
ENDMDL
MODEL 3
REMARK VINA RESULT:      -6.8      2.235      4.838
REMARK  Name = 
REMARK  13 active torsions:
REMARK  status: ('A' for Active; 'I' for Inactive)
REMARK    1  A    between atoms: C_1  and  C_2
REMARK    2  A    between atoms: C_2  and  O_3
REMARK    3  A    between atoms: O_3  and  C_4
REMARK    4  A    between atoms: C_4  and  C_6
REMARK    5  A    between atoms: C_6  and  N_7
REMARK    6  A    between atoms: C_16  and  C_17
REMARK    7  A    between atoms: C_17  and  C_18
REMARK    8  A    between atoms: C_20  and  O_21
REMARK    9  A    between atoms: O_21  and  C_22
REMARK   10  A    between atoms: C_23  and  O_24
REMARK   11  A    between atoms: O_24  and  C_25
REMARK   12  A    between atoms: C_26  and  O_27
REMARK   13  A    between atoms: O_27  and  C_28
REMARK                            x       y       z     vdW  Elec       q    Type
REMARK                         _______ _______ _______ _____ _____    ______ ____
ROOT
ATOM      1  N   UNL     1       4.660   5.831  18.219  0.00  0.00    +0.000 N 
ATOM      2  C   UNL     1       5.464   4.848  18.697  0.00  0.00    +0.000 A 
ATOM      3  C   UNL     1       4.961   3.791  19.435  0.00  0.00    +0.000 A 
ATOM      4  C   UNL     1       3.603   3.729  19.721  0.00  0.00    +0.000 A 
ATOM      5  C   UNL     1       3.103   2.716  20.560  0.00  0.00    +0.000 A 
ATOM      6  C   UNL     1       1.750   2.654  20.882  0.00  0.00    +0.000 A 
ATOM      7  C   UNL     1       0.882   3.584  20.342  0.00  0.00    +0.000 A 
ATOM      8  C   UNL     1       1.359   4.580  19.499  0.00  0.00    +0.000 A 
ATOM      9  C   UNL     1       2.738   4.705  19.181  0.00  0.00    +0.000 A 
ATOM     10  C   UNL     1       3.299   5.760  18.385  0.00  0.00    +0.000 A 
ENDROOT
BRANCH   1  11
ATOM     11  C   UNL     1       5.353   7.056  17.685  0.00  0.00    +0.000 C 
BRANCH  11  12
ATOM     12  C   UNL     1       6.278   6.582  16.590  0.00  0.00    +0.000 C 
ATOM     13  O   UNL     1       7.501   6.615  16.682  0.00  0.00    +0.000 OA
BRANCH  12  14
ATOM     14  O   UNL     1       5.577   6.142  15.524  0.00  0.00    +0.000 OA
BRANCH  14  16
ATOM     15  C   UNL     1       5.859   3.731  15.275  0.00  0.00    +0.000 C 
ATOM     16  C   UNL     1       6.194   5.111  14.738  0.00  0.00    +0.000 C 
ENDBRANCH  14  16
ENDBRANCH  12  14
ENDBRANCH  11  12
ENDBRANCH   1  11
BRANCH  10  17
ATOM     17  C   UNL     1       2.383   6.769  17.723  0.00  0.00    +0.000 C 
BRANCH  17  18
ATOM     18  C   UNL     1       1.898   7.938  18.548  0.00  0.00    +0.000 A 
ATOM     19  C   UNL     1       1.181   8.939  17.887  0.00  0.00    +0.000 A 
ATOM     20  C   UNL     1       0.566   9.996  18.577  0.00  0.00    +0.000 A 
ATOM     21  C   UNL     1       0.632  10.058  19.986  0.00  0.00    +0.000 A 
ATOM     22  C   UNL     1       1.353   9.050  20.664  0.00  0.00    +0.000 A 
ATOM     23  C   UNL     1       1.977   8.015  19.940  0.00  0.00    +0.000 A 
BRANCH  20  24
ATOM     24  O   UNL     1      -0.203  10.899  17.886  0.00  0.00    +0.000 OA
ATOM     25  C   UNL     1      -1.567  10.533  17.682  0.00  0.00    +0.000 C 
ENDBRANCH  20  24
BRANCH  21  26
ATOM     26  O   UNL     1       0.030  11.000  20.776  0.00  0.00    +0.000 OA
ATOM     27  C   UNL     1       0.630  12.271  20.973  0.00  0.00    +0.000 C 
ENDBRANCH  21  26
BRANCH  22  28
ATOM     28  O   UNL     1       1.501   8.868  22.018  0.00  0.00    +0.000 OA
ATOM     29  C   UNL     1       0.386   9.076  22.873  0.00  0.00    +0.000 C 
ENDBRANCH  22  28
ENDBRANCH  17  18
ENDBRANCH  10  17
TORSDOF 9
ENDMDL
MODEL 4
REMARK VINA RESULT:      -6.8      2.168      4.909
REMARK  Name = 
REMARK  13 active torsions:
REMARK  status: ('A' for Active; 'I' for Inactive)
REMARK    1  A    between atoms: C_1  and  C_2
REMARK    2  A    between atoms: C_2  and  O_3
REMARK    3  A    between atoms: O_3  and  C_4
REMARK    4  A    between atoms: C_4  and  C_6
REMARK    5  A    between atoms: C_6  and  N_7
REMARK    6  A    between atoms: C_16  and  C_17
REMARK    7  A    between atoms: C_17  and  C_18
REMARK    8  A    between atoms: C_20  and  O_21
REMARK    9  A    between atoms: O_21  and  C_22
REMARK   10  A    between atoms: C_23  and  O_24
REMARK   11  A    between atoms: O_24  and  C_25
REMARK   12  A    between atoms: C_26  and  O_27
REMARK   13  A    between atoms: O_27  and  C_28
REMARK                            x       y       z     vdW  Elec       q    Type
REMARK                         _______ _______ _______ _____ _____    ______ ____
ROOT
ATOM      1  N   UNL     1       4.773   5.872  18.189  0.00  0.00    +0.000 N 
ATOM      2  C   UNL     1       5.559   4.860  18.632  0.00  0.00    +0.000 A 
ATOM      3  C   UNL     1       5.036   3.778  19.319  0.00  0.00    +0.000 A 
ATOM      4  C   UNL     1       3.675   3.721  19.590  0.00  0.00    +0.000 A 
ATOM      5  C   UNL     1       3.154   2.680  20.380  0.00  0.00    +0.000 A 
ATOM      6  C   UNL     1       1.797   2.621  20.686  0.00  0.00    +0.000 A 
ATOM      7  C   UNL     1       0.946   3.585  20.179  0.00  0.00    +0.000 A 
ATOM      8  C   UNL     1       1.444   4.609  19.385  0.00  0.00    +0.000 A 
ATOM      9  C   UNL     1       2.827   4.731  19.084  0.00  0.00    +0.000 A 
ATOM     10  C   UNL     1       3.409   5.811  18.340  0.00  0.00    +0.000 A 
ENDROOT
BRANCH   1  11
ATOM     11  C   UNL     1       5.485   7.109  17.715  0.00  0.00    +0.000 C 
BRANCH  11  12
ATOM     12  C   UNL     1       6.486   6.657  16.678  0.00  0.00    +0.000 C 
ATOM     13  O   UNL     1       7.697   6.805  16.804  0.00  0.00    +0.000 OA
BRANCH  12  14
ATOM     14  O   UNL     1       5.862   6.096  15.620  0.00  0.00    +0.000 OA
BRANCH  14  16
ATOM     15  C   UNL     1       5.593   4.102  14.238  0.00  0.00    +0.000 C 
ATOM     16  C   UNL     1       6.556   5.019  14.971  0.00  0.00    +0.000 C 
ENDBRANCH  14  16
ENDBRANCH  12  14
ENDBRANCH  11  12
ENDBRANCH   1  11
BRANCH  10  17
ATOM     17  C   UNL     1       2.512   6.860  17.714  0.00  0.00    +0.000 C 
BRANCH  17  18
ATOM     18  C   UNL     1       2.088   8.034  18.565  0.00  0.00    +0.000 A 
ATOM     19  C   UNL     1       2.064   9.293  17.960  0.00  0.00    +0.000 A 
ATOM     20  C   UNL     1       1.555  10.426  18.614  0.00  0.00    +0.000 A 
ATOM     21  C   UNL     1       1.015  10.313  19.913  0.00  0.00    +0.000 A 
ATOM     22  C   UNL     1       1.033   9.044  20.534  0.00  0.00    +0.000 A 
ATOM     23  C   UNL     1       1.571   7.931  19.858  0.00  0.00    +0.000 A 
BRANCH  20  24
ATOM     24  O   UNL     1       1.471  11.618  17.937  0.00  0.00    +0.000 OA
ATOM     25  C   UNL     1       2.502  12.565  18.209  0.00  0.00    +0.000 C 
ENDBRANCH  20  24
BRANCH  21  26
ATOM     26  O   UNL     1       0.440  11.325  20.633  0.00  0.00    +0.000 OA
ATOM     27  C   UNL     1      -0.940  11.625  20.489  0.00  0.00    +0.000 C 
ENDBRANCH  21  26
BRANCH  22  28
ATOM     28  O   UNL     1       0.515   8.681  21.755  0.00  0.00    +0.000 OA
ATOM     29  C   UNL     1       1.016   9.298  22.931  0.00  0.00    +0.000 C 
ENDBRANCH  22  28
ENDBRANCH  17  18
ENDBRANCH  10  17
TORSDOF 9
ENDMDL
MODEL 5
REMARK VINA RESULT:      -6.8      1.666      3.113
REMARK  Name = 
REMARK  13 active torsions:
REMARK  status: ('A' for Active; 'I' for Inactive)
REMARK    1  A    between atoms: C_1  and  C_2
REMARK    2  A    between atoms: C_2  and  O_3
REMARK    3  A    between atoms: O_3  and  C_4
REMARK    4  A    between atoms: C_4  and  C_6
REMARK    5  A    between atoms: C_6  and  N_7
REMARK    6  A    between atoms: C_16  and  C_17
REMARK    7  A    between atoms: C_17  and  C_18
REMARK    8  A    between atoms: C_20  and  O_21
REMARK    9  A    between atoms: O_21  and  C_22
REMARK   10  A    between atoms: C_23  and  O_24
REMARK   11  A    between atoms: O_24  and  C_25
REMARK   12  A    between atoms: C_26  and  O_27
REMARK   13  A    between atoms: O_27  and  C_28
REMARK                            x       y       z     vdW  Elec       q    Type
REMARK                         _______ _______ _______ _____ _____    ______ ____
ROOT
ATOM      1  N   UNL     1       2.778   5.399  19.881  0.00  0.00    +0.000 N 
ATOM      2  C   UNL     1       3.835   4.631  20.244  0.00  0.00    +0.000 A 
ATOM      3  C   UNL     1       4.988   4.571  19.480  0.00  0.00    +0.000 A 
ATOM      4  C   UNL     1       5.074   5.294  18.298  0.00  0.00    +0.000 A 
ATOM      5  C   UNL     1       6.199   5.153  17.464  0.00  0.00    +0.000 A 
ATOM      6  C   UNL     1       6.292   5.846  16.260  0.00  0.00    +0.000 A 
ATOM      7  C   UNL     1       5.276   6.710  15.896  0.00  0.00    +0.000 A 
ATOM      8  C   UNL     1       4.167   6.871  16.717  0.00  0.00    +0.000 A 
ATOM      9  C   UNL     1       4.013   6.149  17.931  0.00  0.00    +0.000 A 
ATOM     10  C   UNL     1       2.855   6.212  18.776  0.00  0.00    +0.000 A 
ENDROOT
BRANCH   1  11
ATOM     11  C   UNL     1       1.495   5.162  20.630  0.00  0.00    +0.000 C 
BRANCH  11  12
ATOM     12  C   UNL     1       1.157   3.701  20.450  0.00  0.00    +0.000 C 
ATOM     13  O   UNL     1       1.161   2.892  21.372  0.00  0.00    +0.000 OA
BRANCH  12  14
ATOM     14  O   UNL     1       0.872   3.428  19.159  0.00  0.00    +0.000 OA
BRANCH  14  16
ATOM     15  C   UNL     1       2.492   2.454  17.615  0.00  0.00    +0.000 C 
ATOM     16  C   UNL     1       1.399   2.198  18.637  0.00  0.00    +0.000 C 
ENDBRANCH  14  16
ENDBRANCH  12  14
ENDBRANCH  11  12
ENDBRANCH   1  11
BRANCH  10  17
ATOM     17  C   UNL     1       1.740   7.187  18.452  0.00  0.00    +0.000 C 
BRANCH  17  18
ATOM     18  C   UNL     1       1.656   8.464  19.254  0.00  0.00    +0.000 A 
ATOM     19  C   UNL     1       1.585   9.666  18.546  0.00  0.00    +0.000 A 
ATOM     20  C   UNL     1       1.363  10.897  19.184  0.00  0.00    +0.000 A 
ATOM     21  C   UNL     1       1.173  10.948  20.582  0.00  0.00    +0.000 A 
ATOM     22  C   UNL     1       1.241   9.738  21.307  0.00  0.00    +0.000 A 
ATOM     23  C   UNL     1       1.486   8.522  20.639  0.00  0.00    +0.000 A 
BRANCH  20  24
ATOM     24  O   UNL     1       1.211  12.034  18.428  0.00  0.00    +0.000 OA
ATOM     25  C   UNL     1       2.393  12.800  18.205  0.00  0.00    +0.000 C 
ENDBRANCH  20  24
BRANCH  21  26
ATOM     26  O   UNL     1       0.895  12.071  21.312  0.00  0.00    +0.000 OA
ATOM     27  C   UNL     1      -0.423  12.595  21.365  0.00  0.00    +0.000 C 
ENDBRANCH  21  26
BRANCH  22  28
ATOM     28  O   UNL     1       1.029   9.533  22.650  0.00  0.00    +0.000 OA
ATOM     29  C   UNL     1      -0.302   9.433  23.135  0.00  0.00    +0.000 C 
ENDBRANCH  22  28
ENDBRANCH  17  18
ENDBRANCH  10  17
TORSDOF 9
ENDMDL
MODEL 6
REMARK VINA RESULT:      -6.7      1.402      2.734
REMARK  Name = 
REMARK  13 active torsions:
REMARK  status: ('A' for Active; 'I' for Inactive)
REMARK    1  A    between atoms: C_1  and  C_2
REMARK    2  A    between atoms: C_2  and  O_3
REMARK    3  A    between atoms: O_3  and  C_4
REMARK    4  A    between atoms: C_4  and  C_6
REMARK    5  A    between atoms: C_6  and  N_7
REMARK    6  A    between atoms: C_16  and  C_17
REMARK    7  A    between atoms: C_17  and  C_18
REMARK    8  A    between atoms: C_20  and  O_21
REMARK    9  A    between atoms: O_21  and  C_22
REMARK   10  A    between atoms: C_23  and  O_24
REMARK   11  A    between atoms: O_24  and  C_25
REMARK   12  A    between atoms: C_26  and  O_27
REMARK   13  A    between atoms: O_27  and  C_28
REMARK                            x       y       z     vdW  Elec       q    Type
REMARK                         _______ _______ _______ _____ _____    ______ ____
ROOT
ATOM      1  N   UNL     1       3.089   4.965  18.660  0.00  0.00    +0.000 N 
ATOM      2  C   UNL     1       3.914   4.097  19.296  0.00  0.00    +0.000 A 
ATOM      3  C   UNL     1       5.285   4.289  19.332  0.00  0.00    +0.000 A 
ATOM      4  C   UNL     1       5.848   5.382  18.686  0.00  0.00    +0.000 A 
ATOM      5  C   UNL     1       7.247   5.524  18.627  0.00  0.00    +0.000 A 
ATOM      6  C   UNL     1       7.832   6.597  17.960  0.00  0.00    +0.000 A 
ATOM      7  C   UNL     1       7.023   7.553  17.375  0.00  0.00    +0.000 A 
ATOM      8  C   UNL     1       5.641   7.434  17.439  0.00  0.00    +0.000 A 
ATOM      9  C   UNL     1       5.005   6.332  18.071  0.00  0.00    +0.000 A 
ATOM     10  C   UNL     1       3.586   6.115  18.097  0.00  0.00    +0.000 A 
ENDROOT
BRANCH   1  11
ATOM     11  C   UNL     1       1.672   4.502  18.450  0.00  0.00    +0.000 C 
BRANCH  11  12
ATOM     12  C   UNL     1       1.741   3.018  18.176  0.00  0.00    +0.000 C 
ATOM     13  O   UNL     1       2.219   2.546  17.150  0.00  0.00    +0.000 OA
BRANCH  12  14
ATOM     14  O   UNL     1       1.203   2.316  19.195  0.00  0.00    +0.000 OA
BRANCH  14  16
ATOM     15  C   UNL     1       1.449   2.618  21.605  0.00  0.00    +0.000 C 
ATOM     16  C   UNL     1       0.764   3.077  20.331  0.00  0.00    +0.000 C 
ENDBRANCH  14  16
ENDBRANCH  12  14
ENDBRANCH  11  12
ENDBRANCH   1  11
BRANCH  10  17
ATOM     17  C   UNL     1       2.655   7.162  17.520  0.00  0.00    +0.000 C 
BRANCH  17  18
ATOM     18  C   UNL     1       2.154   8.252  18.439  0.00  0.00    +0.000 A 
ATOM     19  C   UNL     1       2.066   9.544  17.917  0.00  0.00    +0.000 A 
ATOM     20  C   UNL     1       1.485  10.602  18.635  0.00  0.00    +0.000 A 
ATOM     21  C   UNL     1       0.937  10.373  19.916  0.00  0.00    +0.000 A 
ATOM     22  C   UNL     1       1.020   9.069  20.453  0.00  0.00    +0.000 A 
ATOM     23  C   UNL     1       1.629   8.035  19.715  0.00  0.00    +0.000 A 
BRANCH  20  24
ATOM     24  O   UNL     1       1.341  11.829  18.036  0.00  0.00    +0.000 OA
ATOM     25  C   UNL     1       2.407  12.754  18.244  0.00  0.00    +0.000 C 
ENDBRANCH  20  24
BRANCH  21  26
ATOM     26  O   UNL     1       0.296  11.302  20.691  0.00  0.00    +0.000 OA
ATOM     27  C   UNL     1      -1.087  11.566  20.512  0.00  0.00    +0.000 C 
ENDBRANCH  21  26
BRANCH  22  28
ATOM     28  O   UNL     1       0.509   8.599  21.639  0.00  0.00    +0.000 OA
ATOM     29  C   UNL     1       0.824   9.275  22.847  0.00  0.00    +0.000 C 
ENDBRANCH  22  28
ENDBRANCH  17  18
ENDBRANCH  10  17
TORSDOF 9
ENDMDL
MODEL 7
REMARK VINA RESULT:      -6.7      1.511      2.703
REMARK  Name = 
REMARK  13 active torsions:
REMARK  status: ('A' for Active; 'I' for Inactive)
REMARK    1  A    between atoms: C_1  and  C_2
REMARK    2  A    between atoms: C_2  and  O_3
REMARK    3  A    between atoms: O_3  and  C_4
REMARK    4  A    between atoms: C_4  and  C_6
REMARK    5  A    between atoms: C_6  and  N_7
REMARK    6  A    between atoms: C_16  and  C_17
REMARK    7  A    between atoms: C_17  and  C_18
REMARK    8  A    between atoms: C_20  and  O_21
REMARK    9  A    between atoms: O_21  and  C_22
REMARK   10  A    between atoms: C_23  and  O_24
REMARK   11  A    between atoms: O_24  and  C_25
REMARK   12  A    between atoms: C_26  and  O_27
REMARK   13  A    between atoms: O_27  and  C_28
REMARK                            x       y       z     vdW  Elec       q    Type
REMARK                         _______ _______ _______ _____ _____    ______ ____
ROOT
ATOM      1  N   UNL     1       3.211   5.026  18.634  0.00  0.00    +0.000 N 
ATOM      2  C   UNL     1       4.013   4.167  19.311  0.00  0.00    +0.000 A 
ATOM      3  C   UNL     1       5.382   4.358  19.391  0.00  0.00    +0.000 A 
ATOM      4  C   UNL     1       5.969   5.440  18.749  0.00  0.00    +0.000 A 
ATOM      5  C   UNL     1       7.369   5.580  18.736  0.00  0.00    +0.000 A 
ATOM      6  C   UNL     1       7.978   6.642  18.073  0.00  0.00    +0.000 A 
ATOM      7  C   UNL     1       7.192   7.590  17.446  0.00  0.00    +0.000 A 
ATOM      8  C   UNL     1       5.808   7.474  17.465  0.00  0.00    +0.000 A 
ATOM      9  C   UNL     1       5.148   6.382  18.091  0.00  0.00    +0.000 A 
ATOM     10  C   UNL     1       3.730   6.167  18.071  0.00  0.00    +0.000 A 
ENDROOT
BRANCH   1  11
ATOM     11  C   UNL     1       1.802   4.562  18.382  0.00  0.00    +0.000 C 
BRANCH  11  12
ATOM     12  C   UNL     1       1.884   3.084  18.080  0.00  0.00    +0.000 C 
ATOM     13  O   UNL     1       2.334   2.637  17.030  0.00  0.00    +0.000 OA
BRANCH  12  14
ATOM     14  O   UNL     1       1.391   2.355  19.104  0.00  0.00    +0.000 OA
BRANCH  14  16
ATOM     15  C   UNL     1       1.400   2.787  21.506  0.00  0.00    +0.000 C 
ATOM     16  C   UNL     1       0.761   3.092  20.163  0.00  0.00    +0.000 C 
ENDBRANCH  14  16
ENDBRANCH  12  14
ENDBRANCH  11  12
ENDBRANCH   1  11
BRANCH  10  17
ATOM     17  C   UNL     1       2.820   7.206  17.448  0.00  0.00    +0.000 C 
BRANCH  17  18
ATOM     18  C   UNL     1       2.056   8.127  18.370  0.00  0.00    +0.000 A 
ATOM     19  C   UNL     1       1.252   9.106  17.782  0.00  0.00    +0.000 A 
ATOM     20  C   UNL     1       0.393   9.921  18.537  0.00  0.00    +0.000 A 
ATOM     21  C   UNL     1       0.297   9.747  19.935  0.00  0.00    +0.000 A 
ATOM     22  C   UNL     1       1.105   8.759  20.540  0.00  0.00    +0.000 A 
ATOM     23  C   UNL     1       1.971   7.972  19.756  0.00  0.00    +0.000 A 
BRANCH  20  24
ATOM     24  O   UNL     1      -0.441  10.803  17.896  0.00  0.00    +0.000 OA
ATOM     25  C   UNL     1      -1.700  10.280  17.476  0.00  0.00    +0.000 C 
ENDBRANCH  20  24
BRANCH  21  26
ATOM     26  O   UNL     1      -0.539  10.435  20.772  0.00  0.00    +0.000 OA
ATOM     27  C   UNL     1      -0.274  11.788  21.110  0.00  0.00    +0.000 C 
ENDBRANCH  21  26
BRANCH  22  28
ATOM     28  O   UNL     1       1.137   8.370  21.858  0.00  0.00    +0.000 OA
ATOM     29  C   UNL     1       1.733   9.228  22.820  0.00  0.00    +0.000 C 
ENDBRANCH  22  28
ENDBRANCH  17  18
ENDBRANCH  10  17
TORSDOF 9
ENDMDL
MODEL 8
REMARK VINA RESULT:      -6.7      2.017      3.992
REMARK  Name = 
REMARK  13 active torsions:
REMARK  status: ('A' for Active; 'I' for Inactive)
REMARK    1  A    between atoms: C_1  and  C_2
REMARK    2  A    between atoms: C_2  and  O_3
REMARK    3  A    between atoms: O_3  and  C_4
REMARK    4  A    between atoms: C_4  and  C_6
REMARK    5  A    between atoms: C_6  and  N_7
REMARK    6  A    between atoms: C_16  and  C_17
REMARK    7  A    between atoms: C_17  and  C_18
REMARK    8  A    between atoms: C_20  and  O_21
REMARK    9  A    between atoms: O_21  and  C_22
REMARK   10  A    between atoms: C_23  and  O_24
REMARK   11  A    between atoms: O_24  and  C_25
REMARK   12  A    between atoms: C_26  and  O_27
REMARK   13  A    between atoms: O_27  and  C_28
REMARK                            x       y       z     vdW  Elec       q    Type
REMARK                         _______ _______ _______ _____ _____    ______ ____
ROOT
ATOM      1  N   UNL     1       3.621   5.632  17.727  0.00  0.00    +0.000 N 
ATOM      2  C   UNL     1       3.429   4.665  16.796  0.00  0.00    +0.000 A 
ATOM      3  C   UNL     1       2.676   3.535  17.064  0.00  0.00    +0.000 A 
ATOM      4  C   UNL     1       2.112   3.360  18.321  0.00  0.00    +0.000 A 
ATOM      5  C   UNL     1       1.437   2.165  18.632  0.00  0.00    +0.000 A 
ATOM      6  C   UNL     1       0.890   1.958  19.895  0.00  0.00    +0.000 A 
ATOM      7  C   UNL     1       0.985   2.956  20.846  0.00  0.00    +0.000 A 
ATOM      8  C   UNL     1       1.634   4.147  20.548  0.00  0.00    +0.000 A 
ATOM      9  C   UNL     1       2.244   4.381  19.286  0.00  0.00    +0.000 A 
ATOM     10  C   UNL     1       2.998   5.555  18.949  0.00  0.00    +0.000 A 
ENDROOT
BRANCH   1  11
ATOM     11  C   UNL     1       4.678   6.656  17.415  0.00  0.00    +0.000 C 
BRANCH  11  12
ATOM     12  C   UNL     1       5.914   5.887  17.011  0.00  0.00    +0.000 C 
ATOM     13  O   UNL     1       6.516   6.086  15.961  0.00  0.00    +0.000 OA
BRANCH  12  14
ATOM     14  O   UNL     1       6.237   4.970  17.947  0.00  0.00    +0.000 OA
BRANCH  14  16
ATOM     15  C   UNL     1       8.068   6.052  19.145  0.00  0.00    +0.000 C 
ATOM     16  C   UNL     1       6.663   5.482  19.219  0.00  0.00    +0.000 C 
ENDBRANCH  14  16
ENDBRANCH  12  14
ENDBRANCH  11  12
ENDBRANCH   1  11
BRANCH  10  17
ATOM     17  C   UNL     1       3.082   6.702  19.936  0.00  0.00    +0.000 C 
BRANCH  17  18
ATOM     18  C   UNL     1       1.992   7.748  19.906  0.00  0.00    +0.000 A 
ATOM     19  C   UNL     1       1.124   7.805  20.999  0.00  0.00    +0.000 A 
ATOM     20  C   UNL     1       0.166   8.822  21.141  0.00  0.00    +0.000 A 
ATOM     21  C   UNL     1       0.077   9.851  20.178  0.00  0.00    +0.000 A 
ATOM     22  C   UNL     1       0.951   9.804  19.069  0.00  0.00    +0.000 A 
ATOM     23  C   UNL     1       1.886   8.757  18.946  0.00  0.00    +0.000 A 
BRANCH  20  24
ATOM     24  O   UNL     1      -0.597   8.880  22.280  0.00  0.00    +0.000 OA
ATOM     25  C   UNL     1       0.011   9.505  23.409  0.00  0.00    +0.000 C 
ENDBRANCH  20  24
BRANCH  21  26
ATOM     26  O   UNL     1      -0.771  10.925  20.229  0.00  0.00    +0.000 OA
ATOM     27  C   UNL     1      -0.405  12.104  20.928  0.00  0.00    +0.000 C 
ENDBRANCH  21  26
BRANCH  22  28
ATOM     28  O   UNL     1       1.090  10.716  18.050  0.00  0.00    +0.000 OA
ATOM     29  C   UNL     1       2.048  11.756  18.176  0.00  0.00    +0.000 C 
ENDBRANCH  22  28
ENDBRANCH  17  18
ENDBRANCH  10  17
TORSDOF 9
ENDMDL
MODEL 9
REMARK VINA RESULT:      -6.7      3.350      6.745
REMARK  Name = 
REMARK  13 active torsions:
REMARK  status: ('A' for Active; 'I' for Inactive)
REMARK    1  A    between atoms: C_1  and  C_2
REMARK    2  A    between atoms: C_2  and  O_3
REMARK    3  A    between atoms: O_3  and  C_4
REMARK    4  A    between atoms: C_4  and  C_6
REMARK    5  A    between atoms: C_6  and  N_7
REMARK    6  A    between atoms: C_16  and  C_17
REMARK    7  A    between atoms: C_17  and  C_18
REMARK    8  A    between atoms: C_20  and  O_21
REMARK    9  A    between atoms: O_21  and  C_22
REMARK   10  A    between atoms: C_23  and  O_24
REMARK   11  A    between atoms: O_24  and  C_25
REMARK   12  A    between atoms: C_26  and  O_27
REMARK   13  A    between atoms: O_27  and  C_28
REMARK                            x       y       z     vdW  Elec       q    Type
REMARK                         _______ _______ _______ _____ _____    ______ ____
ROOT
ATOM      1  N   UNL     1       2.798   3.496  19.388  0.00  0.00    +0.000 N 
ATOM      2  C   UNL     1       2.389   3.845  20.632  0.00  0.00    +0.000 A 
ATOM      3  C   UNL     1       2.020   5.144  20.940  0.00  0.00    +0.000 A 
ATOM      4  C   UNL     1       2.084   6.132  19.965  0.00  0.00    +0.000 A 
ATOM      5  C   UNL     1       1.814   7.472  20.299  0.00  0.00    +0.000 A 
ATOM      6  C   UNL     1       1.901   8.481  19.343  0.00  0.00    +0.000 A 
ATOM      7  C   UNL     1       2.227   8.153  18.041  0.00  0.00    +0.000 A 
ATOM      8  C   UNL     1       2.480   6.833  17.694  0.00  0.00    +0.000 A 
ATOM      9  C   UNL     1       2.446   5.780  18.647  0.00  0.00    +0.000 A 
ATOM     10  C   UNL     1       2.779   4.413  18.365  0.00  0.00    +0.000 A 
ENDROOT
BRANCH   1  11
ATOM     11  C   UNL     1       3.436   2.140  19.253  0.00  0.00    +0.000 C 
BRANCH  11  12
ATOM     12  C   UNL     1       4.826   2.260  19.834  0.00  0.00    +0.000 C 
ATOM     13  O   UNL     1       5.475   3.300  19.812  0.00  0.00    +0.000 OA
BRANCH  12  14
ATOM     14  O   UNL     1       5.234   1.083  20.352  0.00  0.00    +0.000 OA
BRANCH  14  16
ATOM     15  C   UNL     1       6.292  -0.174  22.157  0.00  0.00    +0.000 C 
ATOM     16  C   UNL     1       5.525   1.074  21.758  0.00  0.00    +0.000 C 
ENDBRANCH  14  16
ENDBRANCH  12  14
ENDBRANCH  11  12
ENDBRANCH   1  11
BRANCH  10  17
ATOM     17  C   UNL     1       3.086   3.993  16.941  0.00  0.00    +0.000 C 
BRANCH  17  18
ATOM     18  C   UNL     1       4.454   4.311  16.385  0.00  0.00    +0.000 A 
ATOM     19  C   UNL     1       4.815   3.706  15.178  0.00  0.00    +0.000 A 
ATOM     20  C   UNL     1       6.000   4.037  14.502  0.00  0.00    +0.000 A 
ATOM     21  C   UNL     1       6.858   5.032  15.020  0.00  0.00    +0.000 A 
ATOM     22  C   UNL     1       6.502   5.651  16.239  0.00  0.00    +0.000 A 
ATOM     23  C   UNL     1       5.316   5.280  16.903  0.00  0.00    +0.000 A 
BRANCH  20  24
ATOM     24  O   UNL     1       6.258   3.479  13.275  0.00  0.00    +0.000 OA
ATOM     25  C   UNL     1       5.141   3.356  12.396  0.00  0.00    +0.000 C 
ENDBRANCH  20  24
BRANCH  21  26
ATOM     26  O   UNL     1       8.009   5.483  14.431  0.00  0.00    +0.000 OA
ATOM     27  C   UNL     1       8.100   5.611  13.021  0.00  0.00    +0.000 C 
ENDBRANCH  21  26
BRANCH  22  28
ATOM     28  O   UNL     1       7.140   6.675  16.897  0.00  0.00    +0.000 OA
ATOM     29  C   UNL     1       7.512   6.502  18.256  0.00  0.00    +0.000 C 
ENDBRANCH  22  28
ENDBRANCH  17  18
ENDBRANCH  10  17
TORSDOF 9
ENDMDL
