MODEL 1
REMARK VINA RESULT:      -8.3      0.000      0.000
REMARK  Name = 
REMARK  9 active torsions:
REMARK  status: ('A' for Active; 'I' for Inactive)
REMARK    1  A    between atoms: C_1  and  N_2
REMARK    2  A    between atoms: C_4  and  C_5
REMARK    3  A    between atoms: C_5  and  N_6
REMARK    4  A    between atoms: N_6  and  C_7
REMARK    5  A    between atoms: N_6  and  C_9
REMARK    6  A    between atoms: C_9  and  C_10
REMARK    7  A    between atoms: C_17  and  C_18
REMARK    8  A    between atoms: C_18  and  C_19
REMARK    9  A    between atoms: C_25  and  N_26
REMARK                            x       y       z     vdW  Elec       q    Type
REMARK                         _______ _______ _______ _____ _____    ______ ____
ROOT
ATOM      1  C   UNL     1       1.807   3.819  19.662  0.00  0.00    +0.000 C 
ATOM      2  N   UNL     1       2.886   4.611  19.115  0.00  0.00    +0.000 NA
ATOM      3  C   UNL     1       4.147   4.469  19.816  0.00  0.00    +0.000 C 
ATOM      4  C   UNL     1       5.078   5.281  18.924  0.00  0.00    +0.000 C 
ATOM      5  C   UNL     1       4.149   6.280  18.183  0.00  0.00    +0.000 C 
ATOM      6  C   UNL     1       2.711   6.021  18.652  0.00  0.00    +0.000 C 
ENDROOT
BRANCH   4   7
ATOM      7  C   UNL     1       5.872   4.346  17.978  0.00  0.00    +0.000 C 
BRANCH   7   8
ATOM      8  N   UNL     1       6.299   5.050  16.734  0.00  0.00    +0.000 N 
BRANCH   8   9
ATOM      9  C   UNL     1       7.080   6.154  16.799  0.00  0.00    +0.000 C 
ATOM     10  N   UNL     1       7.755   7.088  16.895  0.00  0.00    +0.000 NA
ENDBRANCH   8   9
BRANCH   8  11
ATOM     11  C   UNL     1       5.341   4.882  15.610  0.00  0.00    +0.000 C 
BRANCH  11  12
ATOM     12  C   UNL     1       5.983   4.537  14.294  0.00  0.00    +0.000 A 
ATOM     13  C   UNL     1       5.378   3.605  13.438  0.00  0.00    +0.000 A 
ATOM     14  C   UNL     1       5.935   3.316  12.193  0.00  0.00    +0.000 A 
ATOM     15  C   UNL     1       7.106   3.949  11.789  0.00  0.00    +0.000 A 
ATOM     16  C   UNL     1       7.734   4.857  12.640  0.00  0.00    +0.000 A 
ATOM     17  C   UNL     1       7.181   5.145  13.891  0.00  0.00    +0.000 A 
ENDBRANCH  11  12
ENDBRANCH   8  11
ENDBRANCH   7   8
ENDBRANCH   4   7
BRANCH   6  18
ATOM     18  C   UNL     1       2.230   7.110  19.659  0.00  0.00    +0.000 C 
BRANCH  18  19
ATOM     19  C   UNL     1       1.740   8.551  19.305  0.00  0.00    +0.000 A 
ATOM     20  C   UNL     1       1.639   8.803  17.936  0.00  0.00    +0.000 A 
ATOM     21  N   UNL     1       1.922  10.115  17.821  0.00  0.00    +0.000 N 
ATOM     22  C   UNL     1       1.125  10.725  18.741  0.00  0.00    +0.000 A 
ATOM     23  C   UNL     1       0.558  11.978  18.679  0.00  0.00    +0.000 A 
ATOM     24  C   UNL     1      -0.319  12.329  19.695  0.00  0.00    +0.000 A 
ATOM     25  C   UNL     1      -0.570  11.458  20.755  0.00  0.00    +0.000 A 
ATOM     26  C   UNL     1       0.167  10.216  20.876  0.00  0.00    +0.000 A 
ATOM     27  C   UNL     1       0.992   9.768  19.787  0.00  0.00    +0.000 A 
ATOM     28  H   UNL     1       2.532  10.578  17.162  0.00  0.00    +0.000 HD
BRANCH  25  29
ATOM     29  N   UNL     1      -1.646  11.827  21.630  0.00  0.00    +0.000 N 
ATOM     30  C   UNL     1      -1.744  11.532  22.989  0.00  0.00    +0.000 A 
ATOM     31  C   UNL     1      -2.896  12.136  23.439  0.00  0.00    +0.000 A 
ATOM     32  N   UNL     1      -3.539  12.757  22.410  0.00  0.00    +0.000 NA
ATOM     33  C   UNL     1      -2.777  12.552  21.348  0.00  0.00    +0.000 A 
ENDBRANCH  25  29
ENDBRANCH  18  19
ENDBRANCH   6  18
TORSDOF 8
ENDMDL
MODEL 2
REMARK VINA RESULT:      -8.0      1.759     11.371
REMARK  Name = 
REMARK  9 active torsions:
REMARK  status: ('A' for Active; 'I' for Inactive)
REMARK    1  A    between atoms: C_1  and  N_2
REMARK    2  A    between atoms: C_4  and  C_5
REMARK    3  A    between atoms: C_5  and  N_6
REMARK    4  A    between atoms: N_6  and  C_7
REMARK    5  A    between atoms: N_6  and  C_9
REMARK    6  A    between atoms: C_9  and  C_10
REMARK    7  A    between atoms: C_17  and  C_18
REMARK    8  A    between atoms: C_18  and  C_19
REMARK    9  A    between atoms: C_25  and  N_26
REMARK                            x       y       z     vdW  Elec       q    Type
REMARK                         _______ _______ _______ _____ _____    ______ ____
ROOT
ATOM      1  C   UNL     1       1.141   9.421  18.064  0.00  0.00    +0.000 C 
ATOM      2  N   UNL     1       0.578   9.664  19.373  0.00  0.00    +0.000 NA
ATOM      3  C   UNL     1       1.007  10.906  19.988  0.00  0.00    +0.000 C 
ATOM      4  C   UNL     1       0.141  10.933  21.240  0.00  0.00    +0.000 C 
ATOM      5  C   UNL     1      -0.220   9.448  21.510  0.00  0.00    +0.000 C 
ATOM      6  C   UNL     1       0.435   8.600  20.411  0.00  0.00    +0.000 C 
ENDROOT
BRANCH   4   7
ATOM      7  C   UNL     1      -1.092  11.846  21.025  0.00  0.00    +0.000 C 
BRANCH   7   8
ATOM      8  N   UNL     1      -1.259  12.824  22.140  0.00  0.00    +0.000 N 
BRANCH   8   9
ATOM      9  C   UNL     1      -0.363  13.822  22.323  0.00  0.00    +0.000 C 
ATOM     10  N   UNL     1       0.402  14.665  22.519  0.00  0.00    +0.000 NA
ENDBRANCH   8   9
BRANCH   8  11
ATOM     11  C   UNL     1      -1.995  12.261  23.303  0.00  0.00    +0.000 C 
BRANCH  11  12
ATOM     12  C   UNL     1      -3.472  12.550  23.301  0.00  0.00    +0.000 A 
ATOM     13  C   UNL     1      -4.105  12.973  22.124  0.00  0.00    +0.000 A 
ATOM     14  C   UNL     1      -5.482  13.193  22.097  0.00  0.00    +0.000 A 
ATOM     15  C   UNL     1      -6.242  13.000  23.246  0.00  0.00    +0.000 A 
ATOM     16  C   UNL     1      -5.622  12.606  24.431  0.00  0.00    +0.000 A 
ATOM     17  C   UNL     1      -4.241  12.391  24.463  0.00  0.00    +0.000 A 
ENDBRANCH  11  12
ENDBRANCH   8  11
ENDBRANCH   7   8
ENDBRANCH   4   7
BRANCH   6  18
ATOM     18  C   UNL     1       1.702   7.857  20.935  0.00  0.00    +0.000 C 
BRANCH  18  19
ATOM     19  C   UNL     1       2.198   6.442  20.493  0.00  0.00    +0.000 A 
ATOM     20  C   UNL     1       1.271   5.419  20.696  0.00  0.00    +0.000 A 
ATOM     21  N   UNL     1       2.029   4.336  20.956  0.00  0.00    +0.000 N 
ATOM     22  C   UNL     1       2.949   4.305  19.953  0.00  0.00    +0.000 A 
ATOM     23  C   UNL     1       3.543   3.205  19.376  0.00  0.00    +0.000 A 
ATOM     24  C   UNL     1       4.365   3.429  18.281  0.00  0.00    +0.000 A 
ATOM     25  C   UNL     1       4.610   4.724  17.825  0.00  0.00    +0.000 A 
ATOM     26  C   UNL     1       4.103   5.869  18.554  0.00  0.00    +0.000 A 
ATOM     27  C   UNL     1       3.155   5.673  19.617  0.00  0.00    +0.000 A 
ATOM     28  H   UNL     1       1.919   3.643  21.685  0.00  0.00    +0.000 HD
BRANCH  25  29
ATOM     29  N   UNL     1       5.294   4.827  16.567  0.00  0.00    +0.000 N 
ATOM     30  C   UNL     1       5.851   3.775  15.840  0.00  0.00    +0.000 A 
ATOM     31  C   UNL     1       6.337   4.319  14.674  0.00  0.00    +0.000 A 
ATOM     32  N   UNL     1       6.143   5.668  14.662  0.00  0.00    +0.000 NA
ATOM     33  C   UNL     1       5.527   5.941  15.801  0.00  0.00    +0.000 A 
ENDBRANCH  25  29
ENDBRANCH  18  19
ENDBRANCH   6  18
TORSDOF 8
ENDMDL
MODEL 3
REMARK VINA RESULT:      -8.0      2.858      5.182
REMARK  Name = 
REMARK  9 active torsions:
REMARK  status: ('A' for Active; 'I' for Inactive)
REMARK    1  A    between atoms: C_1  and  N_2
REMARK    2  A    between atoms: C_4  and  C_5
REMARK    3  A    between atoms: C_5  and  N_6
REMARK    4  A    between atoms: N_6  and  C_7
REMARK    5  A    between atoms: N_6  and  C_9
REMARK    6  A    between atoms: C_9  and  C_10
REMARK    7  A    between atoms: C_17  and  C_18
REMARK    8  A    between atoms: C_18  and  C_19
REMARK    9  A    between atoms: C_25  and  N_26
REMARK                            x       y       z     vdW  Elec       q    Type
REMARK                         _______ _______ _______ _____ _____    ______ ____
ROOT
ATOM      1  C   UNL     1       1.714   6.570  20.411  0.00  0.00    +0.000 C 
ATOM      2  N   UNL     1       2.366   6.765  19.136  0.00  0.00    +0.000 NA
ATOM      3  C   UNL     1       3.794   6.511  19.150  0.00  0.00    +0.000 C 
ATOM      4  C   UNL     1       4.136   6.647  17.671  0.00  0.00    +0.000 C 
ATOM      5  C   UNL     1       3.018   7.550  17.085  0.00  0.00    +0.000 C 
ATOM      6  C   UNL     1       2.056   7.908  18.226  0.00  0.00    +0.000 C 
ENDROOT
BRANCH   4   7
ATOM      7  C   UNL     1       4.225   5.250  17.007  0.00  0.00    +0.000 C 
BRANCH   7   8
ATOM      8  N   UNL     1       4.983   4.282  17.852  0.00  0.00    +0.000 N 
BRANCH   8   9
ATOM      9  C   UNL     1       6.329   4.374  17.968  0.00  0.00    +0.000 C 
ATOM     10  N   UNL     1       7.481   4.422  18.040  0.00  0.00    +0.000 NA
ENDBRANCH   8   9
BRANCH   8  11
ATOM     11  C   UNL     1       4.315   2.960  17.967  0.00  0.00    +0.000 C 
BRANCH  11  12
ATOM     12  C   UNL     1       3.207   2.911  18.984  0.00  0.00    +0.000 A 
ATOM     13  C   UNL     1       3.509   2.863  20.352  0.00  0.00    +0.000 A 
ATOM     14  C   UNL     1       2.492   2.871  21.306  0.00  0.00    +0.000 A 
ATOM     15  C   UNL     1       1.160   2.921  20.906  0.00  0.00    +0.000 A 
ATOM     16  C   UNL     1       0.844   2.940  19.548  0.00  0.00    +0.000 A 
ATOM     17  C   UNL     1       1.861   2.927  18.590  0.00  0.00    +0.000 A 
ENDBRANCH  11  12
ENDBRANCH   8  11
ENDBRANCH   7   8
ENDBRANCH   4   7
BRANCH   6  18
ATOM     18  C   UNL     1       2.272   9.370  18.723  0.00  0.00    +0.000 C 
BRANCH  18  19
ATOM     19  C   UNL     1       1.157  10.427  19.010  0.00  0.00    +0.000 A 
ATOM     20  C   UNL     1       0.267  10.063  20.022  0.00  0.00    +0.000 A 
ATOM     21  N   UNL     1      -0.898  10.631  19.654  0.00  0.00    +0.000 N 
ATOM     22  C   UNL     1      -0.584  11.927  19.383  0.00  0.00    +0.000 A 
ATOM     23  C   UNL     1      -1.371  13.046  19.547  0.00  0.00    +0.000 A 
ATOM     24  C   UNL     1      -0.779  14.278  19.311  0.00  0.00    +0.000 A 
ATOM     25  C   UNL     1       0.545  14.364  18.881  0.00  0.00    +0.000 A 
ATOM     26  C   UNL     1       1.293  13.165  18.561  0.00  0.00    +0.000 A 
ATOM     27  C   UNL     1       0.755  11.877  18.903  0.00  0.00    +0.000 A 
ATOM     28  H   UNL     1      -1.825  10.227  19.640  0.00  0.00    +0.000 HD
BRANCH  25  29
ATOM     29  N   UNL     1       1.119  15.679  18.876  0.00  0.00    +0.000 N 
ATOM     30  C   UNL     1       0.518  16.845  19.349  0.00  0.00    +0.000 A 
ATOM     31  C   UNL     1       1.449  17.849  19.213  0.00  0.00    +0.000 A 
ATOM     32  N   UNL     1       2.587  17.366  18.639  0.00  0.00    +0.000 NA
ATOM     33  C   UNL     1       2.359  16.077  18.445  0.00  0.00    +0.000 A 
ENDBRANCH  25  29
ENDBRANCH  18  19
ENDBRANCH   6  18
TORSDOF 8
ENDMDL
MODEL 4
REMARK VINA RESULT:      -8.0      2.776      4.817
REMARK  Name = 
REMARK  9 active torsions:
REMARK  status: ('A' for Active; 'I' for Inactive)
REMARK    1  A    between atoms: C_1  and  N_2
REMARK    2  A    between atoms: C_4  and  C_5
REMARK    3  A    between atoms: C_5  and  N_6
REMARK    4  A    between atoms: N_6  and  C_7
REMARK    5  A    between atoms: N_6  and  C_9
REMARK    6  A    between atoms: C_9  and  C_10
REMARK    7  A    between atoms: C_17  and  C_18
REMARK    8  A    between atoms: C_18  and  C_19
REMARK    9  A    between atoms: C_25  and  N_26
REMARK                            x       y       z     vdW  Elec       q    Type
REMARK                         _______ _______ _______ _____ _____    ______ ____
ROOT
ATOM      1  C   UNL     1       2.390   5.315  20.493  0.00  0.00    +0.000 C 
ATOM      2  N   UNL     1       2.787   6.079  19.333  0.00  0.00    +0.000 NA
ATOM      3  C   UNL     1       4.217   6.302  19.224  0.00  0.00    +0.000 C 
ATOM      4  C   UNL     1       4.311   6.975  17.861  0.00  0.00    +0.000 C 
ATOM      5  C   UNL     1       2.912   7.606  17.629  0.00  0.00    +0.000 C 
ATOM      6  C   UNL     1       2.042   7.281  18.851  0.00  0.00    +0.000 C 
ENDROOT
BRANCH   4   7
ATOM      7  C   UNL     1       4.719   5.946  16.777  0.00  0.00    +0.000 C 
BRANCH   7   8
ATOM      8  N   UNL     1       5.285   4.702  17.380  0.00  0.00    +0.000 N 
BRANCH   8   9
ATOM      9  C   UNL     1       6.570   4.664  17.803  0.00  0.00    +0.000 C 
ATOM     10  N   UNL     1       7.675   4.665  18.142  0.00  0.00    +0.000 NA
ENDBRANCH   8   9
BRANCH   8  11
ATOM     11  C   UNL     1       4.624   3.465  16.889  0.00  0.00    +0.000 C 
BRANCH  11  12
ATOM     12  C   UNL     1       3.426   3.040  17.695  0.00  0.00    +0.000 A 
ATOM     13  C   UNL     1       2.149   3.508  17.357  0.00  0.00    +0.000 A 
ATOM     14  C   UNL     1       1.025   3.080  18.063  0.00  0.00    +0.000 A 
ATOM     15  C   UNL     1       1.163   2.184  19.118  0.00  0.00    +0.000 A 
ATOM     16  C   UNL     1       2.430   1.732  19.483  0.00  0.00    +0.000 A 
ATOM     17  C   UNL     1       3.559   2.163  18.781  0.00  0.00    +0.000 A 
ENDBRANCH  11  12
ENDBRANCH   8  11
ENDBRANCH   7   8
ENDBRANCH   4   7
BRANCH   6  18
ATOM     18  C   UNL     1       1.881   8.516  19.788  0.00  0.00    +0.000 C 
BRANCH  18  19
ATOM     19  C   UNL     1       1.030   9.796  19.501  0.00  0.00    +0.000 A 
ATOM     20  C   UNL     1      -0.170   9.858  20.211  0.00  0.00    +0.000 A 
ATOM     21  N   UNL     1      -1.005  10.519  19.387  0.00  0.00    +0.000 N 
ATOM     22  C   UNL     1      -0.315  11.631  19.011  0.00  0.00    +0.000 A 
ATOM     23  C   UNL     1      -0.812  12.879  18.706  0.00  0.00    +0.000 A 
ATOM     24  C   UNL     1       0.110  13.888  18.467  0.00  0.00    +0.000 A 
ATOM     25  C   UNL     1       1.479  13.624  18.488  0.00  0.00    +0.000 A 
ATOM     26  C   UNL     1       1.964  12.268  18.648  0.00  0.00    +0.000 A 
ATOM     27  C   UNL     1       1.049  11.223  19.016  0.00  0.00    +0.000 A 
ATOM     28  H   UNL     1      -1.961  10.300  19.139  0.00  0.00    +0.000 HD
BRANCH  25  29
ATOM     29  N   UNL     1       2.340  14.772  18.441  0.00  0.00    +0.000 N 
ATOM     30  C   UNL     1       3.729  14.758  18.316  0.00  0.00    +0.000 A 
ATOM     31  C   UNL     1       4.128  16.073  18.243  0.00  0.00    +0.000 A 
ATOM     32  N   UNL     1       3.053  16.902  18.357  0.00  0.00    +0.000 NA
ATOM     33  C   UNL     1       2.007  16.102  18.479  0.00  0.00    +0.000 A 
ENDBRANCH  25  29
ENDBRANCH  18  19
ENDBRANCH   6  18
TORSDOF 8
ENDMDL
MODEL 5
REMARK VINA RESULT:      -8.0      1.787     11.512
REMARK  Name = 
REMARK  9 active torsions:
REMARK  status: ('A' for Active; 'I' for Inactive)
REMARK    1  A    between atoms: C_1  and  N_2
REMARK    2  A    between atoms: C_4  and  C_5
REMARK    3  A    between atoms: C_5  and  N_6
REMARK    4  A    between atoms: N_6  and  C_7
REMARK    5  A    between atoms: N_6  and  C_9
REMARK    6  A    between atoms: C_9  and  C_10
REMARK    7  A    between atoms: C_17  and  C_18
REMARK    8  A    between atoms: C_18  and  C_19
REMARK    9  A    between atoms: C_25  and  N_26
REMARK                            x       y       z     vdW  Elec       q    Type
REMARK                         _______ _______ _______ _____ _____    ______ ____
ROOT
ATOM      1  C   UNL     1       1.373   8.880  21.734  0.00  0.00    +0.000 C 
ATOM      2  N   UNL     1       0.857   9.665  20.635  0.00  0.00    +0.000 NA
ATOM      3  C   UNL     1      -0.589   9.666  20.527  0.00  0.00    +0.000 C 
ATOM      4  C   UNL     1      -0.804  10.676  19.407  0.00  0.00    +0.000 C 
ATOM      5  C   UNL     1       0.523  10.670  18.603  0.00  0.00    +0.000 C 
ATOM      6  C   UNL     1       1.474   9.669  19.274  0.00  0.00    +0.000 C 
ENDROOT
BRANCH   4   7
ATOM      7  C   UNL     1      -1.173  12.062  19.993  0.00  0.00    +0.000 C 
BRANCH   7   8
ATOM      8  N   UNL     1      -2.647  12.300  19.965  0.00  0.00    +0.000 N 
BRANCH   8   9
ATOM      9  C   UNL     1      -3.396  11.865  18.924  0.00  0.00    +0.000 C 
ATOM     10  N   UNL     1      -4.023  11.527  18.014  0.00  0.00    +0.000 NA
ENDBRANCH   8   9
BRANCH   8  11
ATOM     11  C   UNL     1      -3.056  13.511  20.723  0.00  0.00    +0.000 C 
BRANCH  11  12
ATOM     12  C   UNL     1      -3.794  13.221  22.003  0.00  0.00    +0.000 A 
ATOM     13  C   UNL     1      -5.174  13.455  22.088  0.00  0.00    +0.000 A 
ATOM     14  C   UNL     1      -5.878  13.141  23.249  0.00  0.00    +0.000 A 
ATOM     15  C   UNL     1      -5.212  12.596  24.343  0.00  0.00    +0.000 A 
ATOM     16  C   UNL     1      -3.836  12.385  24.283  0.00  0.00    +0.000 A 
ATOM     17  C   UNL     1      -3.126  12.703  23.122  0.00  0.00    +0.000 A 
ENDBRANCH  11  12
ENDBRANCH   8  11
ENDBRANCH   7   8
ENDBRANCH   4   7
BRANCH   6  18
ATOM     18  C   UNL     1       1.572   8.338  18.467  0.00  0.00    +0.000 C 
BRANCH  18  19
ATOM     19  C   UNL     1       2.627   7.202  18.673  0.00  0.00    +0.000 A 
ATOM     20  C   UNL     1       2.229   6.205  19.566  0.00  0.00    +0.000 A 
ATOM     21  N   UNL     1       3.380   5.797  20.135  0.00  0.00    +0.000 N 
ATOM     22  C   UNL     1       4.220   5.557  19.092  0.00  0.00    +0.000 A 
ATOM     23  C   UNL     1       5.226   4.621  19.007  0.00  0.00    +0.000 A 
ATOM     24  C   UNL     1       5.868   4.488  17.784  0.00  0.00    +0.000 A 
ATOM     25  C   UNL     1       5.532   5.309  16.708  0.00  0.00    +0.000 A 
ATOM     26  C   UNL     1       4.585   6.393  16.878  0.00  0.00    +0.000 A 
ATOM     27  C   UNL     1       3.817   6.485  18.089  0.00  0.00    +0.000 A 
ATOM     28  H   UNL     1       3.581   5.630  21.112  0.00  0.00    +0.000 HD
BRANCH  25  29
ATOM     29  N   UNL     1       6.100   4.947  15.440  0.00  0.00    +0.000 N 
ATOM     30  C   UNL     1       5.597   3.998  14.550  0.00  0.00    +0.000 A 
ATOM     31  C   UNL     1       6.413   4.029  13.443  0.00  0.00    +0.000 A 
ATOM     32  N   UNL     1       7.423   4.926  13.623  0.00  0.00    +0.000 NA
ATOM     33  C   UNL     1       7.215   5.451  14.819  0.00  0.00    +0.000 A 
ENDBRANCH  25  29
ENDBRANCH  18  19
ENDBRANCH   6  18
TORSDOF 8
ENDMDL
MODEL 6
REMARK VINA RESULT:      -8.0      2.158     10.241
REMARK  Name = 
REMARK  9 active torsions:
REMARK  status: ('A' for Active; 'I' for Inactive)
REMARK    1  A    between atoms: C_1  and  N_2
REMARK    2  A    between atoms: C_4  and  C_5
REMARK    3  A    between atoms: C_5  and  N_6
REMARK    4  A    between atoms: N_6  and  C_7
REMARK    5  A    between atoms: N_6  and  C_9
REMARK    6  A    between atoms: C_9  and  C_10
REMARK    7  A    between atoms: C_17  and  C_18
REMARK    8  A    between atoms: C_18  and  C_19
REMARK    9  A    between atoms: C_25  and  N_26
REMARK                            x       y       z     vdW  Elec       q    Type
REMARK                         _______ _______ _______ _____ _____    ______ ____
ROOT
ATOM      1  C   UNL     1       0.687   9.377  23.210  0.00  0.00    +0.000 C 
ATOM      2  N   UNL     1       0.905   9.440  21.783  0.00  0.00    +0.000 NA
ATOM      3  C   UNL     1      -0.234   9.919  21.024  0.00  0.00    +0.000 C 
ATOM      4  C   UNL     1       0.359  10.014  19.623  0.00  0.00    +0.000 C 
ATOM      5  C   UNL     1       1.547   9.016  19.624  0.00  0.00    +0.000 C 
ATOM      6  C   UNL     1       1.622   8.376  21.018  0.00  0.00    +0.000 C 
ENDROOT
BRANCH   4   7
ATOM      7  C   UNL     1       0.768  11.474  19.307  0.00  0.00    +0.000 C 
BRANCH   7   8
ATOM      8  N   UNL     1      -0.228  12.149  18.425  0.00  0.00    +0.000 N 
BRANCH   8   9
ATOM      9  C   UNL     1      -0.398  13.492  18.476  0.00  0.00    +0.000 C 
ATOM     10  N   UNL     1      -0.525  14.637  18.557  0.00  0.00    +0.000 NA
ENDBRANCH   8   9
BRANCH   8  11
ATOM     11  C   UNL     1      -1.366  11.269  18.049  0.00  0.00    +0.000 C 
BRANCH  11  12
ATOM     12  C   UNL     1      -2.703  11.731  18.563  0.00  0.00    +0.000 A 
ATOM     13  C   UNL     1      -3.843  11.622  17.754  0.00  0.00    +0.000 A 
ATOM     14  C   UNL     1      -5.096  11.997  18.238  0.00  0.00    +0.000 A 
ATOM     15  C   UNL     1      -5.225  12.490  19.532  0.00  0.00    +0.000 A 
ATOM     16  C   UNL     1      -4.096  12.630  20.338  0.00  0.00    +0.000 A 
ATOM     17  C   UNL     1      -2.838  12.260  19.854  0.00  0.00    +0.000 A 
ENDBRANCH  11  12
ENDBRANCH   8  11
ENDBRANCH   7   8
ENDBRANCH   4   7
BRANCH   6  18
ATOM     18  C   UNL     1       1.063   6.920  21.013  0.00  0.00    +0.000 C 
BRANCH  18  19
ATOM     19  C   UNL     1       1.833   5.631  20.577  0.00  0.00    +0.000 A 
ATOM     20  C   UNL     1       1.038   4.486  20.504  0.00  0.00    +0.000 A 
ATOM     21  N   UNL     1       1.877   3.484  20.832  0.00  0.00    +0.000 N 
ATOM     22  C   UNL     1       2.970   3.672  20.043  0.00  0.00    +0.000 A 
ATOM     23  C   UNL     1       3.816   2.719  19.519  0.00  0.00    +0.000 A 
ATOM     24  C   UNL     1       4.796   3.156  18.640  0.00  0.00    +0.000 A 
ATOM     25  C   UNL     1       4.940   4.511  18.345  0.00  0.00    +0.000 A 
ATOM     26  C   UNL     1       4.141   5.503  19.038  0.00  0.00    +0.000 A 
ATOM     27  C   UNL     1       3.042   5.082  19.863  0.00  0.00    +0.000 A 
ATOM     28  H   UNL     1       1.726   2.711  21.467  0.00  0.00    +0.000 HD
BRANCH  25  29
ATOM     29  N   UNL     1       5.834   4.829  17.269  0.00  0.00    +0.000 N 
ATOM     30  C   UNL     1       6.027   4.082  16.107  0.00  0.00    +0.000 A 
ATOM     31  C   UNL     1       6.914   4.789  15.329  0.00  0.00    +0.000 A 
ATOM     32  N   UNL     1       7.312   5.922  15.974  0.00  0.00    +0.000 NA
ATOM     33  C   UNL     1       6.659   5.915  17.125  0.00  0.00    +0.000 A 
ENDBRANCH  25  29
ENDBRANCH  18  19
ENDBRANCH   6  18
TORSDOF 8
ENDMDL
MODEL 7
REMARK VINA RESULT:      -8.0      2.674      4.381
REMARK  Name = 
REMARK  9 active torsions:
REMARK  status: ('A' for Active; 'I' for Inactive)
REMARK    1  A    between atoms: C_1  and  N_2
REMARK    2  A    between atoms: C_4  and  C_5
REMARK    3  A    between atoms: C_5  and  N_6
REMARK    4  A    between atoms: N_6  and  C_7
REMARK    5  A    between atoms: N_6  and  C_9
REMARK    6  A    between atoms: C_9  and  C_10
REMARK    7  A    between atoms: C_17  and  C_18
REMARK    8  A    between atoms: C_18  and  C_19
REMARK    9  A    between atoms: C_25  and  N_26
REMARK                            x       y       z     vdW  Elec       q    Type
REMARK                         _______ _______ _______ _____ _____    ______ ____
ROOT
ATOM      1  C   UNL     1       2.384   8.730  17.946  0.00  0.00    +0.000 C 
ATOM      2  N   UNL     1       2.456   7.628  18.878  0.00  0.00    +0.000 NA
ATOM      3  C   UNL     1       2.107   6.340  18.309  0.00  0.00    +0.000 C 
ATOM      4  C   UNL     1       2.429   5.405  19.468  0.00  0.00    +0.000 C 
ATOM      5  C   UNL     1       2.334   6.294  20.736  0.00  0.00    +0.000 C 
ATOM      6  C   UNL     1       1.970   7.715  20.287  0.00  0.00    +0.000 C 
ENDROOT
BRANCH   4   7
ATOM      7  C   UNL     1       3.818   4.751  19.265  0.00  0.00    +0.000 C 
BRANCH   7   8
ATOM      8  N   UNL     1       3.846   3.872  18.059  0.00  0.00    +0.000 N 
BRANCH   8   9
ATOM      9  C   UNL     1       3.647   2.537  18.174  0.00  0.00    +0.000 C 
ATOM     10  N   UNL     1       3.517   1.393  18.270  0.00  0.00    +0.000 NA
ENDBRANCH   8   9
BRANCH   8  11
ATOM     11  C   UNL     1       4.702   4.406  16.968  0.00  0.00    +0.000 C 
BRANCH  11  12
ATOM     12  C   UNL     1       5.791   5.336  17.433  0.00  0.00    +0.000 A 
ATOM     13  C   UNL     1       6.751   4.891  18.353  0.00  0.00    +0.000 A 
ATOM     14  C   UNL     1       7.795   5.725  18.751  0.00  0.00    +0.000 A 
ATOM     15  C   UNL     1       7.890   7.016  18.240  0.00  0.00    +0.000 A 
ATOM     16  C   UNL     1       6.927   7.481  17.345  0.00  0.00    +0.000 A 
ATOM     17  C   UNL     1       5.876   6.649  16.949  0.00  0.00    +0.000 A 
ENDBRANCH  11  12
ENDBRANCH   8  11
ENDBRANCH   7   8
ENDBRANCH   4   7
BRANCH   6  18
ATOM     18  C   UNL     1       0.471   8.042  20.567  0.00  0.00    +0.000 C 
BRANCH  18  19
ATOM     19  C   UNL     1      -0.079   9.256  21.384  0.00  0.00    +0.000 A 
ATOM     20  C   UNL     1       0.249   9.230  22.741  0.00  0.00    +0.000 A 
ATOM     21  N   UNL     1      -0.797   9.829  23.342  0.00  0.00    +0.000 N 
ATOM     22  C   UNL     1      -0.978  10.989  22.652  0.00  0.00    +0.000 A 
ATOM     23  C   UNL     1      -1.440  12.197  23.125  0.00  0.00    +0.000 A 
ATOM     24  C   UNL     1      -1.422  13.271  22.246  0.00  0.00    +0.000 A 
ATOM     25  C   UNL     1      -0.997  13.108  20.928  0.00  0.00    +0.000 A 
ATOM     26  C   UNL     1      -0.674  11.790  20.417  0.00  0.00    +0.000 A 
ATOM     27  C   UNL     1      -0.568  10.681  21.324  0.00  0.00    +0.000 A 
ATOM     28  H   UNL     1      -1.307   9.541  24.166  0.00  0.00    +0.000 HD
BRANCH  25  29
ATOM     29  N   UNL     1      -0.815  14.315  20.173  0.00  0.00    +0.000 N 
ATOM     30  C   UNL     1      -1.482  15.523  20.373  0.00  0.00    +0.000 A 
ATOM     31  C   UNL     1      -0.947  16.419  19.477  0.00  0.00    +0.000 A 
ATOM     32  N   UNL     1      -0.006  15.810  18.701  0.00  0.00    +0.000 NA
ATOM     33  C   UNL     1       0.046  14.561  19.133  0.00  0.00    +0.000 A 
ENDBRANCH  25  29
ENDBRANCH  18  19
ENDBRANCH   6  18
TORSDOF 8
ENDMDL
MODEL 8
REMARK VINA RESULT:      -8.0      2.676      4.603
REMARK  Name = 
REMARK  9 active torsions:
REMARK  status: ('A' for Active; 'I' for Inactive)
REMARK    1  A    between atoms: C_1  and  N_2
REMARK    2  A    between atoms: C_4  and  C_5
REMARK    3  A    between atoms: C_5  and  N_6
REMARK    4  A    between atoms: N_6  and  C_7
REMARK    5  A    between atoms: N_6  and  C_9
REMARK    6  A    between atoms: C_9  and  C_10
REMARK    7  A    between atoms: C_17  and  C_18
REMARK    8  A    between atoms: C_18  and  C_19
REMARK    9  A    between atoms: C_25  and  N_26
REMARK                            x       y       z     vdW  Elec       q    Type
REMARK                         _______ _______ _______ _____ _____    ______ ____
ROOT
ATOM      1  C   UNL     1       1.623   6.083  20.586  0.00  0.00    +0.000 C 
ATOM      2  N   UNL     1       2.250   6.558  19.374  0.00  0.00    +0.000 NA
ATOM      3  C   UNL     1       3.695   6.433  19.359  0.00  0.00    +0.000 C 
ATOM      4  C   UNL     1       4.016   6.860  17.932  0.00  0.00    +0.000 C 
ATOM      5  C   UNL     1       2.820   7.751  17.502  0.00  0.00    +0.000 C 
ATOM      6  C   UNL     1       1.836   7.814  18.678  0.00  0.00    +0.000 C 
ENDROOT
BRANCH   4   7
ATOM      7  C   UNL     1       4.226   5.618  17.030  0.00  0.00    +0.000 C 
BRANCH   7   8
ATOM      8  N   UNL     1       4.904   4.509  17.764  0.00  0.00    +0.000 N 
BRANCH   8   9
ATOM      9  C   UNL     1       6.243   4.527  17.958  0.00  0.00    +0.000 C 
ATOM     10  N   UNL     1       7.388   4.581  18.108  0.00  0.00    +0.000 NA
ENDBRANCH   8   9
BRANCH   8  11
ATOM     11  C   UNL     1       4.185   3.213  17.655  0.00  0.00    +0.000 C 
BRANCH  11  12
ATOM     12  C   UNL     1       3.170   2.973  18.740  0.00  0.00    +0.000 A 
ATOM     13  C   UNL     1       3.584   2.827  20.071  0.00  0.00    +0.000 A 
ATOM     14  C   UNL     1       2.649   2.657  21.092  0.00  0.00    +0.000 A 
ATOM     15  C   UNL     1       1.290   2.624  20.795  0.00  0.00    +0.000 A 
ATOM     16  C   UNL     1       0.866   2.740  19.473  0.00  0.00    +0.000 A 
ATOM     17  C   UNL     1       1.800   2.904  18.447  0.00  0.00    +0.000 A 
ENDBRANCH  11  12
ENDBRANCH   8  11
ENDBRANCH   7   8
ENDBRANCH   4   7
BRANCH   6  18
ATOM     18  C   UNL     1       1.923   9.177  19.430  0.00  0.00    +0.000 C 
BRANCH  18  19
ATOM     19  C   UNL     1       0.985   9.665  20.581  0.00  0.00    +0.000 A 
ATOM     20  C   UNL     1       1.334   9.190  21.847  0.00  0.00    +0.000 A 
ATOM     21  N   UNL     1       0.156   9.080  22.492  0.00  0.00    +0.000 N 
ATOM     22  C   UNL     1      -0.459  10.279  22.301  0.00  0.00    +0.000 A 
ATOM     23  C   UNL     1      -1.323  10.937  23.148  0.00  0.00    +0.000 A 
ATOM     24  C   UNL     1      -1.726  12.212  22.779  0.00  0.00    +0.000 A 
ATOM     25  C   UNL     1      -1.305  12.773  21.574  0.00  0.00    +0.000 A 
ATOM     26  C   UNL     1      -0.531  11.992  20.630  0.00  0.00    +0.000 A 
ATOM     27  C   UNL     1       0.002  10.718  21.028  0.00  0.00    +0.000 A 
ATOM     28  H   UNL     1      -0.190   8.316  23.057  0.00  0.00    +0.000 HD
BRANCH  25  29
ATOM     29  N   UNL     1      -1.602  14.165  21.392  0.00  0.00    +0.000 N 
ATOM     30  C   UNL     1      -1.303  14.934  20.267  0.00  0.00    +0.000 A 
ATOM     31  C   UNL     1      -1.829  16.185  20.496  0.00  0.00    +0.000 A 
ATOM     32  N   UNL     1      -2.405  16.238  21.730  0.00  0.00    +0.000 NA
ATOM     33  C   UNL     1      -2.251  15.027  22.240  0.00  0.00    +0.000 A 
ENDBRANCH  25  29
ENDBRANCH  18  19
ENDBRANCH   6  18
TORSDOF 8
ENDMDL
MODEL 9
REMARK VINA RESULT:      -8.0      2.780      4.887
REMARK  Name = 
REMARK  9 active torsions:
REMARK  status: ('A' for Active; 'I' for Inactive)
REMARK    1  A    between atoms: C_1  and  N_2
REMARK    2  A    between atoms: C_4  and  C_5
REMARK    3  A    between atoms: C_5  and  N_6
REMARK    4  A    between atoms: N_6  and  C_7
REMARK    5  A    between atoms: N_6  and  C_9
REMARK    6  A    between atoms: C_9  and  C_10
REMARK    7  A    between atoms: C_17  and  C_18
REMARK    8  A    between atoms: C_18  and  C_19
REMARK    9  A    between atoms: C_25  and  N_26
REMARK                            x       y       z     vdW  Elec       q    Type
REMARK                         _______ _______ _______ _____ _____    ______ ____
ROOT
ATOM      1  C   UNL     1       1.682   6.772  20.353  0.00  0.00    +0.000 C 
ATOM      2  N   UNL     1       2.333   6.915  19.071  0.00  0.00    +0.000 NA
ATOM      3  C   UNL     1       3.763   6.678  19.096  0.00  0.00    +0.000 C 
ATOM      4  C   UNL     1       4.104   6.749  17.613  0.00  0.00    +0.000 C 
ATOM      5  C   UNL     1       2.977   7.611  16.985  0.00  0.00    +0.000 C 
ATOM      6  C   UNL     1       2.011   8.011  18.109  0.00  0.00    +0.000 C 
ENDROOT
BRANCH   4   7
ATOM      7  C   UNL     1       4.208   5.324  17.013  0.00  0.00    +0.000 C 
BRANCH   7   8
ATOM      8  N   UNL     1       4.890   4.379  17.947  0.00  0.00    +0.000 N 
BRANCH   8   9
ATOM      9  C   UNL     1       6.224   4.462  18.160  0.00  0.00    +0.000 C 
ATOM     10  N   UNL     1       7.357   4.568  18.363  0.00  0.00    +0.000 NA
ENDBRANCH   8   9
BRANCH   8  11
ATOM     11  C   UNL     1       4.198   3.069  18.057  0.00  0.00    +0.000 C 
BRANCH  11  12
ATOM     12  C   UNL     1       3.145   3.011  19.131  0.00  0.00    +0.000 A 
ATOM     13  C   UNL     1       3.508   2.741  20.458  0.00  0.00    +0.000 A 
ATOM     14  C   UNL     1       2.550   2.738  21.472  0.00  0.00    +0.000 A 
ATOM     15  C   UNL     1       1.217   2.997  21.171  0.00  0.00    +0.000 A 
ATOM     16  C   UNL     1       0.837   3.240  19.852  0.00  0.00    +0.000 A 
ATOM     17  C   UNL     1       1.794   3.238  18.834  0.00  0.00    +0.000 A 
ENDBRANCH  11  12
ENDBRANCH   8  11
ENDBRANCH   7   8
ENDBRANCH   4   7
BRANCH   6  18
ATOM     18  C   UNL     1       2.210   9.497  18.537  0.00  0.00    +0.000 C 
BRANCH  18  19
ATOM     19  C   UNL     1       1.165  10.402  19.267  0.00  0.00    +0.000 A 
ATOM     20  C   UNL     1       1.712  11.526  19.887  0.00  0.00    +0.000 A 
ATOM     21  N   UNL     1       0.919  11.730  20.957  0.00  0.00    +0.000 N 
ATOM     22  C   UNL     1      -0.348  11.708  20.460  0.00  0.00    +0.000 A 
ATOM     23  C   UNL     1      -1.449  12.406  20.906  0.00  0.00    +0.000 A 
ATOM     24  C   UNL     1      -2.610  12.307  20.153  0.00  0.00    +0.000 A 
ATOM     25  C   UNL     1      -2.661  11.493  19.022  0.00  0.00    +0.000 A 
ATOM     26  C   UNL     1      -1.538  10.646  18.675  0.00  0.00    +0.000 A 
ATOM     27  C   UNL     1      -0.284  10.810  19.358  0.00  0.00    +0.000 A 
ATOM     28  H   UNL     1       1.181  11.927  21.914  0.00  0.00    +0.000 HD
BRANCH  25  29
ATOM     29  N   UNL     1      -3.832  11.629  18.203  0.00  0.00    +0.000 N 
ATOM     30  C   UNL     1      -5.084  12.079  18.619  0.00  0.00    +0.000 A 
ATOM     31  C   UNL     1      -5.880  12.117  17.497  0.00  0.00    +0.000 A 
ATOM     32  N   UNL     1      -5.189  11.671  16.411  0.00  0.00    +0.000 NA
ATOM     33  C   UNL     1      -3.978  11.384  16.861  0.00  0.00    +0.000 A 
ENDBRANCH  25  29
ENDBRANCH  18  19
ENDBRANCH   6  18
TORSDOF 8
ENDMDL
