MODEL 1
REMARK VINA RESULT:      -8.4      0.000      0.000
REMARK  Name = 
REMARK  7 active torsions:
REMARK  status: ('A' for Active; 'I' for Inactive)
REMARK    1  A    between atoms: C_2  and  C_20
REMARK    2  A    between atoms: N_3  and  C_4
REMARK    3  A    between atoms: C_4  and  C_5
REMARK    4  A    between atoms: C_5  and  C_6
REMARK    5  A    between atoms: C_6  and  N_7
REMARK    6  A    between atoms: C_10  and  C_11
REMARK    7  A    between atoms: C_11  and  C_12
REMARK                            x       y       z     vdW  Elec       q    Type
REMARK                         _______ _______ _______ _____ _____    ______ ____
ROOT
ATOM      1  C   UNL     1       8.747   9.518  18.814  0.00  0.00    +0.000 C 
ENDROOT
BRANCH   1   4
ATOM      2  O   UNL     1      10.727  11.236  19.928  0.00  0.00    +0.000 OA
ATOM      3  C   UNL     1      10.193  11.534  18.864  0.00  0.00    +0.000 C 
ATOM      4  N   UNL     1       9.224  10.766  18.251  0.00  0.00    +0.000 N 
ATOM      5  H   UNL     1       8.923  10.997  17.314  0.00  0.00    +0.000 HD
BRANCH   3   6
ATOM      6  C   UNL     1      10.568  12.767  18.108  0.00  0.00    +0.000 A 
ATOM      7  C   UNL     1      11.865  12.813  17.564  0.00  0.00    +0.000 A 
ATOM      8  C   UNL     1      12.333  13.977  16.966  0.00  0.00    +0.000 A 
ATOM      9  C   UNL     1      11.524  15.109  16.943  0.00  0.00    +0.000 A 
ATOM     10  C   UNL     1      10.227  15.088  17.480  0.00  0.00    +0.000 A 
ATOM     11  C   UNL     1       9.463  16.266  17.504  0.00  0.00    +0.000 A 
ATOM     12  C   UNL     1       8.162  16.269  18.001  0.00  0.00    +0.000 A 
ATOM     13  C   UNL     1       7.588  15.082  18.434  0.00  0.00    +0.000 A 
ATOM     14  C   UNL     1       8.347  13.909  18.445  0.00  0.00    +0.000 A 
ATOM     15  C   UNL     1       9.697  13.887  18.016  0.00  0.00    +0.000 A 
ENDBRANCH   3   6
ENDBRANCH   1   4
BRANCH   1  16
ATOM     16  C   UNL     1       8.087   8.645  17.751  0.00  0.00    +0.000 C 
BRANCH  16  17
ATOM     17  C   UNL     1       7.993   7.180  18.192  0.00  0.00    +0.000 C 
BRANCH  17  18
ATOM     18  N   UNL     1       7.027   6.382  17.414  0.00  0.00    +0.000 NA
ATOM     19  C   UNL     1       6.518   5.237  18.186  0.00  0.00    +0.000 C 
ATOM     20  C   UNL     1       5.527   4.412  17.371  0.00  0.00    +0.000 C 
ATOM     21  C   UNL     1       4.334   5.255  16.906  0.00  0.00    +0.000 C 
ATOM     22  C   UNL     1       4.890   6.452  16.118  0.00  0.00    +0.000 C 
ATOM     23  C   UNL     1       5.943   7.240  16.908  0.00  0.00    +0.000 C 
BRANCH  21  24
ATOM     24  C   UNL     1       3.428   5.735  18.065  0.00  0.00    +0.000 C 
BRANCH  24  25
ATOM     25  C   UNL     1       2.752   4.643  18.863  0.00  0.00    +0.000 A 
ATOM     26  C   UNL     1       1.758   3.853  18.268  0.00  0.00    +0.000 A 
ATOM     27  C   UNL     1       1.157   2.811  18.979  0.00  0.00    +0.000 A 
ATOM     28  C   UNL     1       1.547   2.548  20.291  0.00  0.00    +0.000 A 
ATOM     29  C   UNL     1       2.529   3.333  20.892  0.00  0.00    +0.000 A 
ATOM     30  C   UNL     1       3.130   4.374  20.183  0.00  0.00    +0.000 A 
ENDBRANCH  24  25
ENDBRANCH  21  24
ENDBRANCH  17  18
ENDBRANCH  16  17
ENDBRANCH   1  16
TORSDOF 7
ENDMDL
MODEL 2
REMARK VINA RESULT:      -8.4      0.806      1.146
REMARK  Name = 
REMARK  7 active torsions:
REMARK  status: ('A' for Active; 'I' for Inactive)
REMARK    1  A    between atoms: C_2  and  C_20
REMARK    2  A    between atoms: N_3  and  C_4
REMARK    3  A    between atoms: C_4  and  C_5
REMARK    4  A    between atoms: C_5  and  C_6
REMARK    5  A    between atoms: C_6  and  N_7
REMARK    6  A    between atoms: C_10  and  C_11
REMARK    7  A    between atoms: C_11  and  C_12
REMARK                            x       y       z     vdW  Elec       q    Type
REMARK                         _______ _______ _______ _____ _____    ______ ____
ROOT
ATOM      1  C   UNL     1       8.408   9.106  18.659  0.00  0.00    +0.000 C 
ENDROOT
BRANCH   1   4
ATOM      2  O   UNL     1       9.745  11.150  20.123  0.00  0.00    +0.000 OA
ATOM      3  C   UNL     1       9.645  11.243  18.903  0.00  0.00    +0.000 C 
ATOM      4  N   UNL     1       9.013  10.305  18.112  0.00  0.00    +0.000 N 
ATOM      5  H   UNL     1       9.084  10.372  17.106  0.00  0.00    +0.000 HD
BRANCH   3   6
ATOM      6  C   UNL     1      10.230  12.390  18.146  0.00  0.00    +0.000 A 
ATOM      7  C   UNL     1      11.509  12.202  17.589  0.00  0.00    +0.000 A 
ATOM      8  C   UNL     1      12.175  13.264  16.988  0.00  0.00    +0.000 A 
ATOM      9  C   UNL     1      11.585  14.523  16.975  0.00  0.00    +0.000 A 
ATOM     10  C   UNL     1      10.311  14.736  17.524  0.00  0.00    +0.000 A 
ATOM     11  C   UNL     1       9.773  16.033  17.558  0.00  0.00    +0.000 A 
ATOM     12  C   UNL     1       8.499  16.271  18.068  0.00  0.00    +0.000 A 
ATOM     13  C   UNL     1       7.724  15.206  18.504  0.00  0.00    +0.000 A 
ATOM     14  C   UNL     1       8.256  13.915  18.506  0.00  0.00    +0.000 A 
ATOM     15  C   UNL     1       9.576  13.650  18.064  0.00  0.00    +0.000 A 
ENDBRANCH   3   6
ENDBRANCH   1   4
BRANCH   1  16
ATOM     16  C   UNL     1       8.243   8.031  17.589  0.00  0.00    +0.000 C 
BRANCH  16  17
ATOM     17  C   UNL     1       6.767   7.767  17.268  0.00  0.00    +0.000 C 
BRANCH  17  18
ATOM     18  N   UNL     1       6.437   6.339  17.099  0.00  0.00    +0.000 NA
ATOM     19  C   UNL     1       5.925   5.746  18.344  0.00  0.00    +0.000 C 
ATOM     20  C   UNL     1       5.594   4.268  18.162  0.00  0.00    +0.000 C 
ATOM     21  C   UNL     1       4.556   4.050  17.056  0.00  0.00    +0.000 C 
ATOM     22  C   UNL     1       5.105   4.691  15.771  0.00  0.00    +0.000 C 
ATOM     23  C   UNL     1       5.509   6.158  15.971  0.00  0.00    +0.000 C 
BRANCH  21  24
ATOM     24  C   UNL     1       3.159   4.619  17.399  0.00  0.00    +0.000 C 
BRANCH  24  25
ATOM     25  C   UNL     1       2.527   4.086  18.664  0.00  0.00    +0.000 A 
ATOM     26  C   UNL     1       2.262   4.953  19.735  0.00  0.00    +0.000 A 
ATOM     27  C   UNL     1       1.637   4.482  20.893  0.00  0.00    +0.000 A 
ATOM     28  C   UNL     1       1.268   3.142  20.990  0.00  0.00    +0.000 A 
ATOM     29  C   UNL     1       1.534   2.273  19.934  0.00  0.00    +0.000 A 
ATOM     30  C   UNL     1       2.160   2.741  18.777  0.00  0.00    +0.000 A 
ENDBRANCH  24  25
ENDBRANCH  21  24
ENDBRANCH  17  18
ENDBRANCH  16  17
ENDBRANCH   1  16
TORSDOF 7
ENDMDL
MODEL 3
REMARK VINA RESULT:      -8.1      1.023      2.187
REMARK  Name = 
REMARK  7 active torsions:
REMARK  status: ('A' for Active; 'I' for Inactive)
REMARK    1  A    between atoms: C_2  and  C_20
REMARK    2  A    between atoms: N_3  and  C_4
REMARK    3  A    between atoms: C_4  and  C_5
REMARK    4  A    between atoms: C_5  and  C_6
REMARK    5  A    between atoms: C_6  and  N_7
REMARK    6  A    between atoms: C_10  and  C_11
REMARK    7  A    between atoms: C_11  and  C_12
REMARK                            x       y       z     vdW  Elec       q    Type
REMARK                         _______ _______ _______ _____ _____    ______ ____
ROOT
ATOM      1  C   UNL     1       8.769   9.361  18.744  0.00  0.00    +0.000 C 
ENDROOT
BRANCH   1   4
ATOM      2  O   UNL     1       9.949  11.071  20.692  0.00  0.00    +0.000 OA
ATOM      3  C   UNL     1       9.441  11.556  19.686  0.00  0.00    +0.000 C 
ATOM      4  N   UNL     1       8.845  10.807  18.691  0.00  0.00    +0.000 N 
ATOM      5  H   UNL     1       8.567  11.255  17.828  0.00  0.00    +0.000 HD
BRANCH   3   6
ATOM      6  C   UNL     1       9.443  13.027  19.428  0.00  0.00    +0.000 A 
ATOM      7  C   UNL     1       8.408  13.780  20.013  0.00  0.00    +0.000 A 
ATOM      8  C   UNL     1       8.263  15.129  19.710  0.00  0.00    +0.000 A 
ATOM      9  C   UNL     1       9.126  15.721  18.793  0.00  0.00    +0.000 A 
ATOM     10  C   UNL     1      10.166  14.992  18.196  0.00  0.00    +0.000 A 
ATOM     11  C   UNL     1      10.975  15.600  17.223  0.00  0.00    +0.000 A 
ATOM     12  C   UNL     1      12.035  14.912  16.635  0.00  0.00    +0.000 A 
ATOM     13  C   UNL     1      12.331  13.622  17.051  0.00  0.00    +0.000 A 
ATOM     14  C   UNL     1      11.516  12.993  17.995  0.00  0.00    +0.000 A 
ATOM     15  C   UNL     1      10.387  13.638  18.557  0.00  0.00    +0.000 A 
ENDBRANCH   3   6
ENDBRANCH   1   4
BRANCH   1  16
ATOM     16  C   UNL     1       7.843   8.813  17.663  0.00  0.00    +0.000 C 
BRANCH  16  17
ATOM     17  C   UNL     1       7.898   7.283  17.585  0.00  0.00    +0.000 C 
BRANCH  17  18
ATOM     18  N   UNL     1       6.738   6.676  16.904  0.00  0.00    +0.000 NA
ATOM     19  C   UNL     1       6.962   5.253  16.608  0.00  0.00    +0.000 C 
ATOM     20  C   UNL     1       5.761   4.636  15.896  0.00  0.00    +0.000 C 
ATOM     21  C   UNL     1       4.481   4.765  16.728  0.00  0.00    +0.000 C 
ATOM     22  C   UNL     1       4.276   6.257  17.039  0.00  0.00    +0.000 C 
ATOM     23  C   UNL     1       5.511   6.897  17.687  0.00  0.00    +0.000 C 
BRANCH  21  24
ATOM     24  C   UNL     1       4.504   3.932  18.031  0.00  0.00    +0.000 C 
BRANCH  24  25
ATOM     25  C   UNL     1       3.159   3.687  18.677  0.00  0.00    +0.000 A 
ATOM     26  C   UNL     1       2.254   2.789  18.091  0.00  0.00    +0.000 A 
ATOM     27  C   UNL     1       1.026   2.519  18.702  0.00  0.00    +0.000 A 
ATOM     28  C   UNL     1       0.694   3.140  19.903  0.00  0.00    +0.000 A 
ATOM     29  C   UNL     1       1.584   4.039  20.488  0.00  0.00    +0.000 A 
ATOM     30  C   UNL     1       2.811   4.310  19.879  0.00  0.00    +0.000 A 
ENDBRANCH  24  25
ENDBRANCH  21  24
ENDBRANCH  17  18
ENDBRANCH  16  17
ENDBRANCH   1  16
TORSDOF 7
ENDMDL
MODEL 4
REMARK VINA RESULT:      -8.0      6.589      8.885
REMARK  Name = 
REMARK  7 active torsions:
REMARK  status: ('A' for Active; 'I' for Inactive)
REMARK    1  A    between atoms: C_2  and  C_20
REMARK    2  A    between atoms: N_3  and  C_4
REMARK    3  A    between atoms: C_4  and  C_5
REMARK    4  A    between atoms: C_5  and  C_6
REMARK    5  A    between atoms: C_6  and  N_7
REMARK    6  A    between atoms: C_10  and  C_11
REMARK    7  A    between atoms: C_11  and  C_12
REMARK                            x       y       z     vdW  Elec       q    Type
REMARK                         _______ _______ _______ _____ _____    ______ ____
ROOT
ATOM      1  C   UNL     1       2.172   7.575  18.665  0.00  0.00    +0.000 C 
ENDROOT
BRANCH   1   4
ATOM      2  O   UNL     1       2.069  10.105  17.363  0.00  0.00    +0.000 OA
ATOM      3  C   UNL     1       1.308   9.871  18.296  0.00  0.00    +0.000 C 
ATOM      4  N   UNL     1       1.287   8.677  18.988  0.00  0.00    +0.000 N 
ATOM      5  H   UNL     1       0.547   8.499  19.653  0.00  0.00    +0.000 HD
BRANCH   3   6
ATOM      6  C   UNL     1       0.297  10.867  18.763  0.00  0.00    +0.000 A 
ATOM      7  C   UNL     1       0.712  11.789  19.742  0.00  0.00    +0.000 A 
ATOM      8  C   UNL     1      -0.205  12.656  20.324  0.00  0.00    +0.000 A 
ATOM      9  C   UNL     1      -1.545  12.580  19.959  0.00  0.00    +0.000 A 
ATOM     10  C   UNL     1      -1.985  11.669  18.985  0.00  0.00    +0.000 A 
ATOM     11  C   UNL     1      -3.354  11.570  18.691  0.00  0.00    +0.000 A 
ATOM     12  C   UNL     1      -3.817  10.698  17.708  0.00  0.00    +0.000 A 
ATOM     13  C   UNL     1      -2.910   9.950  16.970  0.00  0.00    +0.000 A 
ATOM     14  C   UNL     1      -1.548  10.016  17.272  0.00  0.00    +0.000 A 
ATOM     15  C   UNL     1      -1.053  10.836  18.316  0.00  0.00    +0.000 A 
ENDBRANCH   3   6
ENDBRANCH   1   4
BRANCH   1  16
ATOM     16  C   UNL     1       2.560   6.790  19.915  0.00  0.00    +0.000 C 
BRANCH  16  17
ATOM     17  C   UNL     1       2.218   5.302  19.784  0.00  0.00    +0.000 C 
BRANCH  17  18
ATOM     18  N   UNL     1       3.302   4.487  19.203  0.00  0.00    +0.000 NA
ATOM     19  C   UNL     1       2.893   3.853  17.941  0.00  0.00    +0.000 C 
ATOM     20  C   UNL     1       4.017   3.006  17.352  0.00  0.00    +0.000 C 
ATOM     21  C   UNL     1       5.278   3.838  17.093  0.00  0.00    +0.000 C 
ATOM     22  C   UNL     1       5.677   4.503  18.419  0.00  0.00    +0.000 C 
ATOM     23  C   UNL     1       4.524   5.294  19.052  0.00  0.00    +0.000 C 
BRANCH  21  24
ATOM     24  C   UNL     1       5.100   4.898  15.980  0.00  0.00    +0.000 C 
BRANCH  24  25
ATOM     25  C   UNL     1       5.819   4.611  14.681  0.00  0.00    +0.000 A 
ATOM     26  C   UNL     1       5.225   3.781  13.719  0.00  0.00    +0.000 A 
ATOM     27  C   UNL     1       5.858   3.544  12.496  0.00  0.00    +0.000 A 
ATOM     28  C   UNL     1       7.088   4.138  12.222  0.00  0.00    +0.000 A 
ATOM     29  C   UNL     1       7.689   4.959  13.175  0.00  0.00    +0.000 A 
ATOM     30  C   UNL     1       7.058   5.195  14.398  0.00  0.00    +0.000 A 
ENDBRANCH  24  25
ENDBRANCH  21  24
ENDBRANCH  17  18
ENDBRANCH  16  17
ENDBRANCH   1  16
TORSDOF 7
ENDMDL
MODEL 5
REMARK VINA RESULT:      -7.9      1.190      2.337
REMARK  Name = 
REMARK  7 active torsions:
REMARK  status: ('A' for Active; 'I' for Inactive)
REMARK    1  A    between atoms: C_2  and  C_20
REMARK    2  A    between atoms: N_3  and  C_4
REMARK    3  A    between atoms: C_4  and  C_5
REMARK    4  A    between atoms: C_5  and  C_6
REMARK    5  A    between atoms: C_6  and  N_7
REMARK    6  A    between atoms: C_10  and  C_11
REMARK    7  A    between atoms: C_11  and  C_12
REMARK                            x       y       z     vdW  Elec       q    Type
REMARK                         _______ _______ _______ _____ _____    ______ ____
ROOT
ATOM      1  C   UNL     1       9.031   9.584  18.844  0.00  0.00    +0.000 C 
ENDROOT
BRANCH   1   4
ATOM      2  O   UNL     1      11.068  11.446  19.546  0.00  0.00    +0.000 OA
ATOM      3  C   UNL     1       9.914  11.836  19.398  0.00  0.00    +0.000 C 
ATOM      4  N   UNL     1       8.862  11.007  19.061  0.00  0.00    +0.000 N 
ATOM      5  H   UNL     1       7.967  11.410  18.822  0.00  0.00    +0.000 HD
BRANCH   3   6
ATOM      6  C   UNL     1       9.538  13.274  19.547  0.00  0.00    +0.000 A 
ATOM      7  C   UNL     1       8.576  13.585  20.526  0.00  0.00    +0.000 A 
ATOM      8  C   UNL     1       8.075  14.877  20.632  0.00  0.00    +0.000 A 
ATOM      9  C   UNL     1       8.503  15.853  19.738  0.00  0.00    +0.000 A 
ATOM     10  C   UNL     1       9.461  15.568  18.752  0.00  0.00    +0.000 A 
ATOM     11  C   UNL     1       9.819  16.556  17.821  0.00  0.00    +0.000 A 
ATOM     12  C   UNL     1      10.789  16.313  16.851  0.00  0.00    +0.000 A 
ATOM     13  C   UNL     1      11.451  15.094  16.832  0.00  0.00    +0.000 A 
ATOM     14  C   UNL     1      11.084  14.090  17.732  0.00  0.00    +0.000 A 
ATOM     15  C   UNL     1      10.050  14.280  18.681  0.00  0.00    +0.000 A 
ENDBRANCH   3   6
ENDBRANCH   1   4
BRANCH   1  16
ATOM     16  C   UNL     1       8.034   9.057  17.817  0.00  0.00    +0.000 C 
BRANCH  16  17
ATOM     17  C   UNL     1       7.924   7.529  17.859  0.00  0.00    +0.000 C 
BRANCH  17  18
ATOM     18  N   UNL     1       6.865   6.980  16.991  0.00  0.00    +0.000 NA
ATOM     19  C   UNL     1       7.216   5.648  16.476  0.00  0.00    +0.000 C 
ATOM     20  C   UNL     1       6.119   5.093  15.573  0.00  0.00    +0.000 C 
ATOM     21  C   UNL     1       4.777   4.993  16.306  0.00  0.00    +0.000 C 
ATOM     22  C   UNL     1       4.438   6.391  16.849  0.00  0.00    +0.000 C 
ATOM     23  C   UNL     1       5.573   6.983  17.696  0.00  0.00    +0.000 C 
BRANCH  21  24
ATOM     24  C   UNL     1       4.772   3.946  17.445  0.00  0.00    +0.000 C 
BRANCH  24  25
ATOM     25  C   UNL     1       3.518   3.902  18.289  0.00  0.00    +0.000 A 
ATOM     26  C   UNL     1       3.561   4.312  19.630  0.00  0.00    +0.000 A 
ATOM     27  C   UNL     1       2.400   4.320  20.408  0.00  0.00    +0.000 A 
ATOM     28  C   UNL     1       1.186   3.921  19.853  0.00  0.00    +0.000 A 
ATOM     29  C   UNL     1       1.136   3.506  18.523  0.00  0.00    +0.000 A 
ATOM     30  C   UNL     1       2.295   3.497  17.745  0.00  0.00    +0.000 A 
ENDBRANCH  24  25
ENDBRANCH  21  24
ENDBRANCH  17  18
ENDBRANCH  16  17
ENDBRANCH   1  16
TORSDOF 7
ENDMDL
MODEL 6
REMARK VINA RESULT:      -7.9      6.257      8.702
REMARK  Name = 
REMARK  7 active torsions:
REMARK  status: ('A' for Active; 'I' for Inactive)
REMARK    1  A    between atoms: C_2  and  C_20
REMARK    2  A    between atoms: N_3  and  C_4
REMARK    3  A    between atoms: C_4  and  C_5
REMARK    4  A    between atoms: C_5  and  C_6
REMARK    5  A    between atoms: C_6  and  N_7
REMARK    6  A    between atoms: C_10  and  C_11
REMARK    7  A    between atoms: C_11  and  C_12
REMARK                            x       y       z     vdW  Elec       q    Type
REMARK                         _______ _______ _______ _____ _____    ______ ____
ROOT
ATOM      1  C   UNL     1       2.112   7.296  20.038  0.00  0.00    +0.000 C 
ENDROOT
BRANCH   1   4
ATOM      2  O   UNL     1       1.827   9.195  17.935  0.00  0.00    +0.000 OA
ATOM      3  C   UNL     1       1.237   9.372  18.996  0.00  0.00    +0.000 C 
ATOM      4  N   UNL     1       1.317   8.509  20.070  0.00  0.00    +0.000 N 
ATOM      5  H   UNL     1       0.703   8.640  20.862  0.00  0.00    +0.000 HD
BRANCH   3   6
ATOM      6  C   UNL     1       0.342  10.547  19.219  0.00  0.00    +0.000 A 
ATOM      7  C   UNL     1       0.764  11.502  20.163  0.00  0.00    +0.000 A 
ATOM      8  C   UNL     1      -0.075  12.549  20.525  0.00  0.00    +0.000 A 
ATOM      9  C   UNL     1      -1.351  12.625  19.975  0.00  0.00    +0.000 A 
ATOM     10  C   UNL     1      -1.795  11.685  19.032  0.00  0.00    +0.000 A 
ATOM     11  C   UNL     1      -3.112  11.750  18.550  0.00  0.00    +0.000 A 
ATOM     12  C   UNL     1      -3.572  10.850  17.590  0.00  0.00    +0.000 A 
ATOM     13  C   UNL     1      -2.704   9.905  17.063  0.00  0.00    +0.000 A 
ATOM     14  C   UNL     1      -1.400   9.809  17.555  0.00  0.00    +0.000 A 
ATOM     15  C   UNL     1      -0.925  10.659  18.583  0.00  0.00    +0.000 A 
ENDBRANCH   3   6
ENDBRANCH   1   4
BRANCH   1  16
ATOM     16  C   UNL     1       1.283   6.079  20.437  0.00  0.00    +0.000 C 
BRANCH  16  17
ATOM     17  C   UNL     1       2.128   5.027  21.165  0.00  0.00    +0.000 C 
BRANCH  17  18
ATOM     18  N   UNL     1       2.459   3.850  20.341  0.00  0.00    +0.000 NA
ATOM     19  C   UNL     1       1.444   3.605  19.305  0.00  0.00    +0.000 C 
ATOM     20  C   UNL     1       1.791   2.381  18.462  0.00  0.00    +0.000 C 
ATOM     21  C   UNL     1       3.156   2.529  17.782  0.00  0.00    +0.000 C 
ATOM     22  C   UNL     1       4.197   2.799  18.880  0.00  0.00    +0.000 C 
ATOM     23  C   UNL     1       3.812   3.985  19.776  0.00  0.00    +0.000 C 
BRANCH  21  24
ATOM     24  C   UNL     1       3.193   3.640  16.706  0.00  0.00    +0.000 C 
BRANCH  24  25
ATOM     25  C   UNL     1       4.507   4.376  16.569  0.00  0.00    +0.000 A 
ATOM     26  C   UNL     1       5.615   3.732  15.998  0.00  0.00    +0.000 A 
ATOM     27  C   UNL     1       6.821   4.415  15.823  0.00  0.00    +0.000 A 
ATOM     28  C   UNL     1       6.931   5.748  16.215  0.00  0.00    +0.000 A 
ATOM     29  C   UNL     1       5.837   6.393  16.790  0.00  0.00    +0.000 A 
ATOM     30  C   UNL     1       4.631   5.711  16.966  0.00  0.00    +0.000 A 
ENDBRANCH  24  25
ENDBRANCH  21  24
ENDBRANCH  17  18
ENDBRANCH  16  17
ENDBRANCH   1  16
TORSDOF 7
ENDMDL
MODEL 7
REMARK VINA RESULT:      -7.9      1.956     11.122
REMARK  Name = 
REMARK  7 active torsions:
REMARK  status: ('A' for Active; 'I' for Inactive)
REMARK    1  A    between atoms: C_2  and  C_20
REMARK    2  A    between atoms: N_3  and  C_4
REMARK    3  A    between atoms: C_4  and  C_5
REMARK    4  A    between atoms: C_5  and  C_6
REMARK    5  A    between atoms: C_6  and  N_7
REMARK    6  A    between atoms: C_10  and  C_11
REMARK    7  A    between atoms: C_11  and  C_12
REMARK                            x       y       z     vdW  Elec       q    Type
REMARK                         _______ _______ _______ _____ _____    ______ ____
ROOT
ATOM      1  C   UNL     1       8.518   8.426  18.272  0.00  0.00    +0.000 C 
ENDROOT
BRANCH   1   4
ATOM      2  O   UNL     1       8.042   5.842  19.368  0.00  0.00    +0.000 OA
ATOM      3  C   UNL     1       7.488   6.169  18.324  0.00  0.00    +0.000 C 
ATOM      4  N   UNL     1       7.660   7.398  17.717  0.00  0.00    +0.000 N 
ATOM      5  H   UNL     1       7.073   7.654  16.936  0.00  0.00    +0.000 HD
BRANCH   3   6
ATOM      6  C   UNL     1       6.540   5.261  17.611  0.00  0.00    +0.000 A 
ATOM      7  C   UNL     1       6.982   4.699  16.399  0.00  0.00    +0.000 A 
ATOM      8  C   UNL     1       6.111   3.955  15.612  0.00  0.00    +0.000 A 
ATOM      9  C   UNL     1       4.787   3.803  16.012  0.00  0.00    +0.000 A 
ATOM     10  C   UNL     1       4.322   4.355  17.215  0.00  0.00    +0.000 A 
ATOM     11  C   UNL     1       2.964   4.243  17.555  0.00  0.00    +0.000 A 
ATOM     12  C   UNL     1       2.478   4.753  18.757  0.00  0.00    +0.000 A 
ATOM     13  C   UNL     1       3.355   5.337  19.660  0.00  0.00    +0.000 A 
ATOM     14  C   UNL     1       4.703   5.483  19.322  0.00  0.00    +0.000 A 
ATOM     15  C   UNL     1       5.214   5.042  18.077  0.00  0.00    +0.000 A 
ENDBRANCH   3   6
ENDBRANCH   1   4
BRANCH   1  16
ATOM     16  C   UNL     1       8.178   9.800  17.701  0.00  0.00    +0.000 C 
BRANCH  16  17
ATOM     17  C   UNL     1       8.676  10.933  18.605  0.00  0.00    +0.000 C 
BRANCH  17  18
ATOM     18  N   UNL     1      10.041  11.394  18.290  0.00  0.00    +0.000 NA
ATOM     19  C   UNL     1      10.036  12.716  17.645  0.00  0.00    +0.000 C 
ATOM     20  C   UNL     1      11.451  13.181  17.315  0.00  0.00    +0.000 C 
ATOM     21  C   UNL     1      12.331  13.254  18.568  0.00  0.00    +0.000 C 
ATOM     22  C   UNL     1      12.308  11.869  19.234  0.00  0.00    +0.000 C 
ATOM     23  C   UNL     1      10.882  11.366  19.498  0.00  0.00    +0.000 C 
BRANCH  21  24
ATOM     24  C   UNL     1      11.892  14.350  19.568  0.00  0.00    +0.000 C 
BRANCH  24  25
ATOM     25  C   UNL     1      11.425  15.649  18.952  0.00  0.00    +0.000 A 
ATOM     26  C   UNL     1      12.318  16.431  18.204  0.00  0.00    +0.000 A 
ATOM     27  C   UNL     1      11.888  17.611  17.591  0.00  0.00    +0.000 A 
ATOM     28  C   UNL     1      10.562  18.019  17.719  0.00  0.00    +0.000 A 
ATOM     29  C   UNL     1       9.670  17.252  18.466  0.00  0.00    +0.000 A 
ATOM     30  C   UNL     1      10.099  16.073  19.079  0.00  0.00    +0.000 A 
ENDBRANCH  24  25
ENDBRANCH  21  24
ENDBRANCH  17  18
ENDBRANCH  16  17
ENDBRANCH   1  16
TORSDOF 7
ENDMDL
MODEL 8
REMARK VINA RESULT:      -7.9      6.532      9.903
REMARK  Name = 
REMARK  7 active torsions:
REMARK  status: ('A' for Active; 'I' for Inactive)
REMARK    1  A    between atoms: C_2  and  C_20
REMARK    2  A    between atoms: N_3  and  C_4
REMARK    3  A    between atoms: C_4  and  C_5
REMARK    4  A    between atoms: C_5  and  C_6
REMARK    5  A    between atoms: C_6  and  N_7
REMARK    6  A    between atoms: C_10  and  C_11
REMARK    7  A    between atoms: C_11  and  C_12
REMARK                            x       y       z     vdW  Elec       q    Type
REMARK                         _______ _______ _______ _____ _____    ______ ____
ROOT
ATOM      1  C   UNL     1       0.690   9.785  20.920  0.00  0.00    +0.000 C 
ENDROOT
BRANCH   1   4
ATOM      2  O   UNL     1       0.251  12.220  19.511  0.00  0.00    +0.000 OA
ATOM      3  C   UNL     1      -0.707  11.526  19.836  0.00  0.00    +0.000 C 
ATOM      4  N   UNL     1      -0.592  10.334  20.522  0.00  0.00    +0.000 N 
ATOM      5  H   UNL     1      -1.405   9.746  20.640  0.00  0.00    +0.000 HD
BRANCH   3   6
ATOM      6  C   UNL     1      -2.111  11.903  19.492  0.00  0.00    +0.000 A 
ATOM      7  C   UNL     1      -2.866  12.540  20.495  0.00  0.00    +0.000 A 
ATOM      8  C   UNL     1      -4.217  12.798  20.299  0.00  0.00    +0.000 A 
ATOM      9  C   UNL     1      -4.828  12.386  19.119  0.00  0.00    +0.000 A 
ATOM     10  C   UNL     1      -4.098  11.748  18.104  0.00  0.00    +0.000 A 
ATOM     11  C   UNL     1      -4.758  11.282  16.956  0.00  0.00    +0.000 A 
ATOM     12  C   UNL     1      -4.056  10.674  15.918  0.00  0.00    +0.000 A 
ATOM     13  C   UNL     1      -2.674  10.569  15.993  0.00  0.00    +0.000 A 
ATOM     14  C   UNL     1      -2.007  10.999  17.143  0.00  0.00    +0.000 A 
ATOM     15  C   UNL     1      -2.700  11.554  18.246  0.00  0.00    +0.000 A 
ENDBRANCH   3   6
ENDBRANCH   1   4
BRANCH   1  16
ATOM     16  C   UNL     1       0.565   8.318  21.321  0.00  0.00    +0.000 C 
BRANCH  16  17
ATOM     17  C   UNL     1       1.858   7.540  21.051  0.00  0.00    +0.000 C 
BRANCH  17  18
ATOM     18  N   UNL     1       1.698   6.425  20.098  0.00  0.00    +0.000 NA
ATOM     19  C   UNL     1       2.477   6.641  18.869  0.00  0.00    +0.000 C 
ATOM     20  C   UNL     1       2.299   5.488  17.886  0.00  0.00    +0.000 C 
ATOM     21  C   UNL     1       2.721   4.148  18.501  0.00  0.00    +0.000 C 
ATOM     22  C   UNL     1       1.907   3.952  19.790  0.00  0.00    +0.000 C 
ATOM     23  C   UNL     1       2.025   5.146  20.748  0.00  0.00    +0.000 C 
BRANCH  21  24
ATOM     24  C   UNL     1       4.238   4.052  18.790  0.00  0.00    +0.000 C 
BRANCH  24  25
ATOM     25  C   UNL     1       5.148   4.413  17.638  0.00  0.00    +0.000 A 
ATOM     26  C   UNL     1       6.138   5.393  17.808  0.00  0.00    +0.000 A 
ATOM     27  C   UNL     1       7.016   5.704  16.766  0.00  0.00    +0.000 A 
ATOM     28  C   UNL     1       6.915   5.036  15.547  0.00  0.00    +0.000 A 
ATOM     29  C   UNL     1       5.930   4.066  15.368  0.00  0.00    +0.000 A 
ATOM     30  C   UNL     1       5.052   3.755  16.408  0.00  0.00    +0.000 A 
ENDBRANCH  24  25
ENDBRANCH  21  24
ENDBRANCH  17  18
ENDBRANCH  16  17
ENDBRANCH   1  16
TORSDOF 7
ENDMDL
MODEL 9
REMARK VINA RESULT:      -7.8      1.641      2.293
REMARK  Name = 
REMARK  7 active torsions:
REMARK  status: ('A' for Active; 'I' for Inactive)
REMARK    1  A    between atoms: C_2  and  C_20
REMARK    2  A    between atoms: N_3  and  C_4
REMARK    3  A    between atoms: C_4  and  C_5
REMARK    4  A    between atoms: C_5  and  C_6
REMARK    5  A    between atoms: C_6  and  N_7
REMARK    6  A    between atoms: C_10  and  C_11
REMARK    7  A    between atoms: C_11  and  C_12
REMARK                            x       y       z     vdW  Elec       q    Type
REMARK                         _______ _______ _______ _____ _____    ______ ____
ROOT
ATOM      1  C   UNL     1       9.144   9.622  18.072  0.00  0.00    +0.000 C 
ENDROOT
BRANCH   1   4
ATOM      2  O   UNL     1      10.479  12.115  17.741  0.00  0.00    +0.000 OA
ATOM      3  C   UNL     1       9.630  11.993  18.618  0.00  0.00    +0.000 C 
ATOM      4  N   UNL     1       8.934  10.824  18.854  0.00  0.00    +0.000 N 
ATOM      5  H   UNL     1       8.156  10.829  19.498  0.00  0.00    +0.000 HD
BRANCH   3   6
ATOM      6  C   UNL     1       9.246  13.127  19.512  0.00  0.00    +0.000 A 
ATOM      7  C   UNL     1       9.923  13.229  20.741  0.00  0.00    +0.000 A 
ATOM      8  C   UNL     1       9.528  14.172  21.683  0.00  0.00    +0.000 A 
ATOM      9  C   UNL     1       8.434  14.989  21.417  0.00  0.00    +0.000 A 
ATOM     10  C   UNL     1       7.743  14.906  20.199  0.00  0.00    +0.000 A 
ATOM     11  C   UNL     1       6.600  15.696  19.990  0.00  0.00    +0.000 A 
ATOM     12  C   UNL     1       5.911  15.659  18.780  0.00  0.00    +0.000 A 
ATOM     13  C   UNL     1       6.386  14.868  17.743  0.00  0.00    +0.000 A 
ATOM     14  C   UNL     1       7.502  14.054  17.946  0.00  0.00    +0.000 A 
ATOM     15  C   UNL     1       8.181  14.013  19.189  0.00  0.00    +0.000 A 
ENDBRANCH   3   6
ENDBRANCH   1   4
BRANCH   1  16
ATOM     16  C   UNL     1       7.851   8.827  17.918  0.00  0.00    +0.000 C 
BRANCH  16  17
ATOM     17  C   UNL     1       8.013   7.376  18.384  0.00  0.00    +0.000 C 
BRANCH  17  18
ATOM     18  N   UNL     1       7.171   6.413  17.649  0.00  0.00    +0.000 NA
ATOM     19  C   UNL     1       6.526   5.449  18.554  0.00  0.00    +0.000 C 
ATOM     20  C   UNL     1       5.664   4.453  17.785  0.00  0.00    +0.000 C 
ATOM     21  C   UNL     1       4.576   5.157  16.967  0.00  0.00    +0.000 C 
ATOM     22  C   UNL     1       5.271   6.169  16.042  0.00  0.00    +0.000 C 
ATOM     23  C   UNL     1       6.197   7.125  16.806  0.00  0.00    +0.000 C 
BRANCH  21  24
ATOM     24  C   UNL     1       3.504   5.855  17.837  0.00  0.00    +0.000 C 
BRANCH  24  25
ATOM     25  C   UNL     1       2.614   4.937  18.642  0.00  0.00    +0.000 A 
ATOM     26  C   UNL     1       2.492   5.116  20.028  0.00  0.00    +0.000 A 
ATOM     27  C   UNL     1       1.637   4.304  20.778  0.00  0.00    +0.000 A 
ATOM     28  C   UNL     1       0.894   3.307  20.149  0.00  0.00    +0.000 A 
ATOM     29  C   UNL     1       1.015   3.117  18.773  0.00  0.00    +0.000 A 
ATOM     30  C   UNL     1       1.869   3.928  18.023  0.00  0.00    +0.000 A 
ENDBRANCH  24  25
ENDBRANCH  21  24
ENDBRANCH  17  18
ENDBRANCH  16  17
ENDBRANCH   1  16
TORSDOF 7
ENDMDL
