MODEL 1
REMARK VINA RESULT:      -7.1      0.000      0.000
REMARK  Name = 
REMARK  7 active torsions:
REMARK  status: ('A' for Active; 'I' for Inactive)
REMARK    1  A    between atoms: C_1  and  C_2
REMARK    2  A    between atoms: C_5  and  C_6
REMARK    3  A    between atoms: C_7  and  N_8
REMARK    4  A    between atoms: C_9  and  C_11
REMARK    5  A    between atoms: C_11  and  O_12
REMARK    6  A    between atoms: O_12  and  C_13
REMARK    7  A    between atoms: C_13  and  C_14
REMARK                            x       y       z     vdW  Elec       q    Type
REMARK                         _______ _______ _______ _____ _____    ______ ____
ROOT
ATOM      1  N   UNL     1       5.215   3.485  16.675  0.00  0.00    +0.000 N 
ATOM      2  C   UNL     1       3.990   3.782  17.238  0.00  0.00    +0.000 C 
ATOM      3  O   UNL     1       3.472   4.891  17.334  0.00  0.00    +0.000 OA
ATOM      4  H   UNL     1       5.481   2.503  16.674  0.00  0.00    +0.000 HD
ENDROOT
BRANCH   1  11
ATOM      5  C   UNL     1       5.985   3.803  13.597  0.00  0.00    +0.000 C 
ATOM      6  C   UNL     1       6.507   4.523  14.784  0.00  0.00    +0.000 A 
ATOM      7  N   UNL     1       7.437   5.465  14.609  0.00  0.00    +0.000 NA
ATOM      8  O   UNL     1       7.709   5.953  15.863  0.00  0.00    +0.000 OA
ATOM      9  C   UNL     1       6.945   5.315  16.793  0.00  0.00    +0.000 A 
ATOM     10  C   UNL     1       7.187   5.765  18.176  0.00  0.00    +0.000 C 
ATOM     11  C   UNL     1       6.145   4.379  16.158  0.00  0.00    +0.000 A 
ENDBRANCH   1  11
BRANCH   2  12
ATOM     12  C   UNL     1       3.235   2.537  17.703  0.00  0.00    +0.000 C 
BRANCH  12  13
ATOM     13  O   UNL     1       1.836   2.786  17.702  0.00  0.00    +0.000 OA
BRANCH  13  14
ATOM     14  C   UNL     1       1.202   2.258  18.865  0.00  0.00    +0.000 C 
BRANCH  14  15
ATOM     15  C   UNL     1       1.914   2.814  20.055  0.00  0.00    +0.000 C 
ATOM     16  C   UNL     1       1.408   4.079  20.701  0.00  0.00    +0.000 C 
ATOM     17  C   UNL     1       1.305   2.772  21.434  0.00  0.00    +0.000 C 
ENDBRANCH  14  15
ENDBRANCH  13  14
ENDBRANCH  12  13
ENDBRANCH   2  12
TORSDOF 5
ENDMDL
MODEL 2
REMARK VINA RESULT:      -7.0      0.519      2.035
REMARK  Name = 
REMARK  7 active torsions:
REMARK  status: ('A' for Active; 'I' for Inactive)
REMARK    1  A    between atoms: C_1  and  C_2
REMARK    2  A    between atoms: C_5  and  C_6
REMARK    3  A    between atoms: C_7  and  N_8
REMARK    4  A    between atoms: C_9  and  C_11
REMARK    5  A    between atoms: C_11  and  O_12
REMARK    6  A    between atoms: O_12  and  C_13
REMARK    7  A    between atoms: C_13  and  C_14
REMARK                            x       y       z     vdW  Elec       q    Type
REMARK                         _______ _______ _______ _____ _____    ______ ____
ROOT
ATOM      1  N   UNL     1       5.201   3.382  16.810  0.00  0.00    +0.000 N 
ATOM      2  C   UNL     1       3.945   3.667  17.308  0.00  0.00    +0.000 C 
ATOM      3  O   UNL     1       3.370   4.752  17.279  0.00  0.00    +0.000 OA
ATOM      4  H   UNL     1       5.516   2.420  16.914  0.00  0.00    +0.000 HD
ENDROOT
BRANCH   1  11
ATOM      5  C   UNL     1       6.911   5.578  18.364  0.00  0.00    +0.000 C 
ATOM      6  C   UNL     1       6.864   5.264  16.916  0.00  0.00    +0.000 A 
ATOM      7  N   UNL     1       7.635   5.963  16.079  0.00  0.00    +0.000 NA
ATOM      8  O   UNL     1       7.389   5.447  14.831  0.00  0.00    +0.000 OA
ATOM      9  C   UNL     1       6.479   4.436  14.910  0.00  0.00    +0.000 A 
ATOM     10  C   UNL     1       6.139   3.834  13.608  0.00  0.00    +0.000 C 
ATOM     11  C   UNL     1       6.102   4.269  16.232  0.00  0.00    +0.000 A 
ENDBRANCH   1  11
BRANCH   2  12
ATOM     12  C   UNL     1       3.238   2.437  17.873  0.00  0.00    +0.000 C 
BRANCH  12  13
ATOM     13  O   UNL     1       1.832   2.563  17.710  0.00  0.00    +0.000 OA
BRANCH  13  14
ATOM     14  C   UNL     1       1.127   2.220  18.901  0.00  0.00    +0.000 C 
BRANCH  14  15
ATOM     15  C   UNL     1       1.865   2.827  20.050  0.00  0.00    +0.000 C 
ATOM     16  C   UNL     1       1.322   4.069  20.710  0.00  0.00    +0.000 C 
ATOM     17  C   UNL     1       1.328   2.766  21.458  0.00  0.00    +0.000 C 
ENDBRANCH  14  15
ENDBRANCH  13  14
ENDBRANCH  12  13
ENDBRANCH   2  12
TORSDOF 5
ENDMDL
MODEL 3
REMARK VINA RESULT:      -7.0      0.888      1.175
REMARK  Name = 
REMARK  7 active torsions:
REMARK  status: ('A' for Active; 'I' for Inactive)
REMARK    1  A    between atoms: C_1  and  C_2
REMARK    2  A    between atoms: C_5  and  C_6
REMARK    3  A    between atoms: C_7  and  N_8
REMARK    4  A    between atoms: C_9  and  C_11
REMARK    5  A    between atoms: C_11  and  O_12
REMARK    6  A    between atoms: O_12  and  C_13
REMARK    7  A    between atoms: C_13  and  C_14
REMARK                            x       y       z     vdW  Elec       q    Type
REMARK                         _______ _______ _______ _____ _____    ______ ____
ROOT
ATOM      1  N   UNL     1       5.401   3.488  17.078  0.00  0.00    +0.000 N 
ATOM      2  C   UNL     1       4.073   3.661  17.415  0.00  0.00    +0.000 C 
ATOM      3  O   UNL     1       3.399   4.675  17.255  0.00  0.00    +0.000 OA
ATOM      4  H   UNL     1       5.797   2.572  17.276  0.00  0.00    +0.000 HD
ENDROOT
BRANCH   1  11
ATOM      5  C   UNL     1       6.058   3.899  13.986  0.00  0.00    +0.000 C 
ATOM      6  C   UNL     1       6.580   4.623  15.170  0.00  0.00    +0.000 A 
ATOM      7  N   UNL     1       7.457   5.613  14.985  0.00  0.00    +0.000 NA
ATOM      8  O   UNL     1       7.743   6.092  16.240  0.00  0.00    +0.000 OA
ATOM      9  C   UNL     1       7.041   5.400  17.180  0.00  0.00    +0.000 A 
ATOM     10  C   UNL     1       7.304   5.836  18.564  0.00  0.00    +0.000 C 
ATOM     11  C   UNL     1       6.269   4.437  16.551  0.00  0.00    +0.000 A 
ENDBRANCH   1  11
BRANCH   2  12
ATOM     12  C   UNL     1       3.433   2.391  17.972  0.00  0.00    +0.000 C 
BRANCH  12  13
ATOM     13  O   UNL     1       4.071   2.016  19.186  0.00  0.00    +0.000 OA
BRANCH  13  14
ATOM     14  C   UNL     1       3.581   2.766  20.296  0.00  0.00    +0.000 C 
BRANCH  14  15
ATOM     15  C   UNL     1       2.096   2.608  20.324  0.00  0.00    +0.000 C 
ATOM     16  C   UNL     1       1.372   2.609  21.647  0.00  0.00    +0.000 C 
ATOM     17  C   UNL     1       1.184   3.752  20.690  0.00  0.00    +0.000 C 
ENDBRANCH  14  15
ENDBRANCH  13  14
ENDBRANCH  12  13
ENDBRANCH   2  12
TORSDOF 5
ENDMDL
MODEL 4
REMARK VINA RESULT:      -7.0      0.956      2.307
REMARK  Name = 
REMARK  7 active torsions:
REMARK  status: ('A' for Active; 'I' for Inactive)
REMARK    1  A    between atoms: C_1  and  C_2
REMARK    2  A    between atoms: C_5  and  C_6
REMARK    3  A    between atoms: C_7  and  N_8
REMARK    4  A    between atoms: C_9  and  C_11
REMARK    5  A    between atoms: C_11  and  O_12
REMARK    6  A    between atoms: O_12  and  C_13
REMARK    7  A    between atoms: C_13  and  C_14
REMARK                            x       y       z     vdW  Elec       q    Type
REMARK                         _______ _______ _______ _____ _____    ______ ____
ROOT
ATOM      1  N   UNL     1       5.241   3.345  16.825  0.00  0.00    +0.000 N 
ATOM      2  C   UNL     1       3.965   3.573  17.303  0.00  0.00    +0.000 C 
ATOM      3  O   UNL     1       3.347   4.633  17.274  0.00  0.00    +0.000 OA
ATOM      4  H   UNL     1       5.594   2.396  16.925  0.00  0.00    +0.000 HD
ENDROOT
BRANCH   1  11
ATOM      5  C   UNL     1       6.843   5.583  18.435  0.00  0.00    +0.000 C 
ATOM      6  C   UNL     1       6.828   5.289  16.981  0.00  0.00    +0.000 A 
ATOM      7  N   UNL     1       7.581   6.030  16.166  0.00  0.00    +0.000 NA
ATOM      8  O   UNL     1       7.373   5.523  14.907  0.00  0.00    +0.000 OA
ATOM      9  C   UNL     1       6.502   4.477  14.959  0.00  0.00    +0.000 A 
ATOM     10  C   UNL     1       6.204   3.882  13.643  0.00  0.00    +0.000 C 
ATOM     11  C   UNL     1       6.114   4.275  16.273  0.00  0.00    +0.000 A 
ENDBRANCH   1  11
BRANCH   2  12
ATOM     12  C   UNL     1       3.301   2.307  17.842  0.00  0.00    +0.000 C 
BRANCH  12  13
ATOM     13  O   UNL     1       3.934   1.900  19.049  0.00  0.00    +0.000 OA
BRANCH  13  14
ATOM     14  C   UNL     1       3.515   2.691  20.159  0.00  0.00    +0.000 C 
BRANCH  14  15
ATOM     15  C   UNL     1       2.034   2.535  20.289  0.00  0.00    +0.000 C 
ATOM     16  C   UNL     1       1.378   2.744  21.629  0.00  0.00    +0.000 C 
ATOM     17  C   UNL     1       1.129   3.720  20.515  0.00  0.00    +0.000 C 
ENDBRANCH  14  15
ENDBRANCH  13  14
ENDBRANCH  12  13
ENDBRANCH   2  12
TORSDOF 5
ENDMDL
MODEL 5
REMARK VINA RESULT:      -6.6      1.469      1.741
REMARK  Name = 
REMARK  7 active torsions:
REMARK  status: ('A' for Active; 'I' for Inactive)
REMARK    1  A    between atoms: C_1  and  C_2
REMARK    2  A    between atoms: C_5  and  C_6
REMARK    3  A    between atoms: C_7  and  N_8
REMARK    4  A    between atoms: C_9  and  C_11
REMARK    5  A    between atoms: C_11  and  O_12
REMARK    6  A    between atoms: O_12  and  C_13
REMARK    7  A    between atoms: C_13  and  C_14
REMARK                            x       y       z     vdW  Elec       q    Type
REMARK                         _______ _______ _______ _____ _____    ______ ____
ROOT
ATOM      1  N   UNL     1       5.999   3.797  18.196  0.00  0.00    +0.000 N 
ATOM      2  C   UNL     1       4.982   4.038  19.098  0.00  0.00    +0.000 C 
ATOM      3  O   UNL     1       4.389   5.099  19.274  0.00  0.00    +0.000 OA
ATOM      4  H   UNL     1       6.369   2.850  18.180  0.00  0.00    +0.000 HD
ENDROOT
BRANCH   1  11
ATOM      5  C   UNL     1       5.888   3.746  15.010  0.00  0.00    +0.000 C 
ATOM      6  C   UNL     1       6.575   4.694  15.919  0.00  0.00    +0.000 A 
ATOM      7  N   UNL     1       7.265   5.708  15.391  0.00  0.00    +0.000 NA
ATOM      8  O   UNL     1       7.770   6.408  16.458  0.00  0.00    +0.000 OA
ATOM      9  C   UNL     1       7.384   5.826  17.628  0.00  0.00    +0.000 A 
ATOM     10  C   UNL     1       7.900   6.504  18.832  0.00  0.00    +0.000 C 
ATOM     11  C   UNL     1       6.608   4.714  17.346  0.00  0.00    +0.000 A 
ENDBRANCH   1  11
BRANCH   2  12
ATOM     12  C   UNL     1       4.564   2.786  19.867  0.00  0.00    +0.000 C 
BRANCH  12  13
ATOM     13  O   UNL     1       4.083   1.797  18.966  0.00  0.00    +0.000 OA
BRANCH  13  14
ATOM     14  C   UNL     1       2.899   2.224  18.295  0.00  0.00    +0.000 C 
BRANCH  14  15
ATOM     15  C   UNL     1       1.777   2.156  19.279  0.00  0.00    +0.000 C 
ATOM     16  C   UNL     1       1.117   3.429  19.745  0.00  0.00    +0.000 C 
ATOM     17  C   UNL     1       0.355   2.464  18.882  0.00  0.00    +0.000 C 
ENDBRANCH  14  15
ENDBRANCH  13  14
ENDBRANCH  12  13
ENDBRANCH   2  12
TORSDOF 5
ENDMDL
MODEL 6
REMARK VINA RESULT:      -6.6      1.691      2.770
REMARK  Name = 
REMARK  7 active torsions:
REMARK  status: ('A' for Active; 'I' for Inactive)
REMARK    1  A    between atoms: C_1  and  C_2
REMARK    2  A    between atoms: C_5  and  C_6
REMARK    3  A    between atoms: C_7  and  N_8
REMARK    4  A    between atoms: C_9  and  C_11
REMARK    5  A    between atoms: C_11  and  O_12
REMARK    6  A    between atoms: O_12  and  C_13
REMARK    7  A    between atoms: C_13  and  C_14
REMARK                            x       y       z     vdW  Elec       q    Type
REMARK                         _______ _______ _______ _____ _____    ______ ____
ROOT
ATOM      1  N   UNL     1       5.893   3.749  18.163  0.00  0.00    +0.000 N 
ATOM      2  C   UNL     1       4.972   3.909  19.179  0.00  0.00    +0.000 C 
ATOM      3  O   UNL     1       4.396   4.947  19.494  0.00  0.00    +0.000 OA
ATOM      4  H   UNL     1       6.264   2.809  18.039  0.00  0.00    +0.000 HD
ENDROOT
BRANCH   1  11
ATOM      5  C   UNL     1       7.869   6.091  19.042  0.00  0.00    +0.000 C 
ATOM      6  C   UNL     1       7.285   5.793  17.712  0.00  0.00    +0.000 A 
ATOM      7  N   UNL     1       7.596   6.581  16.679  0.00  0.00    +0.000 NA
ATOM      8  O   UNL     1       6.927   6.058  15.600  0.00  0.00    +0.000 OA
ATOM      9  C   UNL     1       6.218   4.957  15.975  0.00  0.00    +0.000 A 
ATOM     10  C   UNL     1       5.449   4.340  14.878  0.00  0.00    +0.000 C 
ATOM     11  C   UNL     1       6.409   4.733  17.328  0.00  0.00    +0.000 A 
ENDBRANCH   1  11
BRANCH   2  12
ATOM     12  C   UNL     1       4.641   2.598  19.890  0.00  0.00    +0.000 C 
BRANCH  12  13
ATOM     13  O   UNL     1       3.232   2.432  19.976  0.00  0.00    +0.000 OA
BRANCH  13  14
ATOM     14  C   UNL     1       2.682   1.930  18.759  0.00  0.00    +0.000 C 
BRANCH  14  15
ATOM     15  C   UNL     1       1.418   2.682  18.494  0.00  0.00    +0.000 C 
ATOM     16  C   UNL     1       1.091   3.902  19.316  0.00  0.00    +0.000 C 
ATOM     17  C   UNL     1       1.429   4.050  17.860  0.00  0.00    +0.000 C 
ENDBRANCH  14  15
ENDBRANCH  13  14
ENDBRANCH  12  13
ENDBRANCH   2  12
TORSDOF 5
ENDMDL
MODEL 7
REMARK VINA RESULT:      -6.4      1.670      2.588
REMARK  Name = 
REMARK  7 active torsions:
REMARK  status: ('A' for Active; 'I' for Inactive)
REMARK    1  A    between atoms: C_1  and  C_2
REMARK    2  A    between atoms: C_5  and  C_6
REMARK    3  A    between atoms: C_7  and  N_8
REMARK    4  A    between atoms: C_9  and  C_11
REMARK    5  A    between atoms: C_11  and  O_12
REMARK    6  A    between atoms: O_12  and  C_13
REMARK    7  A    between atoms: C_13  and  C_14
REMARK                            x       y       z     vdW  Elec       q    Type
REMARK                         _______ _______ _______ _____ _____    ______ ____
ROOT
ATOM      1  N   UNL     1       4.687   3.462  17.149  0.00  0.00    +0.000 N 
ATOM      2  C   UNL     1       3.431   2.933  17.368  0.00  0.00    +0.000 C 
ATOM      3  O   UNL     1       2.370   3.334  16.896  0.00  0.00    +0.000 OA
ATOM      4  H   UNL     1       5.459   2.992  17.617  0.00  0.00    +0.000 HD
ENDROOT
BRANCH   1  11
ATOM      5  C   UNL     1       4.031   6.475  17.956  0.00  0.00    +0.000 C 
ATOM      6  C   UNL     1       4.711   5.944  16.751  0.00  0.00    +0.000 A 
ATOM      7  N   UNL     1       5.147   6.802  15.826  0.00  0.00    +0.000 NA
ATOM      8  O   UNL     1       5.734   6.032  14.853  0.00  0.00    +0.000 OA
ATOM      9  C   UNL     1       5.660   4.713  15.188  0.00  0.00    +0.000 A 
ATOM     10  C   UNL     1       6.250   3.807  14.186  0.00  0.00    +0.000 C 
ATOM     11  C   UNL     1       5.010   4.591  16.405  0.00  0.00    +0.000 A 
ENDBRANCH   1  11
BRANCH   2  12
ATOM     12  C   UNL     1       3.460   1.681  18.242  0.00  0.00    +0.000 C 
BRANCH  12  13
ATOM     13  O   UNL     1       4.176   1.940  19.443  0.00  0.00    +0.000 OA
BRANCH  13  14
ATOM     14  C   UNL     1       3.521   2.917  20.250  0.00  0.00    +0.000 C 
BRANCH  14  15
ATOM     15  C   UNL     1       2.089   2.508  20.376  0.00  0.00    +0.000 C 
ATOM     16  C   UNL     1       1.351   2.767  21.664  0.00  0.00    +0.000 C 
ATOM     17  C   UNL     1       0.976   3.525  20.422  0.00  0.00    +0.000 C 
ENDBRANCH  14  15
ENDBRANCH  13  14
ENDBRANCH  12  13
ENDBRANCH   2  12
TORSDOF 5
ENDMDL
MODEL 8
REMARK VINA RESULT:      -6.4      1.832      2.154
REMARK  Name = 
REMARK  7 active torsions:
REMARK  status: ('A' for Active; 'I' for Inactive)
REMARK    1  A    between atoms: C_1  and  C_2
REMARK    2  A    between atoms: C_5  and  C_6
REMARK    3  A    between atoms: C_7  and  N_8
REMARK    4  A    between atoms: C_9  and  C_11
REMARK    5  A    between atoms: C_11  and  O_12
REMARK    6  A    between atoms: O_12  and  C_13
REMARK    7  A    between atoms: C_13  and  C_14
REMARK                            x       y       z     vdW  Elec       q    Type
REMARK                         _______ _______ _______ _____ _____    ______ ____
ROOT
ATOM      1  N   UNL     1       3.927   3.881  17.128  0.00  0.00    +0.000 N 
ATOM      2  C   UNL     1       4.020   3.039  18.219  0.00  0.00    +0.000 C 
ATOM      3  O   UNL     1       4.659   3.236  19.248  0.00  0.00    +0.000 OA
ATOM      4  H   UNL     1       3.340   3.557  16.362  0.00  0.00    +0.000 HD
ENDROOT
BRANCH   1  11
ATOM      5  C   UNL     1       6.676   4.282  15.563  0.00  0.00    +0.000 C 
ATOM      6  C   UNL     1       5.820   5.281  16.248  0.00  0.00    +0.000 A 
ATOM      7  N   UNL     1       6.193   6.563  16.241  0.00  0.00    +0.000 NA
ATOM      8  O   UNL     1       5.216   7.238  16.929  0.00  0.00    +0.000 OA
ATOM      9  C   UNL     1       4.251   6.371  17.346  0.00  0.00    +0.000 A 
ATOM     10  C   UNL     1       3.166   7.009  18.115  0.00  0.00    +0.000 C 
ATOM     11  C   UNL     1       4.583   5.091  16.936  0.00  0.00    +0.000 A 
ENDBRANCH   1  11
BRANCH   2  12
ATOM     12  C   UNL     1       3.152   1.790  18.078  0.00  0.00    +0.000 C 
BRANCH  12  13
ATOM     13  O   UNL     1       2.198   1.737  19.130  0.00  0.00    +0.000 OA
BRANCH  13  14
ATOM     14  C   UNL     1       1.072   2.573  18.867  0.00  0.00    +0.000 C 
BRANCH  14  15
ATOM     15  C   UNL     1       0.730   3.278  20.139  0.00  0.00    +0.000 C 
ATOM     16  C   UNL     1       1.716   3.277  21.279  0.00  0.00    +0.000 C 
ATOM     17  C   UNL     1       1.420   4.556  20.547  0.00  0.00    +0.000 C 
ENDBRANCH  14  15
ENDBRANCH  13  14
ENDBRANCH  12  13
ENDBRANCH   2  12
TORSDOF 5
ENDMDL
MODEL 9
REMARK VINA RESULT:      -6.4      0.919      1.023
REMARK  Name = 
REMARK  7 active torsions:
REMARK  status: ('A' for Active; 'I' for Inactive)
REMARK    1  A    between atoms: C_1  and  C_2
REMARK    2  A    between atoms: C_5  and  C_6
REMARK    3  A    between atoms: C_7  and  N_8
REMARK    4  A    between atoms: C_9  and  C_11
REMARK    5  A    between atoms: C_11  and  O_12
REMARK    6  A    between atoms: O_12  and  C_13
REMARK    7  A    between atoms: C_13  and  C_14
REMARK                            x       y       z     vdW  Elec       q    Type
REMARK                         _______ _______ _______ _____ _____    ______ ____
ROOT
ATOM      1  N   UNL     1       4.457   4.360  16.147  0.00  0.00    +0.000 N 
ATOM      2  C   UNL     1       4.112   3.685  17.301  0.00  0.00    +0.000 C 
ATOM      3  O   UNL     1       4.824   3.493  18.283  0.00  0.00    +0.000 OA
ATOM      4  H   UNL     1       3.733   4.431  15.436  0.00  0.00    +0.000 HD
ENDROOT
BRANCH   1  11
ATOM      5  C   UNL     1       6.133   3.754  13.504  0.00  0.00    +0.000 C 
ATOM      6  C   UNL     1       6.459   4.634  14.652  0.00  0.00    +0.000 A 
ATOM      7  N   UNL     1       7.611   5.310  14.639  0.00  0.00    +0.000 NA
ATOM      8  O   UNL     1       7.628   6.034  15.806  0.00  0.00    +0.000 OA
ATOM      9  C   UNL     1       6.491   5.802  16.520  0.00  0.00    +0.000 A 
ATOM     10  C   UNL     1       6.433   6.527  17.803  0.00  0.00    +0.000 C 
ATOM     11  C   UNL     1       5.694   4.907  15.826  0.00  0.00    +0.000 A 
ENDBRANCH   1  11
BRANCH   2  12
ATOM     12  C   UNL     1       2.656   3.222  17.303  0.00  0.00    +0.000 C 
BRANCH  12  13
ATOM     13  O   UNL     1       2.398   2.429  18.454  0.00  0.00    +0.000 OA
BRANCH  13  14
ATOM     14  C   UNL     1       1.038   2.532  18.874  0.00  0.00    +0.000 C 
BRANCH  14  15
ATOM     15  C   UNL     1       1.040   3.046  20.278  0.00  0.00    +0.000 C 
ATOM     16  C   UNL     1       2.331   3.517  20.896  0.00  0.00    +0.000 C 
ATOM     17  C   UNL     1       1.244   4.508  20.586  0.00  0.00    +0.000 C 
ENDBRANCH  14  15
ENDBRANCH  13  14
ENDBRANCH  12  13
ENDBRANCH   2  12
TORSDOF 5
ENDMDL
