MODEL 1
REMARK VINA RESULT:      -8.1      0.000      0.000
REMARK  Name = 
REMARK  11 active torsions:
REMARK  status: ('A' for Active; 'I' for Inactive)
REMARK    1  A    between atoms: C_2  and  O_3
REMARK    2  A    between atoms: C_2  and  C_4
REMARK    3  A    between atoms: C_4  and  C_5
REMARK    4  A    between atoms: C_5  and  C_6
REMARK    5  A    between atoms: C_6  and  C_7
REMARK    6  A    between atoms: C_7  and  N_8
REMARK    7  A    between atoms: C_9  and  C_11
REMARK    8  A    between atoms: C_17  and  C_18
REMARK    9  A    between atoms: N_26  and  C_27
REMARK   10  A    between atoms: C_27  and  C_28
REMARK   11  A    between atoms: C_34  and  O_35
REMARK                            x       y       z     vdW  Elec       q    Type
REMARK                         _______ _______ _______ _____ _____    ______ ____
ROOT
ATOM      1  C   UNL     1       5.624   5.382  16.787  0.00  0.00    +0.000 A 
ATOM      2  N   UNL     1       5.374   4.460  17.762  0.00  0.00    +0.000 NA
ATOM      3  C   UNL     1       4.424   4.784  18.678  0.00  0.00    +0.000 A 
ATOM      4  C   UNL     1       3.695   5.975  18.708  0.00  0.00    +0.000 A 
ATOM      5  C   UNL     1       3.938   6.882  17.663  0.00  0.00    +0.000 A 
ATOM      6  C   UNL     1       3.137   8.106  17.612  0.00  0.00    +0.000 A 
ATOM      7  C   UNL     1       2.221   8.391  18.541  0.00  0.00    +0.000 A 
ATOM      8  C   UNL     1       2.012   7.493  19.718  0.00  0.00    +0.000 A 
ATOM      9  O   UNL     1       1.220   7.824  20.603  0.00  0.00    +0.000 OA
ATOM     10  N   UNL     1       2.755   6.306  19.748  0.00  0.00    +0.000 N 
ATOM     11  C   UNL     1       4.921   6.586  16.692  0.00  0.00    +0.000 A 
ENDROOT
BRANCH   7  12
ATOM     12  C   UNL     1       1.425   9.620  18.367  0.00  0.00    +0.000 A 
ATOM     13  C   UNL     1       2.020  10.873  18.559  0.00  0.00    +0.000 A 
ATOM     14  C   UNL     1       1.247  12.034  18.500  0.00  0.00    +0.000 A 
ATOM     15  C   UNL     1      -0.122  11.948  18.248  0.00  0.00    +0.000 A 
ATOM     16  C   UNL     1      -0.718  10.704  18.045  0.00  0.00    +0.000 A 
ATOM     17  C   UNL     1       0.052   9.541  18.109  0.00  0.00    +0.000 A 
ENDBRANCH   7  12
BRANCH   1  19
ATOM     18  N   UNL     1       6.439   5.217  14.484  0.00  0.00    +0.000 N 
ATOM     19  C   UNL     1       6.733   5.019  15.824  0.00  0.00    +0.000 C 
ATOM     20  O   UNL     1       7.816   4.575  16.186  0.00  0.00    +0.000 OA
ATOM     21  H   UNL     1       5.526   5.602  14.263  0.00  0.00    +0.000 HD
BRANCH  18  22
ATOM     22  C   UNL     1       7.408   4.952  13.441  0.00  0.00    +0.000 C 
BRANCH  22  23
ATOM     23  C   UNL     1       6.782   4.291  12.214  0.00  0.00    +0.000 C 
BRANCH  23  24
ATOM     24  C   UNL     1       5.739   3.225  12.574  0.00  0.00    +0.000 C 
BRANCH  24  25
ATOM     25  C   UNL     1       5.370   2.339  11.384  0.00  0.00    +0.000 C 
BRANCH  25  27
ATOM     26  O   UNL     1       5.902  -0.023  11.183  0.00  0.00    +0.000 OA
ATOM     27  C   UNL     1       6.278   1.136  11.249  0.00  0.00    +0.000 C 
BRANCH  27  28
ATOM     28  O   UNL     1       7.586   1.473  11.176  0.00  0.00    +0.000 OA
ATOM     29  H   UNL     1       8.070   1.379  12.017  0.00  0.00    +0.000 HD
ENDBRANCH  27  28
ENDBRANCH  25  27
ENDBRANCH  24  25
ENDBRANCH  23  24
ENDBRANCH  22  23
ENDBRANCH  18  22
ENDBRANCH   1  19
BRANCH  11  30
ATOM     30  O   UNL     1       5.213   7.441  15.662  0.00  0.00    +0.000 OA
ATOM     31  H   UNL     1       4.441   7.895  15.309  0.00  0.00    +0.000 HD
ENDBRANCH  11  30
BRANCH  10  32
ATOM     32  C   UNL     1       2.543   5.434  20.910  0.00  0.00    +0.000 C 
BRANCH  32  33
ATOM     33  C   UNL     1       1.989   4.080  20.521  0.00  0.00    +0.000 A 
ATOM     34  C   UNL     1       2.594   2.899  20.967  0.00  0.00    +0.000 A 
ATOM     35  C   UNL     1       2.216   1.664  20.440  0.00  0.00    +0.000 A 
ATOM     36  C   UNL     1       1.188   1.591  19.503  0.00  0.00    +0.000 A 
ATOM     37  C   UNL     1       0.510   2.747  19.126  0.00  0.00    +0.000 A 
ATOM     38  C   UNL     1       0.907   3.985  19.632  0.00  0.00    +0.000 A 
ENDBRANCH  32  33
ENDBRANCH  10  32
TORSDOF 11
ENDMDL
MODEL 2
REMARK VINA RESULT:      -7.9      4.463      7.984
REMARK  Name = 
REMARK  11 active torsions:
REMARK  status: ('A' for Active; 'I' for Inactive)
REMARK    1  A    between atoms: C_2  and  O_3
REMARK    2  A    between atoms: C_2  and  C_4
REMARK    3  A    between atoms: C_4  and  C_5
REMARK    4  A    between atoms: C_5  and  C_6
REMARK    5  A    between atoms: C_6  and  C_7
REMARK    6  A    between atoms: C_7  and  N_8
REMARK    7  A    between atoms: C_9  and  C_11
REMARK    8  A    between atoms: C_17  and  C_18
REMARK    9  A    between atoms: N_26  and  C_27
REMARK   10  A    between atoms: C_27  and  C_28
REMARK   11  A    between atoms: C_34  and  O_35
REMARK                            x       y       z     vdW  Elec       q    Type
REMARK                         _______ _______ _______ _____ _____    ______ ____
ROOT
ATOM      1  C   UNL     1       1.387   8.438  19.935  0.00  0.00    +0.000 A 
ATOM      2  N   UNL     1       1.281   8.926  18.665  0.00  0.00    +0.000 NA
ATOM      3  C   UNL     1       0.530  10.048  18.505  0.00  0.00    +0.000 A 
ATOM      4  C   UNL     1      -0.140  10.730  19.523  0.00  0.00    +0.000 A 
ATOM      5  C   UNL     1       0.030  10.232  20.826  0.00  0.00    +0.000 A 
ATOM      6  C   UNL     1      -0.590  10.966  21.931  0.00  0.00    +0.000 A 
ATOM      7  C   UNL     1      -1.330  12.058  21.728  0.00  0.00    +0.000 A 
ATOM      8  C   UNL     1      -1.611  12.552  20.345  0.00  0.00    +0.000 A 
ATOM      9  O   UNL     1      -2.368  13.513  20.183  0.00  0.00    +0.000 OA
ATOM     10  N   UNL     1      -0.990  11.870  19.290  0.00  0.00    +0.000 N 
ATOM     11  C   UNL     1       0.799   9.065  21.036  0.00  0.00    +0.000 A 
ENDROOT
BRANCH   7  12
ATOM     12  C   UNL     1      -1.861  12.759  22.911  0.00  0.00    +0.000 A 
ATOM     13  C   UNL     1      -3.094  12.379  23.456  0.00  0.00    +0.000 A 
ATOM     14  C   UNL     1      -3.651  13.106  24.509  0.00  0.00    +0.000 A 
ATOM     15  C   UNL     1      -2.979  14.214  25.023  0.00  0.00    +0.000 A 
ATOM     16  C   UNL     1      -1.746  14.592  24.491  0.00  0.00    +0.000 A 
ATOM     17  C   UNL     1      -1.189  13.870  23.434  0.00  0.00    +0.000 A 
ENDBRANCH   7  12
BRANCH   1  19
ATOM     18  N   UNL     1       1.600   6.191  20.887  0.00  0.00    +0.000 N 
ATOM     19  C   UNL     1       2.174   7.151  20.068  0.00  0.00    +0.000 C 
ATOM     20  O   UNL     1       3.244   6.959  19.504  0.00  0.00    +0.000 OA
ATOM     21  H   UNL     1       0.704   6.418  21.308  0.00  0.00    +0.000 HD
BRANCH  18  22
ATOM     22  C   UNL     1       2.209   4.893  21.087  0.00  0.00    +0.000 C 
BRANCH  22  23
ATOM     23  C   UNL     1       1.348   3.752  20.548  0.00  0.00    +0.000 C 
BRANCH  23  24
ATOM     24  C   UNL     1       2.149   2.470  20.283  0.00  0.00    +0.000 C 
BRANCH  24  25
ATOM     25  C   UNL     1       3.092   2.602  19.088  0.00  0.00    +0.000 C 
BRANCH  25  27
ATOM     26  O   UNL     1       5.192   3.785  19.392  0.00  0.00    +0.000 OA
ATOM     27  C   UNL     1       4.539   2.760  19.501  0.00  0.00    +0.000 C 
BRANCH  27  28
ATOM     28  O   UNL     1       5.053   1.634  20.047  0.00  0.00    +0.000 OA
ATOM     29  H   UNL     1       5.482   1.771  20.912  0.00  0.00    +0.000 HD
ENDBRANCH  27  28
ENDBRANCH  25  27
ENDBRANCH  24  25
ENDBRANCH  23  24
ENDBRANCH  22  23
ENDBRANCH  18  22
ENDBRANCH   1  19
BRANCH  11  30
ATOM     30  O   UNL     1       0.983   8.525  22.280  0.00  0.00    +0.000 OA
ATOM     31  H   UNL     1       0.278   7.925  22.547  0.00  0.00    +0.000 HD
ENDBRANCH  11  30
BRANCH  10  32
ATOM     32  C   UNL     1      -1.276  12.362  17.937  0.00  0.00    +0.000 C 
BRANCH  32  33
ATOM     33  C   UNL     1      -2.358  11.559  17.248  0.00  0.00    +0.000 A 
ATOM     34  C   UNL     1      -2.047  10.674  16.209  0.00  0.00    +0.000 A 
ATOM     35  C   UNL     1      -3.057  10.099  15.438  0.00  0.00    +0.000 A 
ATOM     36  C   UNL     1      -4.393  10.357  15.735  0.00  0.00    +0.000 A 
ATOM     37  C   UNL     1      -4.718  11.154  16.829  0.00  0.00    +0.000 A 
ATOM     38  C   UNL     1      -3.708  11.752  17.582  0.00  0.00    +0.000 A 
ENDBRANCH  32  33
ENDBRANCH  10  32
TORSDOF 11
ENDMDL
MODEL 3
REMARK VINA RESULT:      -7.8      4.081      7.905
REMARK  Name = 
REMARK  11 active torsions:
REMARK  status: ('A' for Active; 'I' for Inactive)
REMARK    1  A    between atoms: C_2  and  O_3
REMARK    2  A    between atoms: C_2  and  C_4
REMARK    3  A    between atoms: C_4  and  C_5
REMARK    4  A    between atoms: C_5  and  C_6
REMARK    5  A    between atoms: C_6  and  C_7
REMARK    6  A    between atoms: C_7  and  N_8
REMARK    7  A    between atoms: C_9  and  C_11
REMARK    8  A    between atoms: C_17  and  C_18
REMARK    9  A    between atoms: N_26  and  C_27
REMARK   10  A    between atoms: C_27  and  C_28
REMARK   11  A    between atoms: C_34  and  O_35
REMARK                            x       y       z     vdW  Elec       q    Type
REMARK                         _______ _______ _______ _____ _____    ______ ____
ROOT
ATOM      1  C   UNL     1       1.358   9.601  19.155  0.00  0.00    +0.000 A 
ATOM      2  N   UNL     1       0.660   9.381  20.307  0.00  0.00    +0.000 NA
ATOM      3  C   UNL     1       0.158  10.478  20.933  0.00  0.00    +0.000 A 
ATOM      4  C   UNL     1       0.302  11.798  20.502  0.00  0.00    +0.000 A 
ATOM      5  C   UNL     1       0.981  11.987  19.286  0.00  0.00    +0.000 A 
ATOM      6  C   UNL     1       1.083  13.349  18.758  0.00  0.00    +0.000 A 
ATOM      7  C   UNL     1       0.584  14.401  19.412  0.00  0.00    +0.000 A 
ATOM      8  C   UNL     1      -0.054  14.241  20.754  0.00  0.00    +0.000 A 
ATOM      9  O   UNL     1      -0.429  15.240  21.373  0.00  0.00    +0.000 OA
ATOM     10  N   UNL     1      -0.181  12.935  21.244  0.00  0.00    +0.000 N 
ATOM     11  C   UNL     1       1.523  10.874  18.605  0.00  0.00    +0.000 A 
ENDROOT
BRANCH   7  12
ATOM     12  C   UNL     1       0.685  15.723  18.766  0.00  0.00    +0.000 A 
ATOM     13  C   UNL     1      -0.476  16.415  18.403  0.00  0.00    +0.000 A 
ATOM     14  C   UNL     1      -0.387  17.617  17.698  0.00  0.00    +0.000 A 
ATOM     15  C   UNL     1       0.863  18.130  17.353  0.00  0.00    +0.000 A 
ATOM     16  C   UNL     1       2.024  17.451  17.721  0.00  0.00    +0.000 A 
ATOM     17  C   UNL     1       1.937  16.247  18.422  0.00  0.00    +0.000 A 
ENDBRANCH   7  12
BRANCH   1  19
ATOM     18  N   UNL     1       2.116   7.282  19.371  0.00  0.00    +0.000 N 
ATOM     19  C   UNL     1       1.961   8.366  18.520  0.00  0.00    +0.000 C 
ATOM     20  O   UNL     1       2.298   8.313  17.344  0.00  0.00    +0.000 OA
ATOM     21  H   UNL     1       1.800   7.398  20.329  0.00  0.00    +0.000 HD
BRANCH  18  22
ATOM     22  C   UNL     1       2.644   6.016  18.908  0.00  0.00    +0.000 C 
BRANCH  22  23
ATOM     23  C   UNL     1       4.102   5.805  19.315  0.00  0.00    +0.000 C 
BRANCH  23  24
ATOM     24  C   UNL     1       5.043   5.647  18.114  0.00  0.00    +0.000 C 
BRANCH  24  25
ATOM     25  C   UNL     1       6.501   5.459  18.531  0.00  0.00    +0.000 C 
BRANCH  25  27
ATOM     26  O   UNL     1       8.048   4.229  17.119  0.00  0.00    +0.000 OA
ATOM     27  C   UNL     1       7.425   5.252  17.350  0.00  0.00    +0.000 C 
BRANCH  27  28
ATOM     28  O   UNL     1       7.475   6.326  16.530  0.00  0.00    +0.000 OA
ATOM     29  H   UNL     1       8.258   6.892  16.664  0.00  0.00    +0.000 HD
ENDBRANCH  27  28
ENDBRANCH  25  27
ENDBRANCH  24  25
ENDBRANCH  23  24
ENDBRANCH  22  23
ENDBRANCH  18  22
ENDBRANCH   1  19
BRANCH  11  30
ATOM     30  O   UNL     1       2.210  11.001  17.427  0.00  0.00    +0.000 OA
ATOM     31  H   UNL     1       3.158  10.857  17.518  0.00  0.00    +0.000 HD
ENDBRANCH  11  30
BRANCH  10  32
ATOM     32  C   UNL     1      -0.807  12.791  22.565  0.00  0.00    +0.000 C 
BRANCH  32  33
ATOM     33  C   UNL     1      -2.316  12.712  22.481  0.00  0.00    +0.000 A 
ATOM     34  C   UNL     1      -2.967  12.671  21.243  0.00  0.00    +0.000 A 
ATOM     35  C   UNL     1      -4.353  12.813  21.163  0.00  0.00    +0.000 A 
ATOM     36  C   UNL     1      -5.109  12.937  22.326  0.00  0.00    +0.000 A 
ATOM     37  C   UNL     1      -4.484  12.877  23.569  0.00  0.00    +0.000 A 
ATOM     38  C   UNL     1      -3.096  12.764  23.647  0.00  0.00    +0.000 A 
ENDBRANCH  32  33
ENDBRANCH  10  32
TORSDOF 11
ENDMDL
MODEL 4
REMARK VINA RESULT:      -7.8      3.214      7.972
REMARK  Name = 
REMARK  11 active torsions:
REMARK  status: ('A' for Active; 'I' for Inactive)
REMARK    1  A    between atoms: C_2  and  O_3
REMARK    2  A    between atoms: C_2  and  C_4
REMARK    3  A    between atoms: C_4  and  C_5
REMARK    4  A    between atoms: C_5  and  C_6
REMARK    5  A    between atoms: C_6  and  C_7
REMARK    6  A    between atoms: C_7  and  N_8
REMARK    7  A    between atoms: C_9  and  C_11
REMARK    8  A    between atoms: C_17  and  C_18
REMARK    9  A    between atoms: N_26  and  C_27
REMARK   10  A    between atoms: C_27  and  C_28
REMARK   11  A    between atoms: C_34  and  O_35
REMARK                            x       y       z     vdW  Elec       q    Type
REMARK                         _______ _______ _______ _____ _____    ______ ____
ROOT
ATOM      1  C   UNL     1       0.939   9.848  19.344  0.00  0.00    +0.000 A 
ATOM      2  N   UNL     1       0.670   9.142  20.481  0.00  0.00    +0.000 NA
ATOM      3  C   UNL     1       1.312   7.953  20.625  0.00  0.00    +0.000 A 
ATOM      4  C   UNL     1       2.210   7.397  19.710  0.00  0.00    +0.000 A 
ATOM      5  C   UNL     1       2.504   8.171  18.575  0.00  0.00    +0.000 A 
ATOM      6  C   UNL     1       3.501   7.660  17.632  0.00  0.00    +0.000 A 
ATOM      7  C   UNL     1       4.100   6.480  17.806  0.00  0.00    +0.000 A 
ATOM      8  C   UNL     1       3.733   5.591  18.951  0.00  0.00    +0.000 A 
ATOM      9  O   UNL     1       4.240   4.470  19.039  0.00  0.00    +0.000 OA
ATOM     10  N   UNL     1       2.804   6.094  19.870  0.00  0.00    +0.000 N 
ATOM     11  C   UNL     1       1.855   9.411  18.384  0.00  0.00    +0.000 A 
ENDROOT
BRANCH   7  12
ATOM     12  C   UNL     1       5.134   6.083  16.832  0.00  0.00    +0.000 A 
ATOM     13  C   UNL     1       4.786   5.312  15.716  0.00  0.00    +0.000 A 
ATOM     14  C   UNL     1       5.775   4.845  14.849  0.00  0.00    +0.000 A 
ATOM     15  C   UNL     1       7.114   5.146  15.092  0.00  0.00    +0.000 A 
ATOM     16  C   UNL     1       7.466   5.922  16.196  0.00  0.00    +0.000 A 
ATOM     17  C   UNL     1       6.480   6.386  17.068  0.00  0.00    +0.000 A 
ENDBRANCH   7  12
BRANCH   1  19
ATOM     18  N   UNL     1      -0.772  11.135  18.154  0.00  0.00    +0.000 N 
ATOM     19  C   UNL     1       0.156  11.134  19.183  0.00  0.00    +0.000 C 
ATOM     20  O   UNL     1       0.324  12.114  19.899  0.00  0.00    +0.000 OA
ATOM     21  H   UNL     1      -0.863  10.280  17.613  0.00  0.00    +0.000 HD
BRANCH  18  22
ATOM     22  C   UNL     1      -1.625  12.276  17.894  0.00  0.00    +0.000 C 
BRANCH  22  23
ATOM     23  C   UNL     1      -3.089  12.001  18.231  0.00  0.00    +0.000 C 
BRANCH  23  24
ATOM     24  C   UNL     1      -3.585  10.651  17.696  0.00  0.00    +0.000 C 
BRANCH  24  25
ATOM     25  C   UNL     1      -4.168  10.757  16.287  0.00  0.00    +0.000 C 
BRANCH  25  27
ATOM     26  O   UNL     1      -3.347  10.481  14.018  0.00  0.00    +0.000 OA
ATOM     27  C   UNL     1      -3.193  10.317  15.217  0.00  0.00    +0.000 C 
BRANCH  27  28
ATOM     28  O   UNL     1      -2.084   9.734  15.727  0.00  0.00    +0.000 OA
ATOM     29  H   UNL     1      -1.299   9.798  15.151  0.00  0.00    +0.000 HD
ENDBRANCH  27  28
ENDBRANCH  25  27
ENDBRANCH  24  25
ENDBRANCH  23  24
ENDBRANCH  22  23
ENDBRANCH  18  22
ENDBRANCH   1  19
BRANCH  11  30
ATOM     30  O   UNL     1       2.089  10.198  17.288  0.00  0.00    +0.000 OA
ATOM     31  H   UNL     1       2.779  10.856  17.428  0.00  0.00    +0.000 HD
ENDBRANCH  11  30
BRANCH  10  32
ATOM     32  C   UNL     1       2.449   5.211  20.988  0.00  0.00    +0.000 C 
BRANCH  32  33
ATOM     33  C   UNL     1       1.898   3.881  20.520  0.00  0.00    +0.000 A 
ATOM     34  C   UNL     1       2.447   2.675  20.969  0.00  0.00    +0.000 A 
ATOM     35  C   UNL     1       2.084   1.464  20.379  0.00  0.00    +0.000 A 
ATOM     36  C   UNL     1       1.123   1.441  19.372  0.00  0.00    +0.000 A 
ATOM     37  C   UNL     1       0.494   2.621  18.986  0.00  0.00    +0.000 A 
ATOM     38  C   UNL     1       0.878   3.835  19.555  0.00  0.00    +0.000 A 
ENDBRANCH  32  33
ENDBRANCH  10  32
TORSDOF 11
ENDMDL
MODEL 5
REMARK VINA RESULT:      -7.7      3.393      8.996
REMARK  Name = 
REMARK  11 active torsions:
REMARK  status: ('A' for Active; 'I' for Inactive)
REMARK    1  A    between atoms: C_2  and  O_3
REMARK    2  A    between atoms: C_2  and  C_4
REMARK    3  A    between atoms: C_4  and  C_5
REMARK    4  A    between atoms: C_5  and  C_6
REMARK    5  A    between atoms: C_6  and  C_7
REMARK    6  A    between atoms: C_7  and  N_8
REMARK    7  A    between atoms: C_9  and  C_11
REMARK    8  A    between atoms: C_17  and  C_18
REMARK    9  A    between atoms: N_26  and  C_27
REMARK   10  A    between atoms: C_27  and  C_28
REMARK   11  A    between atoms: C_34  and  O_35
REMARK                            x       y       z     vdW  Elec       q    Type
REMARK                         _______ _______ _______ _____ _____    ______ ____
ROOT
ATOM      1  C   UNL     1       0.640  10.044  19.300  0.00  0.00    +0.000 A 
ATOM      2  N   UNL     1       0.347   9.377  20.454  0.00  0.00    +0.000 NA
ATOM      3  C   UNL     1       1.017   8.215  20.673  0.00  0.00    +0.000 A 
ATOM      4  C   UNL     1       1.966   7.649  19.818  0.00  0.00    +0.000 A 
ATOM      5  C   UNL     1       2.283   8.385  18.663  0.00  0.00    +0.000 A 
ATOM      6  C   UNL     1       3.331   7.867  17.782  0.00  0.00    +0.000 A 
ATOM      7  C   UNL     1       3.956   6.714  18.028  0.00  0.00    +0.000 A 
ATOM      8  C   UNL     1       3.570   5.861  19.194  0.00  0.00    +0.000 A 
ATOM      9  O   UNL     1       4.105   4.761  19.349  0.00  0.00    +0.000 OA
ATOM     10  N   UNL     1       2.590   6.373  20.055  0.00  0.00    +0.000 N 
ATOM     11  C   UNL     1       1.606   9.596  18.395  0.00  0.00    +0.000 A 
ENDROOT
BRANCH   7  12
ATOM     12  C   UNL     1       5.039   6.309  17.112  0.00  0.00    +0.000 A 
ATOM     13  C   UNL     1       4.755   5.496  16.009  0.00  0.00    +0.000 A 
ATOM     14  C   UNL     1       5.790   5.023  15.200  0.00  0.00    +0.000 A 
ATOM     15  C   UNL     1       7.111   5.362  15.490  0.00  0.00    +0.000 A 
ATOM     16  C   UNL     1       7.400   6.180  16.582  0.00  0.00    +0.000 A 
ATOM     17  C   UNL     1       6.367   6.649  17.395  0.00  0.00    +0.000 A 
ENDBRANCH   7  12
BRANCH   1  19
ATOM     18  N   UNL     1      -1.522  11.192  19.350  0.00  0.00    +0.000 N 
ATOM     19  C   UNL     1      -0.172  11.298  19.056  0.00  0.00    +0.000 C 
ATOM     20  O   UNL     1       0.312  12.336  18.623  0.00  0.00    +0.000 OA
ATOM     21  H   UNL     1      -1.847  10.303  19.719  0.00  0.00    +0.000 HD
BRANCH  18  22
ATOM     22  C   UNL     1      -2.427  12.313  19.206  0.00  0.00    +0.000 C 
BRANCH  22  23
ATOM     23  C   UNL     1      -2.499  13.175  20.466  0.00  0.00    +0.000 C 
BRANCH  23  24
ATOM     24  C   UNL     1      -3.045  12.415  21.682  0.00  0.00    +0.000 C 
BRANCH  24  25
ATOM     25  C   UNL     1      -2.158  12.565  22.916  0.00  0.00    +0.000 C 
BRANCH  25  27
ATOM     26  O   UNL     1       0.120  12.928  22.153  0.00  0.00    +0.000 OA
ATOM     27  C   UNL     1      -0.716  12.190  22.648  0.00  0.00    +0.000 C 
BRANCH  27  28
ATOM     28  O   UNL     1      -0.419  10.933  23.049  0.00  0.00    +0.000 OA
ATOM     29  H   UNL     1       0.356  10.875  23.637  0.00  0.00    +0.000 HD
ENDBRANCH  27  28
ENDBRANCH  25  27
ENDBRANCH  24  25
ENDBRANCH  23  24
ENDBRANCH  22  23
ENDBRANCH  18  22
ENDBRANCH   1  19
BRANCH  11  30
ATOM     30  O   UNL     1       1.860  10.345  17.278  0.00  0.00    +0.000 OA
ATOM     31  H   UNL     1       2.654  10.071  16.804  0.00  0.00    +0.000 HD
ENDBRANCH  11  30
BRANCH  10  32
ATOM     32  C   UNL     1       2.217   5.526  21.195  0.00  0.00    +0.000 C 
BRANCH  32  33
ATOM     33  C   UNL     1       1.776   4.144  20.765  0.00  0.00    +0.000 A 
ATOM     34  C   UNL     1       2.338   2.997  21.340  0.00  0.00    +0.000 A 
ATOM     35  C   UNL     1       2.089   1.736  20.799  0.00  0.00    +0.000 A 
ATOM     36  C   UNL     1       1.230   1.601  19.712  0.00  0.00    +0.000 A 
ATOM     37  C   UNL     1       0.585   2.721  19.194  0.00  0.00    +0.000 A 
ATOM     38  C   UNL     1       0.856   3.985  19.717  0.00  0.00    +0.000 A 
ENDBRANCH  32  33
ENDBRANCH  10  32
TORSDOF 11
ENDMDL
MODEL 6
REMARK VINA RESULT:      -7.7      4.442      8.527
REMARK  Name = 
REMARK  11 active torsions:
REMARK  status: ('A' for Active; 'I' for Inactive)
REMARK    1  A    between atoms: C_2  and  O_3
REMARK    2  A    between atoms: C_2  and  C_4
REMARK    3  A    between atoms: C_4  and  C_5
REMARK    4  A    between atoms: C_5  and  C_6
REMARK    5  A    between atoms: C_6  and  C_7
REMARK    6  A    between atoms: C_7  and  N_8
REMARK    7  A    between atoms: C_9  and  C_11
REMARK    8  A    between atoms: C_17  and  C_18
REMARK    9  A    between atoms: N_26  and  C_27
REMARK   10  A    between atoms: C_27  and  C_28
REMARK   11  A    between atoms: C_34  and  O_35
REMARK                            x       y       z     vdW  Elec       q    Type
REMARK                         _______ _______ _______ _____ _____    ______ ____
ROOT
ATOM      1  C   UNL     1       1.083   9.923  19.675  0.00  0.00    +0.000 A 
ATOM      2  N   UNL     1       0.381   9.833  20.842  0.00  0.00    +0.000 NA
ATOM      3  C   UNL     1      -0.090  10.997  21.361  0.00  0.00    +0.000 A 
ATOM      4  C   UNL     1       0.088  12.266  20.806  0.00  0.00    +0.000 A 
ATOM      5  C   UNL     1       0.769  12.321  19.578  0.00  0.00    +0.000 A 
ATOM      6  C   UNL     1       0.906  13.623  18.924  0.00  0.00    +0.000 A 
ATOM      7  C   UNL     1       0.437  14.745  19.474  0.00  0.00    +0.000 A 
ATOM      8  C   UNL     1      -0.203  14.731  20.825  0.00  0.00    +0.000 A 
ATOM      9  O   UNL     1      -0.550  15.793  21.347  0.00  0.00    +0.000 OA
ATOM     10  N   UNL     1      -0.364  13.480  21.437  0.00  0.00    +0.000 N 
ATOM     11  C   UNL     1       1.281  11.134  19.007  0.00  0.00    +0.000 A 
ENDROOT
BRANCH   7  12
ATOM     12  C   UNL     1       0.572  15.997  18.706  0.00  0.00    +0.000 A 
ATOM     13  C   UNL     1      -0.571  16.669  18.257  0.00  0.00    +0.000 A 
ATOM     14  C   UNL     1      -0.449  17.795  17.441  0.00  0.00    +0.000 A 
ATOM     15  C   UNL     1       0.815  18.253  17.071  0.00  0.00    +0.000 A 
ATOM     16  C   UNL     1       1.957  17.594  17.524  0.00  0.00    +0.000 A 
ATOM     17  C   UNL     1       1.837  16.465  18.336  0.00  0.00    +0.000 A 
ENDBRANCH   7  12
BRANCH   1  19
ATOM     18  N   UNL     1       1.960   7.685  20.138  0.00  0.00    +0.000 N 
ATOM     19  C   UNL     1       1.651   8.618  19.161  0.00  0.00    +0.000 C 
ATOM     20  O   UNL     1       1.838   8.390  17.972  0.00  0.00    +0.000 OA
ATOM     21  H   UNL     1       1.764   7.941  21.101  0.00  0.00    +0.000 HD
BRANCH  18  22
ATOM     22  C   UNL     1       2.478   6.373  19.807  0.00  0.00    +0.000 C 
BRANCH  22  23
ATOM     23  C   UNL     1       1.708   5.248  20.497  0.00  0.00    +0.000 C 
BRANCH  23  24
ATOM     24  C   UNL     1       2.520   3.951  20.615  0.00  0.00    +0.000 C 
BRANCH  24  25
ATOM     25  C   UNL     1       3.167   3.542  19.292  0.00  0.00    +0.000 C 
BRANCH  25  27
ATOM     26  O   UNL     1       5.502   4.166  19.039  0.00  0.00    +0.000 OA
ATOM     27  C   UNL     1       4.665   3.358  19.408  0.00  0.00    +0.000 C 
BRANCH  27  28
ATOM     28  O   UNL     1       5.005   2.192  20.005  0.00  0.00    +0.000 OA
ATOM     29  H   UNL     1       5.966   2.040  20.064  0.00  0.00    +0.000 HD
ENDBRANCH  27  28
ENDBRANCH  25  27
ENDBRANCH  24  25
ENDBRANCH  23  24
ENDBRANCH  22  23
ENDBRANCH  18  22
ENDBRANCH   1  19
BRANCH  11  30
ATOM     30  O   UNL     1       1.968  11.130  17.823  0.00  0.00    +0.000 OA
ATOM     31  H   UNL     1       1.462  11.481  17.082  0.00  0.00    +0.000 HD
ENDBRANCH  11  30
BRANCH  10  32
ATOM     32  C   UNL     1      -0.991  13.479  22.765  0.00  0.00    +0.000 C 
BRANCH  32  33
ATOM     33  C   UNL     1      -2.471  13.170  22.702  0.00  0.00    +0.000 A 
ATOM     34  C   UNL     1      -3.186  13.313  21.507  0.00  0.00    +0.000 A 
ATOM     35  C   UNL     1      -4.579  13.235  21.499  0.00  0.00    +0.000 A 
ATOM     36  C   UNL     1      -5.269  12.955  22.676  0.00  0.00    +0.000 A 
ATOM     37  C   UNL     1      -4.564  12.711  23.851  0.00  0.00    +0.000 A 
ATOM     38  C   UNL     1      -3.173  12.817  23.865  0.00  0.00    +0.000 A 
ENDBRANCH  32  33
ENDBRANCH  10  32
TORSDOF 11
ENDMDL
MODEL 7
REMARK VINA RESULT:      -7.7      4.430      8.364
REMARK  Name = 
REMARK  11 active torsions:
REMARK  status: ('A' for Active; 'I' for Inactive)
REMARK    1  A    between atoms: C_2  and  O_3
REMARK    2  A    between atoms: C_2  and  C_4
REMARK    3  A    between atoms: C_4  and  C_5
REMARK    4  A    between atoms: C_5  and  C_6
REMARK    5  A    between atoms: C_6  and  C_7
REMARK    6  A    between atoms: C_7  and  N_8
REMARK    7  A    between atoms: C_9  and  C_11
REMARK    8  A    between atoms: C_17  and  C_18
REMARK    9  A    between atoms: N_26  and  C_27
REMARK   10  A    between atoms: C_27  and  C_28
REMARK   11  A    between atoms: C_34  and  O_35
REMARK                            x       y       z     vdW  Elec       q    Type
REMARK                         _______ _______ _______ _____ _____    ______ ____
ROOT
ATOM      1  C   UNL     1       1.172   9.599  19.712  0.00  0.00    +0.000 A 
ATOM      2  N   UNL     1       0.506   9.499  20.899  0.00  0.00    +0.000 NA
ATOM      3  C   UNL     1       0.036  10.657  21.432  0.00  0.00    +0.000 A 
ATOM      4  C   UNL     1       0.182  11.929  20.873  0.00  0.00    +0.000 A 
ATOM      5  C   UNL     1       0.827  11.992  19.626  0.00  0.00    +0.000 A 
ATOM      6  C   UNL     1       0.930  13.297  18.969  0.00  0.00    +0.000 A 
ATOM      7  C   UNL     1       0.463  14.413  19.534  0.00  0.00    +0.000 A 
ATOM      8  C   UNL     1      -0.137  14.390  20.903  0.00  0.00    +0.000 A 
ATOM      9  O   UNL     1      -0.482  15.448  21.435  0.00  0.00    +0.000 OA
ATOM     10  N   UNL     1      -0.265  13.137  21.518  0.00  0.00    +0.000 N 
ATOM     11  C   UNL     1       1.336  10.812  19.039  0.00  0.00    +0.000 A 
ENDROOT
BRANCH   7  12
ATOM     12  C   UNL     1       0.561  15.666  18.764  0.00  0.00    +0.000 A 
ATOM     13  C   UNL     1       1.817  16.210  18.467  0.00  0.00    +0.000 A 
ATOM     14  C   UNL     1       1.914  17.449  17.832  0.00  0.00    +0.000 A 
ATOM     15  C   UNL     1       0.758  18.149  17.490  0.00  0.00    +0.000 A 
ATOM     16  C   UNL     1      -0.497  17.608  17.773  0.00  0.00    +0.000 A 
ATOM     17  C   UNL     1      -0.596  16.372  18.414  0.00  0.00    +0.000 A 
ENDBRANCH   7  12
BRANCH   1  19
ATOM     18  N   UNL     1       2.085   7.369  20.147  0.00  0.00    +0.000 N 
ATOM     19  C   UNL     1       1.741   8.301  19.180  0.00  0.00    +0.000 C 
ATOM     20  O   UNL     1       1.899   8.077  17.986  0.00  0.00    +0.000 OA
ATOM     21  H   UNL     1       1.912   7.621  21.115  0.00  0.00    +0.000 HD
BRANCH  18  22
ATOM     22  C   UNL     1       2.609   6.064  19.800  0.00  0.00    +0.000 C 
BRANCH  22  23
ATOM     23  C   UNL     1       2.075   4.958  20.709  0.00  0.00    +0.000 C 
BRANCH  23  24
ATOM     24  C   UNL     1       1.065   4.040  20.008  0.00  0.00    +0.000 C 
BRANCH  24  25
ATOM     25  C   UNL     1       1.366   3.863  18.521  0.00  0.00    +0.000 C 
BRANCH  25  27
ATOM     26  O   UNL     1       2.975   2.421  17.409  0.00  0.00    +0.000 OA
ATOM     27  C   UNL     1       2.074   2.559  18.220  0.00  0.00    +0.000 C 
BRANCH  27  28
ATOM     28  O   UNL     1       1.624   1.532  18.977  0.00  0.00    +0.000 OA
ATOM     29  H   UNL     1       2.327   1.043  19.443  0.00  0.00    +0.000 HD
ENDBRANCH  27  28
ENDBRANCH  25  27
ENDBRANCH  24  25
ENDBRANCH  23  24
ENDBRANCH  22  23
ENDBRANCH  18  22
ENDBRANCH   1  19
BRANCH  11  30
ATOM     30  O   UNL     1       1.989  10.817  17.836  0.00  0.00    +0.000 OA
ATOM     31  H   UNL     1       1.850  10.015  17.320  0.00  0.00    +0.000 HD
ENDBRANCH  11  30
BRANCH  10  32
ATOM     32  C   UNL     1      -0.853  13.128  22.863  0.00  0.00    +0.000 C 
BRANCH  32  33
ATOM     33  C   UNL     1      -2.366  13.139  22.830  0.00  0.00    +0.000 A 
ATOM     34  C   UNL     1      -3.066  12.630  21.730  0.00  0.00    +0.000 A 
ATOM     35  C   UNL     1      -4.441  12.833  21.606  0.00  0.00    +0.000 A 
ATOM     36  C   UNL     1      -5.141  13.496  22.610  0.00  0.00    +0.000 A 
ATOM     37  C   UNL     1      -4.475  13.917  23.758  0.00  0.00    +0.000 A 
ATOM     38  C   UNL     1      -3.096  13.740  23.868  0.00  0.00    +0.000 A 
ENDBRANCH  32  33
ENDBRANCH  10  32
TORSDOF 11
ENDMDL
MODEL 8
REMARK VINA RESULT:      -7.6      3.398      8.974
REMARK  Name = 
REMARK  11 active torsions:
REMARK  status: ('A' for Active; 'I' for Inactive)
REMARK    1  A    between atoms: C_2  and  O_3
REMARK    2  A    between atoms: C_2  and  C_4
REMARK    3  A    between atoms: C_4  and  C_5
REMARK    4  A    between atoms: C_5  and  C_6
REMARK    5  A    between atoms: C_6  and  C_7
REMARK    6  A    between atoms: C_7  and  N_8
REMARK    7  A    between atoms: C_9  and  C_11
REMARK    8  A    between atoms: C_17  and  C_18
REMARK    9  A    between atoms: N_26  and  C_27
REMARK   10  A    between atoms: C_27  and  C_28
REMARK   11  A    between atoms: C_34  and  O_35
REMARK                            x       y       z     vdW  Elec       q    Type
REMARK                         _______ _______ _______ _____ _____    ______ ____
ROOT
ATOM      1  C   UNL     1       0.658  10.103  19.258  0.00  0.00    +0.000 A 
ATOM      2  N   UNL     1       0.341   9.432  20.404  0.00  0.00    +0.000 NA
ATOM      3  C   UNL     1       0.997   8.262  20.625  0.00  0.00    +0.000 A 
ATOM      4  C   UNL     1       1.954   7.694  19.782  0.00  0.00    +0.000 A 
ATOM      5  C   UNL     1       2.296   8.434  18.637  0.00  0.00    +0.000 A 
ATOM      6  C   UNL     1       3.353   7.912  17.769  0.00  0.00    +0.000 A 
ATOM      7  C   UNL     1       3.964   6.751  18.018  0.00  0.00    +0.000 A 
ATOM      8  C   UNL     1       3.552   5.895  19.172  0.00  0.00    +0.000 A 
ATOM      9  O   UNL     1       4.075   4.790  19.328  0.00  0.00    +0.000 OA
ATOM     10  N   UNL     1       2.563   6.411  20.021  0.00  0.00    +0.000 N 
ATOM     11  C   UNL     1       1.634   9.653  18.366  0.00  0.00    +0.000 A 
ENDROOT
BRANCH   7  12
ATOM     12  C   UNL     1       5.058   6.343  17.116  0.00  0.00    +0.000 A 
ATOM     13  C   UNL     1       4.766   5.680  15.918  0.00  0.00    +0.000 A 
ATOM     14  C   UNL     1       5.800   5.197  15.113  0.00  0.00    +0.000 A 
ATOM     15  C   UNL     1       7.127   5.376  15.502  0.00  0.00    +0.000 A 
ATOM     16  C   UNL     1       7.424   6.044  16.689  0.00  0.00    +0.000 A 
ATOM     17  C   UNL     1       6.392   6.523  17.499  0.00  0.00    +0.000 A 
ENDBRANCH   7  12
BRANCH   1  19
ATOM     18  N   UNL     1       0.524  12.548  19.298  0.00  0.00    +0.000 N 
ATOM     19  C   UNL     1      -0.139  11.366  19.009  0.00  0.00    +0.000 C 
ATOM     20  O   UNL     1      -1.290  11.360  18.590  0.00  0.00    +0.000 OA
ATOM     21  H   UNL     1       1.482  12.472  19.628  0.00  0.00    +0.000 HD
BRANCH  18  22
ATOM     22  C   UNL     1      -0.088  13.842  19.079  0.00  0.00    +0.000 C 
BRANCH  22  23
ATOM     23  C   UNL     1      -0.831  14.355  20.311  0.00  0.00    +0.000 C 
BRANCH  23  24
ATOM     24  C   UNL     1       0.000  14.256  21.597  0.00  0.00    +0.000 C 
BRANCH  24  25
ATOM     25  C   UNL     1      -0.810  13.729  22.781  0.00  0.00    +0.000 C 
BRANCH  25  27
ATOM     26  O   UNL     1      -2.232  11.760  22.779  0.00  0.00    +0.000 OA
ATOM     27  C   UNL     1      -1.122  12.253  22.665  0.00  0.00    +0.000 C 
BRANCH  27  28
ATOM     28  O   UNL     1      -0.029  11.508  22.383  0.00  0.00    +0.000 OA
ATOM     29  H   UNL     1      -0.231  10.637  21.992  0.00  0.00    +0.000 HD
ENDBRANCH  27  28
ENDBRANCH  25  27
ENDBRANCH  24  25
ENDBRANCH  23  24
ENDBRANCH  22  23
ENDBRANCH  18  22
ENDBRANCH   1  19
BRANCH  11  30
ATOM     30  O   UNL     1       1.913  10.406  17.257  0.00  0.00    +0.000 OA
ATOM     31  H   UNL     1       2.787  10.810  17.277  0.00  0.00    +0.000 HD
ENDBRANCH  11  30
BRANCH  10  32
ATOM     32  C   UNL     1       2.165   5.560  21.150  0.00  0.00    +0.000 C 
BRANCH  32  33
ATOM     33  C   UNL     1       1.743   4.176  20.706  0.00  0.00    +0.000 A 
ATOM     34  C   UNL     1       2.289   3.032  21.300  0.00  0.00    +0.000 A 
ATOM     35  C   UNL     1       2.062   1.769  20.752  0.00  0.00    +0.000 A 
ATOM     36  C   UNL     1       1.239   1.630  19.637  0.00  0.00    +0.000 A 
ATOM     37  C   UNL     1       0.608   2.748  19.098  0.00  0.00    +0.000 A 
ATOM     38  C   UNL     1       0.857   4.014  19.629  0.00  0.00    +0.000 A 
ENDBRANCH  32  33
ENDBRANCH  10  32
TORSDOF 11
ENDMDL
MODEL 9
REMARK VINA RESULT:      -7.6      4.617      8.381
REMARK  Name = 
REMARK  11 active torsions:
REMARK  status: ('A' for Active; 'I' for Inactive)
REMARK    1  A    between atoms: C_2  and  O_3
REMARK    2  A    between atoms: C_2  and  C_4
REMARK    3  A    between atoms: C_4  and  C_5
REMARK    4  A    between atoms: C_5  and  C_6
REMARK    5  A    between atoms: C_6  and  C_7
REMARK    6  A    between atoms: C_7  and  N_8
REMARK    7  A    between atoms: C_9  and  C_11
REMARK    8  A    between atoms: C_17  and  C_18
REMARK    9  A    between atoms: N_26  and  C_27
REMARK   10  A    between atoms: C_27  and  C_28
REMARK   11  A    between atoms: C_34  and  O_35
REMARK                            x       y       z     vdW  Elec       q    Type
REMARK                         _______ _______ _______ _____ _____    ______ ____
ROOT
ATOM      1  C   UNL     1       1.440   9.628  19.114  0.00  0.00    +0.000 A 
ATOM      2  N   UNL     1       0.732   9.386  20.256  0.00  0.00    +0.000 NA
ATOM      3  C   UNL     1       0.197  10.467  20.881  0.00  0.00    +0.000 A 
ATOM      4  C   UNL     1       0.317  11.793  20.459  0.00  0.00    +0.000 A 
ATOM      5  C   UNL     1       1.007  12.005  19.254  0.00  0.00    +0.000 A 
ATOM      6  C   UNL     1       1.086  13.372  18.735  0.00  0.00    +0.000 A 
ATOM      7  C   UNL     1       0.555  14.408  19.388  0.00  0.00    +0.000 A 
ATOM      8  C   UNL     1      -0.098  14.226  20.721  0.00  0.00    +0.000 A 
ATOM      9  O   UNL     1      -0.503  15.212  21.340  0.00  0.00    +0.000 OA
ATOM     10  N   UNL     1      -0.202  12.914  21.201  0.00  0.00    +0.000 N 
ATOM     11  C   UNL     1       1.584  10.908  18.574  0.00  0.00    +0.000 A 
ENDROOT
BRANCH   7  12
ATOM     12  C   UNL     1       0.635  15.736  18.752  0.00  0.00    +0.000 A 
ATOM     13  C   UNL     1      -0.537  16.412  18.394  0.00  0.00    +0.000 A 
ATOM     14  C   UNL     1      -0.467  17.620  17.697  0.00  0.00    +0.000 A 
ATOM     15  C   UNL     1       0.774  18.155  17.355  0.00  0.00    +0.000 A 
ATOM     16  C   UNL     1       1.946  17.491  17.717  0.00  0.00    +0.000 A 
ATOM     17  C   UNL     1       1.878  16.281  18.410  0.00  0.00    +0.000 A 
ENDBRANCH   7  12
BRANCH   1  19
ATOM     18  N   UNL     1       2.362   7.372  19.355  0.00  0.00    +0.000 N 
ATOM     19  C   UNL     1       2.079   8.411  18.481  0.00  0.00    +0.000 C 
ATOM     20  O   UNL     1       2.341   8.336  17.287  0.00  0.00    +0.000 OA
ATOM     21  H   UNL     1       2.103   7.503  20.328  0.00  0.00    +0.000 HD
BRANCH  18  22
ATOM     22  C   UNL     1       2.940   6.125  18.899  0.00  0.00    +0.000 C 
BRANCH  22  23
ATOM     23  C   UNL     1       1.885   5.138  18.400  0.00  0.00    +0.000 C 
BRANCH  23  24
ATOM     24  C   UNL     1       1.236   4.331  19.533  0.00  0.00    +0.000 C 
BRANCH  24  25
ATOM     25  C   UNL     1       2.072   4.338  20.812  0.00  0.00    +0.000 C 
BRANCH  25  27
ATOM     26  O   UNL     1       3.591   2.452  20.618  0.00  0.00    +0.000 OA
ATOM     27  C   UNL     1       2.626   2.972  21.154  0.00  0.00    +0.000 C 
BRANCH  27  28
ATOM     28  O   UNL     1       1.953   2.371  22.162  0.00  0.00    +0.000 OA
ATOM     29  H   UNL     1       1.429   1.597  21.885  0.00  0.00    +0.000 HD
ENDBRANCH  27  28
ENDBRANCH  25  27
ENDBRANCH  24  25
ENDBRANCH  23  24
ENDBRANCH  22  23
ENDBRANCH  18  22
ENDBRANCH   1  19
BRANCH  11  30
ATOM     30  O   UNL     1       2.284  11.057  17.407  0.00  0.00    +0.000 OA
ATOM     31  H   UNL     1       2.638  10.230  17.063  0.00  0.00    +0.000 HD
ENDBRANCH  11  30
BRANCH  10  32
ATOM     32  C   UNL     1      -0.842  12.748  22.512  0.00  0.00    +0.000 C 
BRANCH  32  33
ATOM     33  C   UNL     1      -2.347  12.896  22.441  0.00  0.00    +0.000 A 
ATOM     34  C   UNL     1      -3.109  13.075  23.601  0.00  0.00    +0.000 A 
ATOM     35  C   UNL     1      -4.501  12.998  23.557  0.00  0.00    +0.000 A 
ATOM     36  C   UNL     1      -5.150  12.799  22.341  0.00  0.00    +0.000 A 
ATOM     37  C   UNL     1      -4.409  12.721  21.165  0.00  0.00    +0.000 A 
ATOM     38  C   UNL     1      -3.016  12.769  21.213  0.00  0.00    +0.000 A 
ENDBRANCH  32  33
ENDBRANCH  10  32
TORSDOF 11
ENDMDL
