MODEL 1
REMARK VINA RESULT:      -7.3      0.000      0.000
REMARK  Name = 
REMARK  7 active torsions:
REMARK  status: ('A' for Active; 'I' for Inactive)
REMARK    1  A    between atoms: C_2  and  C_13
REMARK    2  A    between atoms: N_3  and  C_4
REMARK    3  A    between atoms: C_4  and  C_5
REMARK    4  A    between atoms: C_5  and  C_6
REMARK    5  A    between atoms: C_6  and  O_7
REMARK    6  A    between atoms: O_7  and  C_8
REMARK    7  A    between atoms: C_18  and  C_19
REMARK                            x       y       z     vdW  Elec       q    Type
REMARK                         _______ _______ _______ _____ _____    ______ ____
ROOT
ATOM      1  O   UNL     1       4.467   6.936  16.731  0.00  0.00    +0.000 OA
ATOM      2  C   UNL     1       3.883   6.528  17.734  0.00  0.00    +0.000 C 
ATOM      3  N   UNL     1       4.070   5.272  18.259  0.00  0.00    +0.000 N 
ATOM      4  H   UNL     1       3.465   4.922  18.985  0.00  0.00    +0.000 HD
ENDROOT
BRANCH   2   5
ATOM      5  C   UNL     1       2.887   7.401  18.427  0.00  0.00    +0.000 A 
ATOM      6  C   UNL     1       2.346   8.560  17.710  0.00  0.00    +0.000 A 
ATOM      7  C   UNL     1       1.523   9.446  18.301  0.00  0.00    +0.000 A 
ATOM      8  C   UNL     1       1.158   9.260  19.661  0.00  0.00    +0.000 A 
ATOM      9  N   UNL     1       0.409   9.983  20.464  0.00  0.00    +0.000 NA
ATOM     10  C   UNL     1       0.436   9.342  21.695  0.00  0.00    +0.000 A 
ATOM     11  C   UNL     1       1.208   8.192  21.603  0.00  0.00    +0.000 A 
ATOM     12  N   UNL     1       1.675   8.150  20.314  0.00  0.00    +0.000 N 
ATOM     13  C   UNL     1       2.530   7.228  19.716  0.00  0.00    +0.000 A 
BRANCH  10  14
ATOM     14  C   UNL     1      -0.279   9.889  22.895  0.00  0.00    +0.000 C 
ATOM     15  F   UNL     1      -1.554   9.439  23.010  0.00  0.00    +0.000 F 
ATOM     16  F   UNL     1       0.361   9.564  24.050  0.00  0.00    +0.000 F 
ATOM     17  F   UNL     1      -0.344  11.248  22.859  0.00  0.00    +0.000 F 
ENDBRANCH  10  14
ENDBRANCH   2   5
BRANCH   3  18
ATOM     18  C   UNL     1       4.949   4.332  17.593  0.00  0.00    +0.000 C 
BRANCH  18  19
ATOM     19  C   UNL     1       4.218   3.439  16.593  0.00  0.00    +0.000 C 
BRANCH  19  20
ATOM     20  C   UNL     1       2.888   2.972  17.188  0.00  0.00    +0.000 C 
BRANCH  20  21
ATOM     21  O   UNL     1       3.140   2.103  18.291  0.00  0.00    +0.000 OA
BRANCH  21  22
ATOM     22  C   UNL     1       2.292   2.309  19.407  0.00  0.00    +0.000 C 
ATOM     23  C   UNL     1       3.012   2.805  20.660  0.00  0.00    +0.000 C 
ATOM     24  C   UNL     1       1.900   3.430  21.488  0.00  0.00    +0.000 C 
ATOM     25  C   UNL     1       0.888   3.973  20.479  0.00  0.00    +0.000 C 
ATOM     26  C   UNL     1       1.331   3.460  19.113  0.00  0.00    +0.000 C 
ENDBRANCH  21  22
ENDBRANCH  20  21
ENDBRANCH  19  20
ENDBRANCH  18  19
ENDBRANCH   3  18
TORSDOF 7
ENDMDL
MODEL 2
REMARK VINA RESULT:      -7.2      5.777      8.589
REMARK  Name = 
REMARK  7 active torsions:
REMARK  status: ('A' for Active; 'I' for Inactive)
REMARK    1  A    between atoms: C_2  and  C_13
REMARK    2  A    between atoms: N_3  and  C_4
REMARK    3  A    between atoms: C_4  and  C_5
REMARK    4  A    between atoms: C_5  and  C_6
REMARK    5  A    between atoms: C_6  and  O_7
REMARK    6  A    between atoms: O_7  and  C_8
REMARK    7  A    between atoms: C_18  and  C_19
REMARK                            x       y       z     vdW  Elec       q    Type
REMARK                         _______ _______ _______ _____ _____    ______ ____
ROOT
ATOM      1  O   UNL     1       7.708   6.270  16.004  0.00  0.00    +0.000 OA
ATOM      2  C   UNL     1       7.010   6.434  17.004  0.00  0.00    +0.000 C 
ATOM      3  N   UNL     1       7.235   7.427  17.927  0.00  0.00    +0.000 N 
ATOM      4  H   UNL     1       6.740   7.435  18.806  0.00  0.00    +0.000 HD
ENDROOT
BRANCH   2   5
ATOM      5  C   UNL     1       5.870   5.508  17.282  0.00  0.00    +0.000 A 
ATOM      6  C   UNL     1       5.424   4.601  16.219  0.00  0.00    +0.000 A 
ATOM      7  C   UNL     1       4.344   3.810  16.361  0.00  0.00    +0.000 A 
ATOM      8  C   UNL     1       3.607   3.845  17.574  0.00  0.00    +0.000 A 
ATOM      9  N   UNL     1       2.519   3.210  17.947  0.00  0.00    +0.000 NA
ATOM     10  C   UNL     1       2.224   3.666  19.224  0.00  0.00    +0.000 A 
ATOM     11  C   UNL     1       3.187   4.584  19.622  0.00  0.00    +0.000 A 
ATOM     12  N   UNL     1       4.056   4.705  18.568  0.00  0.00    +0.000 N 
ATOM     13  C   UNL     1       5.170   5.530  18.434  0.00  0.00    +0.000 A 
BRANCH  10  14
ATOM     14  C   UNL     1       1.018   3.196  19.981  0.00  0.00    +0.000 C 
ATOM     15  F   UNL     1       0.262   4.211  20.470  0.00  0.00    +0.000 F 
ATOM     16  F   UNL     1       0.202   2.436  19.201  0.00  0.00    +0.000 F 
ATOM     17  F   UNL     1       1.368   2.420  21.043  0.00  0.00    +0.000 F 
ENDBRANCH  10  14
ENDBRANCH   2   5
BRANCH   3  18
ATOM     18  C   UNL     1       8.375   8.308  17.780  0.00  0.00    +0.000 C 
BRANCH  18  19
ATOM     19  C   UNL     1       8.029   9.775  18.031  0.00  0.00    +0.000 C 
BRANCH  19  20
ATOM     20  C   UNL     1       9.226  10.492  18.659  0.00  0.00    +0.000 C 
BRANCH  20  21
ATOM     21  O   UNL     1       9.000  11.900  18.639  0.00  0.00    +0.000 OA
BRANCH  21  22
ATOM     22  C   UNL     1       9.749  12.602  17.663  0.00  0.00    +0.000 C 
ATOM     23  C   UNL     1       9.953  14.084  17.973  0.00  0.00    +0.000 C 
ATOM     24  C   UNL     1      11.158  14.464  17.127  0.00  0.00    +0.000 C 
ATOM     25  C   UNL     1      12.016  13.202  17.038  0.00  0.00    +0.000 C 
ATOM     26  C   UNL     1      11.185  12.078  17.647  0.00  0.00    +0.000 C 
ENDBRANCH  21  22
ENDBRANCH  20  21
ENDBRANCH  19  20
ENDBRANCH  18  19
ENDBRANCH   3  18
TORSDOF 7
ENDMDL
MODEL 3
REMARK VINA RESULT:      -7.2      1.037      1.395
REMARK  Name = 
REMARK  7 active torsions:
REMARK  status: ('A' for Active; 'I' for Inactive)
REMARK    1  A    between atoms: C_2  and  C_13
REMARK    2  A    between atoms: N_3  and  C_4
REMARK    3  A    between atoms: C_4  and  C_5
REMARK    4  A    between atoms: C_5  and  C_6
REMARK    5  A    between atoms: C_6  and  O_7
REMARK    6  A    between atoms: O_7  and  C_8
REMARK    7  A    between atoms: C_18  and  C_19
REMARK                            x       y       z     vdW  Elec       q    Type
REMARK                         _______ _______ _______ _____ _____    ______ ____
ROOT
ATOM      1  O   UNL     1       4.450   5.683  19.571  0.00  0.00    +0.000 OA
ATOM      2  C   UNL     1       3.730   6.075  18.653  0.00  0.00    +0.000 C 
ATOM      3  N   UNL     1       3.782   5.562  17.380  0.00  0.00    +0.000 N 
ATOM      4  H   UNL     1       3.289   6.010  16.623  0.00  0.00    +0.000 HD
ENDROOT
BRANCH   2   5
ATOM      5  C   UNL     1       2.760   7.189  18.886  0.00  0.00    +0.000 A 
ATOM      6  C   UNL     1       2.527   8.157  17.810  0.00  0.00    +0.000 A 
ATOM      7  C   UNL     1       1.745   9.239  17.980  0.00  0.00    +0.000 A 
ATOM      8  C   UNL     1       1.119   9.459  19.235  0.00  0.00    +0.000 A 
ATOM      9  N   UNL     1       0.349  10.435  19.662  0.00  0.00    +0.000 NA
ATOM     10  C   UNL     1       0.064  10.149  20.990  0.00  0.00    +0.000 A 
ATOM     11  C   UNL     1       0.669   8.951  21.346  0.00  0.00    +0.000 A 
ATOM     12  N   UNL     1       1.349   8.522  20.234  0.00  0.00    +0.000 N 
ATOM     13  C   UNL     1       2.157   7.400  20.073  0.00  0.00    +0.000 A 
BRANCH  10  14
ATOM     14  C   UNL     1      -0.769  11.060  21.841  0.00  0.00    +0.000 C 
ATOM     15  F   UNL     1      -0.083  12.134  22.307  0.00  0.00    +0.000 F 
ATOM     16  F   UNL     1      -1.842  11.542  21.157  0.00  0.00    +0.000 F 
ATOM     17  F   UNL     1      -1.266  10.409  22.928  0.00  0.00    +0.000 F 
ENDBRANCH  10  14
ENDBRANCH   2   5
BRANCH   3  18
ATOM     18  C   UNL     1       4.759   4.544  17.048  0.00  0.00    +0.000 C 
BRANCH  18  19
ATOM     19  C   UNL     1       4.122   3.211  16.661  0.00  0.00    +0.000 C 
BRANCH  19  20
ATOM     20  C   UNL     1       2.709   3.121  17.240  0.00  0.00    +0.000 C 
BRANCH  20  21
ATOM     21  O   UNL     1       2.623   1.993  18.109  0.00  0.00    +0.000 OA
BRANCH  21  22
ATOM     22  C   UNL     1       2.030   2.263  19.367  0.00  0.00    +0.000 C 
ATOM     23  C   UNL     1       3.026   2.637  20.463  0.00  0.00    +0.000 C 
ATOM     24  C   UNL     1       2.171   3.362  21.491  0.00  0.00    +0.000 C 
ATOM     25  C   UNL     1       1.059   4.046  20.696  0.00  0.00    +0.000 C 
ATOM     26  C   UNL     1       1.174   3.525  19.268  0.00  0.00    +0.000 C 
ENDBRANCH  21  22
ENDBRANCH  20  21
ENDBRANCH  19  20
ENDBRANCH  18  19
ENDBRANCH   3  18
TORSDOF 7
ENDMDL
MODEL 4
REMARK VINA RESULT:      -7.0      5.912      8.597
REMARK  Name = 
REMARK  7 active torsions:
REMARK  status: ('A' for Active; 'I' for Inactive)
REMARK    1  A    between atoms: C_2  and  C_13
REMARK    2  A    between atoms: N_3  and  C_4
REMARK    3  A    between atoms: C_4  and  C_5
REMARK    4  A    between atoms: C_5  and  C_6
REMARK    5  A    between atoms: C_6  and  O_7
REMARK    6  A    between atoms: O_7  and  C_8
REMARK    7  A    between atoms: C_18  and  C_19
REMARK                            x       y       z     vdW  Elec       q    Type
REMARK                         _______ _______ _______ _____ _____    ______ ____
ROOT
ATOM      1  O   UNL     1       7.718   6.594  16.233  0.00  0.00    +0.000 OA
ATOM      2  C   UNL     1       7.131   6.530  17.313  0.00  0.00    +0.000 C 
ATOM      3  N   UNL     1       7.449   7.317  18.393  0.00  0.00    +0.000 N 
ATOM      4  H   UNL     1       7.052   7.131  19.301  0.00  0.00    +0.000 HD
ENDROOT
BRANCH   2   5
ATOM      5  C   UNL     1       6.032   5.537  17.510  0.00  0.00    +0.000 A 
ATOM      6  C   UNL     1       5.766   4.560  16.449  0.00  0.00    +0.000 A 
ATOM      7  C   UNL     1       4.732   3.700  16.512  0.00  0.00    +0.000 A 
ATOM      8  C   UNL     1       3.867   3.729  17.637  0.00  0.00    +0.000 A 
ATOM      9  N   UNL     1       2.789   3.033  17.920  0.00  0.00    +0.000 NA
ATOM     10  C   UNL     1       2.327   3.516  19.137  0.00  0.00    +0.000 A 
ATOM     11  C   UNL     1       3.177   4.514  19.592  0.00  0.00    +0.000 A 
ATOM     12  N   UNL     1       4.146   4.657  18.632  0.00  0.00    +0.000 N 
ATOM     13  C   UNL     1       5.210   5.553  18.579  0.00  0.00    +0.000 A 
BRANCH  10  14
ATOM     14  C   UNL     1       1.079   2.990  19.782  0.00  0.00    +0.000 C 
ATOM     15  F   UNL     1       1.325   2.099  20.776  0.00  0.00    +0.000 F 
ATOM     16  F   UNL     1       0.336   3.992  20.325  0.00  0.00    +0.000 F 
ATOM     17  F   UNL     1       0.278   2.361  18.880  0.00  0.00    +0.000 F 
ENDBRANCH  10  14
ENDBRANCH   2   5
BRANCH   3  18
ATOM     18  C   UNL     1       8.563   8.241  18.313  0.00  0.00    +0.000 C 
BRANCH  18  19
ATOM     19  C   UNL     1       8.125   9.681  18.055  0.00  0.00    +0.000 C 
BRANCH  19  20
ATOM     20  C   UNL     1       9.184  10.650  18.584  0.00  0.00    +0.000 C 
BRANCH  20  21
ATOM     21  O   UNL     1      10.157  10.890  17.569  0.00  0.00    +0.000 OA
BRANCH  21  22
ATOM     22  C   UNL     1      11.065  11.937  17.861  0.00  0.00    +0.000 C 
ATOM     23  C   UNL     1      10.400  13.269  18.200  0.00  0.00    +0.000 C 
ATOM     24  C   UNL     1      11.481  14.027  18.955  0.00  0.00    +0.000 C 
ATOM     25  C   UNL     1      12.305  12.962  19.678  0.00  0.00    +0.000 C 
ATOM     26  C   UNL     1      11.817  11.617  19.152  0.00  0.00    +0.000 C 
ENDBRANCH  21  22
ENDBRANCH  20  21
ENDBRANCH  19  20
ENDBRANCH  18  19
ENDBRANCH   3  18
TORSDOF 7
ENDMDL
MODEL 5
REMARK VINA RESULT:      -7.0      6.112      8.587
REMARK  Name = 
REMARK  7 active torsions:
REMARK  status: ('A' for Active; 'I' for Inactive)
REMARK    1  A    between atoms: C_2  and  C_13
REMARK    2  A    between atoms: N_3  and  C_4
REMARK    3  A    between atoms: C_4  and  C_5
REMARK    4  A    between atoms: C_5  and  C_6
REMARK    5  A    between atoms: C_6  and  O_7
REMARK    6  A    between atoms: O_7  and  C_8
REMARK    7  A    between atoms: C_18  and  C_19
REMARK                            x       y       z     vdW  Elec       q    Type
REMARK                         _______ _______ _______ _____ _____    ______ ____
ROOT
ATOM      1  O   UNL     1       7.489   6.335  16.443  0.00  0.00    +0.000 OA
ATOM      2  C   UNL     1       6.692   6.950  17.150  0.00  0.00    +0.000 C 
ATOM      3  N   UNL     1       6.975   8.165  17.727  0.00  0.00    +0.000 N 
ATOM      4  H   UNL     1       6.358   8.562  18.419  0.00  0.00    +0.000 HD
ENDROOT
BRANCH   2   5
ATOM      5  C   UNL     1       5.349   6.365  17.446  0.00  0.00    +0.000 A 
ATOM      6  C   UNL     1       4.181   7.253  17.460  0.00  0.00    +0.000 A 
ATOM      7  C   UNL     1       2.957   6.818  17.815  0.00  0.00    +0.000 A 
ATOM      8  C   UNL     1       2.779   5.459  18.186  0.00  0.00    +0.000 A 
ATOM      9  N   UNL     1       1.716   4.804  18.596  0.00  0.00    +0.000 NA
ATOM     10  C   UNL     1       2.139   3.508  18.857  0.00  0.00    +0.000 A 
ATOM     11  C   UNL     1       3.492   3.394  18.568  0.00  0.00    +0.000 A 
ATOM     12  N   UNL     1       3.899   4.638  18.155  0.00  0.00    +0.000 N 
ATOM     13  C   UNL     1       5.170   5.075  17.793  0.00  0.00    +0.000 A 
BRANCH  10  14
ATOM     14  C   UNL     1       1.209   2.456  19.384  0.00  0.00    +0.000 C 
ATOM     15  F   UNL     1       0.688   2.762  20.600  0.00  0.00    +0.000 F 
ATOM     16  F   UNL     1       0.159   2.250  18.545  0.00  0.00    +0.000 F 
ATOM     17  F   UNL     1       1.837   1.257  19.517  0.00  0.00    +0.000 F 
ENDBRANCH  10  14
ENDBRANCH   2   5
BRANCH   3  18
ATOM     18  C   UNL     1       8.287   8.756  17.565  0.00  0.00    +0.000 C 
BRANCH  18  19
ATOM     19  C   UNL     1       8.894   9.229  18.884  0.00  0.00    +0.000 C 
BRANCH  19  20
ATOM     20  C   UNL     1       9.132  10.740  18.835  0.00  0.00    +0.000 C 
BRANCH  20  21
ATOM     21  O   UNL     1       9.955  11.055  17.713  0.00  0.00    +0.000 OA
BRANCH  21  22
ATOM     22  C   UNL     1      11.148  11.747  18.035  0.00  0.00    +0.000 C 
ATOM     23  C   UNL     1      11.335  13.063  17.284  0.00  0.00    +0.000 C 
ATOM     24  C   UNL     1      12.333  13.826  18.140  0.00  0.00    +0.000 C 
ATOM     25  C   UNL     1      12.075  13.375  19.578  0.00  0.00    +0.000 C 
ATOM     26  C   UNL     1      11.092  12.213  19.489  0.00  0.00    +0.000 C 
ENDBRANCH  21  22
ENDBRANCH  20  21
ENDBRANCH  19  20
ENDBRANCH  18  19
ENDBRANCH   3  18
TORSDOF 7
ENDMDL
MODEL 6
REMARK VINA RESULT:      -6.9      0.637      1.030
REMARK  Name = 
REMARK  7 active torsions:
REMARK  status: ('A' for Active; 'I' for Inactive)
REMARK    1  A    between atoms: C_2  and  C_13
REMARK    2  A    between atoms: N_3  and  C_4
REMARK    3  A    between atoms: C_4  and  C_5
REMARK    4  A    between atoms: C_5  and  C_6
REMARK    5  A    between atoms: C_6  and  O_7
REMARK    6  A    between atoms: O_7  and  C_8
REMARK    7  A    between atoms: C_18  and  C_19
REMARK                            x       y       z     vdW  Elec       q    Type
REMARK                         _______ _______ _______ _____ _____    ______ ____
ROOT
ATOM      1  O   UNL     1       4.592   7.020  16.293  0.00  0.00    +0.000 OA
ATOM      2  C   UNL     1       4.143   6.616  17.365  0.00  0.00    +0.000 C 
ATOM      3  N   UNL     1       4.528   5.433  17.948  0.00  0.00    +0.000 N 
ATOM      4  H   UNL     1       4.029   5.065  18.743  0.00  0.00    +0.000 HD
ENDROOT
BRANCH   2   5
ATOM      5  C   UNL     1       3.100   7.409  18.086  0.00  0.00    +0.000 A 
ATOM      6  C   UNL     1       2.539   8.595  17.431  0.00  0.00    +0.000 A 
ATOM      7  C   UNL     1       1.671   9.412  18.055  0.00  0.00    +0.000 A 
ATOM      8  C   UNL     1       1.277   9.125  19.389  0.00  0.00    +0.000 A 
ATOM      9  N   UNL     1       0.483   9.768  20.216  0.00  0.00    +0.000 NA
ATOM     10  C   UNL     1       0.499   9.048  21.403  0.00  0.00    +0.000 A 
ATOM     11  C   UNL     1       1.312   7.932  21.257  0.00  0.00    +0.000 A 
ATOM     12  N   UNL     1       1.814   7.991  19.982  0.00  0.00    +0.000 N 
ATOM     13  C   UNL     1       2.715   7.139  19.349  0.00  0.00    +0.000 A 
BRANCH  10  14
ATOM     14  C   UNL     1      -0.265   9.490  22.615  0.00  0.00    +0.000 C 
ATOM     15  F   UNL     1       0.514   9.636  23.717  0.00  0.00    +0.000 F 
ATOM     16  F   UNL     1      -0.884  10.684  22.408  0.00  0.00    +0.000 F 
ATOM     17  F   UNL     1      -1.243   8.601  22.939  0.00  0.00    +0.000 F 
ENDBRANCH  10  14
ENDBRANCH   2   5
BRANCH   3  18
ATOM     18  C   UNL     1       5.465   4.562  17.269  0.00  0.00    +0.000 C 
BRANCH  18  19
ATOM     19  C   UNL     1       4.779   3.467  16.455  0.00  0.00    +0.000 C 
BRANCH  19  20
ATOM     20  C   UNL     1       3.983   2.549  17.384  0.00  0.00    +0.000 C 
BRANCH  20  21
ATOM     21  O   UNL     1       2.763   3.190  17.755  0.00  0.00    +0.000 OA
BRANCH  21  22
ATOM     22  C   UNL     1       2.245   2.785  19.009  0.00  0.00    +0.000 C 
ATOM     23  C   UNL     1       3.282   2.728  20.129  0.00  0.00    +0.000 C 
ATOM     24  C   UNL     1       2.444   2.799  21.396  0.00  0.00    +0.000 C 
ATOM     25  C   UNL     1       1.218   3.638  21.036  0.00  0.00    +0.000 C 
ATOM     26  C   UNL     1       1.273   3.845  19.527  0.00  0.00    +0.000 C 
ENDBRANCH  21  22
ENDBRANCH  20  21
ENDBRANCH  19  20
ENDBRANCH  18  19
ENDBRANCH   3  18
TORSDOF 7
ENDMDL
MODEL 7
REMARK VINA RESULT:      -6.8      5.655      8.220
REMARK  Name = 
REMARK  7 active torsions:
REMARK  status: ('A' for Active; 'I' for Inactive)
REMARK    1  A    between atoms: C_2  and  C_13
REMARK    2  A    between atoms: N_3  and  C_4
REMARK    3  A    between atoms: C_4  and  C_5
REMARK    4  A    between atoms: C_5  and  C_6
REMARK    5  A    between atoms: C_6  and  O_7
REMARK    6  A    between atoms: O_7  and  C_8
REMARK    7  A    between atoms: C_18  and  C_19
REMARK                            x       y       z     vdW  Elec       q    Type
REMARK                         _______ _______ _______ _____ _____    ______ ____
ROOT
ATOM      1  O   UNL     1       3.132   1.962  17.833  0.00  0.00    +0.000 OA
ATOM      2  C   UNL     1       3.819   2.855  18.328  0.00  0.00    +0.000 C 
ATOM      3  N   UNL     1       3.646   3.317  19.611  0.00  0.00    +0.000 N 
ATOM      4  H   UNL     1       4.122   4.148  19.927  0.00  0.00    +0.000 HD
ENDROOT
BRANCH   2   5
ATOM      5  C   UNL     1       4.883   3.519  17.515  0.00  0.00    +0.000 A 
ATOM      6  C   UNL     1       5.724   4.538  18.152  0.00  0.00    +0.000 A 
ATOM      7  C   UNL     1       6.634   5.247  17.459  0.00  0.00    +0.000 A 
ATOM      8  C   UNL     1       6.797   5.008  16.069  0.00  0.00    +0.000 A 
ATOM      9  N   UNL     1       7.577   5.575  15.177  0.00  0.00    +0.000 NA
ATOM     10  C   UNL     1       7.282   4.966  13.965  0.00  0.00    +0.000 A 
ATOM     11  C   UNL     1       6.312   3.993  14.159  0.00  0.00    +0.000 A 
ATOM     12  N   UNL     1       5.996   4.031  15.493  0.00  0.00    +0.000 N 
ATOM     13  C   UNL     1       5.049   3.292  16.196  0.00  0.00    +0.000 A 
BRANCH  10  14
ATOM     14  C   UNL     1       7.950   5.373  12.685  0.00  0.00    +0.000 C 
ATOM     15  F   UNL     1       7.473   6.538  12.178  0.00  0.00    +0.000 F 
ATOM     16  F   UNL     1       9.291   5.532  12.848  0.00  0.00    +0.000 F 
ATOM     17  F   UNL     1       7.789   4.429  11.718  0.00  0.00    +0.000 F 
ENDBRANCH  10  14
ENDBRANCH   2   5
BRANCH   3  18
ATOM     18  C   UNL     1       2.577   2.791  20.433  0.00  0.00    +0.000 C 
BRANCH  18  19
ATOM     19  C   UNL     1       1.819   3.878  21.192  0.00  0.00    +0.000 C 
BRANCH  19  20
ATOM     20  C   UNL     1       1.319   4.944  20.215  0.00  0.00    +0.000 C 
BRANCH  20  21
ATOM     21  O   UNL     1       1.670   6.238  20.704  0.00  0.00    +0.000 OA
BRANCH  21  22
ATOM     22  C   UNL     1       2.422   7.024  19.798  0.00  0.00    +0.000 C 
ATOM     23  C   UNL     1       2.594   6.399  18.415  0.00  0.00    +0.000 C 
ATOM     24  C   UNL     1       2.936   7.585  17.526  0.00  0.00    +0.000 C 
ATOM     25  C   UNL     1       2.213   8.784  18.140  0.00  0.00    +0.000 C 
ATOM     26  C   UNL     1       1.657   8.307  19.477  0.00  0.00    +0.000 C 
ENDBRANCH  21  22
ENDBRANCH  20  21
ENDBRANCH  19  20
ENDBRANCH  18  19
ENDBRANCH   3  18
TORSDOF 7
ENDMDL
MODEL 8
REMARK VINA RESULT:      -6.8      5.907      8.162
REMARK  Name = 
REMARK  7 active torsions:
REMARK  status: ('A' for Active; 'I' for Inactive)
REMARK    1  A    between atoms: C_2  and  C_13
REMARK    2  A    between atoms: N_3  and  C_4
REMARK    3  A    between atoms: C_4  and  C_5
REMARK    4  A    between atoms: C_5  and  C_6
REMARK    5  A    between atoms: C_6  and  O_7
REMARK    6  A    between atoms: O_7  and  C_8
REMARK    7  A    between atoms: C_18  and  C_19
REMARK                            x       y       z     vdW  Elec       q    Type
REMARK                         _______ _______ _______ _____ _____    ______ ____
ROOT
ATOM      1  O   UNL     1       5.239   5.009  20.020  0.00  0.00    +0.000 OA
ATOM      2  C   UNL     1       5.139   4.171  19.124  0.00  0.00    +0.000 C 
ATOM      3  N   UNL     1       4.456   2.987  19.271  0.00  0.00    +0.000 N 
ATOM      4  H   UNL     1       4.525   2.263  18.572  0.00  0.00    +0.000 HD
ENDROOT
BRANCH   2   5
ATOM      5  C   UNL     1       5.807   4.399  17.807  0.00  0.00    +0.000 A 
ATOM      6  C   UNL     1       6.745   5.519  17.677  0.00  0.00    +0.000 A 
ATOM      7  C   UNL     1       7.309   5.847  16.500  0.00  0.00    +0.000 A 
ATOM      8  C   UNL     1       6.995   5.089  15.341  0.00  0.00    +0.000 A 
ATOM      9  N   UNL     1       7.378   5.219  14.090  0.00  0.00    +0.000 NA
ATOM     10  C   UNL     1       6.722   4.221  13.381  0.00  0.00    +0.000 A 
ATOM     11  C   UNL     1       5.948   3.467  14.251  0.00  0.00    +0.000 A 
ATOM     12  N   UNL     1       6.113   4.028  15.492  0.00  0.00    +0.000 N 
ATOM     13  C   UNL     1       5.521   3.680  16.703  0.00  0.00    +0.000 A 
BRANCH  10  14
ATOM     14  C   UNL     1       6.875   4.064  11.898  0.00  0.00    +0.000 C 
ATOM     15  F   UNL     1       7.497   5.118  11.309  0.00  0.00    +0.000 F 
ATOM     16  F   UNL     1       7.596   2.954  11.583  0.00  0.00    +0.000 F 
ATOM     17  F   UNL     1       5.669   3.927  11.284  0.00  0.00    +0.000 F 
ENDBRANCH  10  14
ENDBRANCH   2   5
BRANCH   3  18
ATOM     18  C   UNL     1       3.858   2.649  20.545  0.00  0.00    +0.000 C 
BRANCH  18  19
ATOM     19  C   UNL     1       2.449   2.077  20.409  0.00  0.00    +0.000 C 
BRANCH  19  20
ATOM     20  C   UNL     1       1.428   3.215  20.359  0.00  0.00    +0.000 C 
BRANCH  20  21
ATOM     21  O   UNL     1       1.378   3.751  19.038  0.00  0.00    +0.000 OA
BRANCH  21  22
ATOM     22  C   UNL     1       1.387   5.166  18.977  0.00  0.00    +0.000 C 
ATOM     23  C   UNL     1       1.965   5.845  20.217  0.00  0.00    +0.000 C 
ATOM     24  C   UNL     1       2.345   7.231  19.721  0.00  0.00    +0.000 C 
ATOM     25  C   UNL     1       2.726   7.055  18.251  0.00  0.00    +0.000 C 
ATOM     26  C   UNL     1       2.349   5.625  17.882  0.00  0.00    +0.000 C 
ENDBRANCH  21  22
ENDBRANCH  20  21
ENDBRANCH  19  20
ENDBRANCH  18  19
ENDBRANCH   3  18
TORSDOF 7
ENDMDL
MODEL 9
REMARK VINA RESULT:      -6.8      5.936      8.252
REMARK  Name = 
REMARK  7 active torsions:
REMARK  status: ('A' for Active; 'I' for Inactive)
REMARK    1  A    between atoms: C_2  and  C_13
REMARK    2  A    between atoms: N_3  and  C_4
REMARK    3  A    between atoms: C_4  and  C_5
REMARK    4  A    between atoms: C_5  and  C_6
REMARK    5  A    between atoms: C_6  and  O_7
REMARK    6  A    between atoms: O_7  and  C_8
REMARK    7  A    between atoms: C_18  and  C_19
REMARK                            x       y       z     vdW  Elec       q    Type
REMARK                         _______ _______ _______ _____ _____    ______ ____
ROOT
ATOM      1  O   UNL     1       5.166   4.961  19.969  0.00  0.00    +0.000 OA
ATOM      2  C   UNL     1       5.129   4.103  19.088  0.00  0.00    +0.000 C 
ATOM      3  N   UNL     1       4.517   2.883  19.247  0.00  0.00    +0.000 N 
ATOM      4  H   UNL     1       4.640   2.153  18.563  0.00  0.00    +0.000 HD
ENDROOT
BRANCH   2   5
ATOM      5  C   UNL     1       5.802   4.349  17.776  0.00  0.00    +0.000 A 
ATOM      6  C   UNL     1       6.737   5.472  17.662  0.00  0.00    +0.000 A 
ATOM      7  C   UNL     1       7.304   5.814  16.491  0.00  0.00    +0.000 A 
ATOM      8  C   UNL     1       6.996   5.070  15.322  0.00  0.00    +0.000 A 
ATOM      9  N   UNL     1       7.382   5.215  14.074  0.00  0.00    +0.000 NA
ATOM     10  C   UNL     1       6.732   4.224  13.352  0.00  0.00    +0.000 A 
ATOM     11  C   UNL     1       5.956   3.458  14.210  0.00  0.00    +0.000 A 
ATOM     12  N   UNL     1       6.115   4.005  15.458  0.00  0.00    +0.000 N 
ATOM     13  C   UNL     1       5.520   3.641  16.663  0.00  0.00    +0.000 A 
BRANCH  10  14
ATOM     14  C   UNL     1       6.890   4.085  11.867  0.00  0.00    +0.000 C 
ATOM     15  F   UNL     1       7.586   2.978  11.503  0.00  0.00    +0.000 F 
ATOM     16  F   UNL     1       5.686   4.018  11.238  0.00  0.00    +0.000 F 
ATOM     17  F   UNL     1       7.544   5.153  11.333  0.00  0.00    +0.000 F 
ENDBRANCH  10  14
ENDBRANCH   2   5
BRANCH   3  18
ATOM     18  C   UNL     1       3.922   2.531  20.520  0.00  0.00    +0.000 C 
BRANCH  18  19
ATOM     19  C   UNL     1       2.397   2.465  20.467  0.00  0.00    +0.000 C 
BRANCH  19  20
ATOM     20  C   UNL     1       1.798   3.502  21.419  0.00  0.00    +0.000 C 
BRANCH  20  21
ATOM     21  O   UNL     1       1.137   4.516  20.662  0.00  0.00    +0.000 OA
BRANCH  21  22
ATOM     22  C   UNL     1       2.003   5.483  20.094  0.00  0.00    +0.000 C 
ATOM     23  C   UNL     1       1.927   5.577  18.571  0.00  0.00    +0.000 C 
ATOM     24  C   UNL     1       2.495   6.955  18.269  0.00  0.00    +0.000 C 
ATOM     25  C   UNL     1       2.132   7.825  19.473  0.00  0.00    +0.000 C 
ATOM     26  C   UNL     1       1.560   6.881  20.524  0.00  0.00    +0.000 C 
ENDBRANCH  21  22
ENDBRANCH  20  21
ENDBRANCH  19  20
ENDBRANCH  18  19
ENDBRANCH   3  18
TORSDOF 7
ENDMDL
