MODEL 1
REMARK VINA RESULT:      -7.1      0.000      0.000
REMARK  Name = 
REMARK  4 active torsions:
REMARK  status: ('A' for Active; 'I' for Inactive)
REMARK    1  A    between atoms: C_2  and  C_12
REMARK    2  A    between atoms: N_7  and  C_8
REMARK    3  A    between atoms: C_8  and  C_9
REMARK    4  A    between atoms: C_16  and  C_17
REMARK                            x       y       z     vdW  Elec       q    Type
REMARK                         _______ _______ _______ _____ _____    ______ ____
ROOT
ATOM      1  O   UNL     1       2.336   6.890  18.344  0.00  0.00    +0.000 OA
ATOM      2  C   UNL     1       2.471   6.425  19.470  0.00  0.00    +0.000 C 
ATOM      3  N   UNL     1       2.142   7.045  20.655  0.00  0.00    +0.000 N 
ATOM      4  C   UNL     1       1.503   8.267  20.728  0.00  0.00    +0.000 A 
ATOM      5  C   UNL     1       1.142   8.915  21.936  0.00  0.00    +0.000 A 
ATOM      6  C   UNL     1       0.523  10.084  21.553  0.00  0.00    +0.000 A 
ATOM      7  N   UNL     1       0.527  10.071  20.191  0.00  0.00    +0.000 N 
ATOM      8  N   UNL     1       1.131   8.994  19.675  0.00  0.00    +0.000 NA
ATOM      9  H   UNL     1       2.329   6.596  21.537  0.00  0.00    +0.000 HD
ENDROOT
BRANCH   2  10
ATOM     10  C   UNL     1       3.121   5.107  19.599  0.00  0.00    +0.000 A 
ATOM     11  C   UNL     1       4.503   4.927  19.217  0.00  0.00    +0.000 A 
ATOM     12  C   UNL     1       4.940   3.632  19.333  0.00  0.00    +0.000 A 
ATOM     13  S   UNL     1       3.715   2.609  19.915  0.00  0.00    +0.000 S 
ATOM     14  C   UNL     1       2.557   3.891  19.969  0.00  0.00    +0.000 A 
BRANCH  14  15
ATOM     15  C   UNL     1       1.159   3.514  20.345  0.00  0.00    +0.000 C 
ATOM     16  F   UNL     1       0.519   2.814  19.376  0.00  0.00    +0.000 F 
ATOM     17  F   UNL     1       1.106   2.758  21.470  0.00  0.00    +0.000 F 
ATOM     18  F   UNL     1       0.390   4.615  20.568  0.00  0.00    +0.000 F 
ENDBRANCH  14  15
ENDBRANCH   2  10
BRANCH   7  19
ATOM     19  C   UNL     1      -0.025  11.066  19.296  0.00  0.00    +0.000 C 
BRANCH  19  20
ATOM     20  C   UNL     1      -1.281  10.564  18.619  0.00  0.00    +0.000 C 
ATOM     21  F   UNL     1      -0.952   9.966  17.440  0.00  0.00    +0.000 F 
ENDBRANCH  19  20
ENDBRANCH   7  19
TORSDOF 4
ENDMDL
MODEL 2
REMARK VINA RESULT:      -7.0      0.561      1.060
REMARK  Name = 
REMARK  4 active torsions:
REMARK  status: ('A' for Active; 'I' for Inactive)
REMARK    1  A    between atoms: C_2  and  C_12
REMARK    2  A    between atoms: N_7  and  C_8
REMARK    3  A    between atoms: C_8  and  C_9
REMARK    4  A    between atoms: C_16  and  C_17
REMARK                            x       y       z     vdW  Elec       q    Type
REMARK                         _______ _______ _______ _____ _____    ______ ____
ROOT
ATOM      1  O   UNL     1       2.323   7.149  18.276  0.00  0.00    +0.000 OA
ATOM      2  C   UNL     1       2.521   6.633  19.369  0.00  0.00    +0.000 C 
ATOM      3  N   UNL     1       2.185   7.164  20.595  0.00  0.00    +0.000 N 
ATOM      4  C   UNL     1       1.467   8.334  20.752  0.00  0.00    +0.000 A 
ATOM      5  C   UNL     1       1.098   8.889  22.003  0.00  0.00    +0.000 A 
ATOM      6  C   UNL     1       0.391  10.032  21.702  0.00  0.00    +0.000 A 
ATOM      7  N   UNL     1       0.357  10.093  20.342  0.00  0.00    +0.000 N 
ATOM      8  N   UNL     1       1.017   9.090  19.752  0.00  0.00    +0.000 NA
ATOM      9  H   UNL     1       2.426   6.682  21.446  0.00  0.00    +0.000 HD
ENDROOT
BRANCH   2  10
ATOM     10  C   UNL     1       3.262   5.359  19.408  0.00  0.00    +0.000 A 
ATOM     11  C   UNL     1       4.690   5.330  19.193  0.00  0.00    +0.000 A 
ATOM     12  C   UNL     1       5.219   4.065  19.193  0.00  0.00    +0.000 A 
ATOM     13  S   UNL     1       4.025   2.888  19.467  0.00  0.00    +0.000 S 
ATOM     14  C   UNL     1       2.763   4.067  19.536  0.00  0.00    +0.000 A 
BRANCH  14  15
ATOM     15  C   UNL     1       1.367   3.545  19.671  0.00  0.00    +0.000 C 
ATOM     16  F   UNL     1       0.574   4.340  20.431  0.00  0.00    +0.000 F 
ATOM     17  F   UNL     1       0.744   3.405  18.474  0.00  0.00    +0.000 F 
ATOM     18  F   UNL     1       1.349   2.326  20.276  0.00  0.00    +0.000 F 
ENDBRANCH  14  15
ENDBRANCH   2  10
BRANCH   7  19
ATOM     19  C   UNL     1      -0.286  11.095  19.518  0.00  0.00    +0.000 C 
BRANCH  19  20
ATOM     20  C   UNL     1      -1.471  10.521  18.774  0.00  0.00    +0.000 C 
ATOM     21  F   UNL     1      -1.413  10.901  17.467  0.00  0.00    +0.000 F 
ENDBRANCH  19  20
ENDBRANCH   7  19
TORSDOF 4
ENDMDL
MODEL 3
REMARK VINA RESULT:      -6.9      4.729      6.896
REMARK  Name = 
REMARK  4 active torsions:
REMARK  status: ('A' for Active; 'I' for Inactive)
REMARK    1  A    between atoms: C_2  and  C_12
REMARK    2  A    between atoms: N_7  and  C_8
REMARK    3  A    between atoms: C_8  and  C_9
REMARK    4  A    between atoms: C_16  and  C_17
REMARK                            x       y       z     vdW  Elec       q    Type
REMARK                         _______ _______ _______ _____ _____    ______ ____
ROOT
ATOM      1  O   UNL     1       3.177   3.507  16.618  0.00  0.00    +0.000 OA
ATOM      2  C   UNL     1       3.710   4.373  17.302  0.00  0.00    +0.000 C 
ATOM      3  N   UNL     1       4.913   4.991  17.044  0.00  0.00    +0.000 N 
ATOM      4  C   UNL     1       5.650   4.785  15.894  0.00  0.00    +0.000 A 
ATOM      5  C   UNL     1       6.882   5.422  15.602  0.00  0.00    +0.000 A 
ATOM      6  C   UNL     1       7.256   4.945  14.366  0.00  0.00    +0.000 A 
ATOM      7  N   UNL     1       6.263   4.095  13.986  0.00  0.00    +0.000 N 
ATOM      8  N   UNL     1       5.296   3.970  14.901  0.00  0.00    +0.000 NA
ATOM      9  H   UNL     1       5.291   5.666  17.690  0.00  0.00    +0.000 HD
ENDROOT
BRANCH   2  10
ATOM     10  C   UNL     1       3.059   4.748  18.571  0.00  0.00    +0.000 A 
ATOM     11  C   UNL     1       2.595   6.099  18.790  0.00  0.00    +0.000 A 
ATOM     12  C   UNL     1       2.076   6.305  20.042  0.00  0.00    +0.000 A 
ATOM     13  S   UNL     1       2.116   4.885  20.976  0.00  0.00    +0.000 S 
ATOM     14  C   UNL     1       2.887   3.983  19.720  0.00  0.00    +0.000 A 
BRANCH  14  15
ATOM     15  C   UNL     1       3.284   2.579  20.052  0.00  0.00    +0.000 C 
ATOM     16  F   UNL     1       4.559   2.290  19.695  0.00  0.00    +0.000 F 
ATOM     17  F   UNL     1       3.179   2.306  21.376  0.00  0.00    +0.000 F 
ATOM     18  F   UNL     1       2.507   1.675  19.395  0.00  0.00    +0.000 F 
ENDBRANCH  14  15
ENDBRANCH   2  10
BRANCH   7  19
ATOM     19  C   UNL     1       6.165   3.346  12.750  0.00  0.00    +0.000 C 
BRANCH  19  20
ATOM     20  C   UNL     1       4.811   3.527  12.101  0.00  0.00    +0.000 C 
ATOM     21  F   UNL     1       4.549   2.460  11.296  0.00  0.00    +0.000 F 
ENDBRANCH  19  20
ENDBRANCH   7  19
TORSDOF 4
ENDMDL
MODEL 4
REMARK VINA RESULT:      -6.9      2.375      3.053
REMARK  Name = 
REMARK  4 active torsions:
REMARK  status: ('A' for Active; 'I' for Inactive)
REMARK    1  A    between atoms: C_2  and  C_12
REMARK    2  A    between atoms: N_7  and  C_8
REMARK    3  A    between atoms: C_8  and  C_9
REMARK    4  A    between atoms: C_16  and  C_17
REMARK                            x       y       z     vdW  Elec       q    Type
REMARK                         _______ _______ _______ _____ _____    ______ ____
ROOT
ATOM      1  O   UNL     1       2.405   6.577  19.913  0.00  0.00    +0.000 OA
ATOM      2  C   UNL     1       2.748   6.981  18.809  0.00  0.00    +0.000 C 
ATOM      3  N   UNL     1       2.343   8.151  18.206  0.00  0.00    +0.000 N 
ATOM      4  C   UNL     1       1.556   9.101  18.829  0.00  0.00    +0.000 A 
ATOM      5  C   UNL     1       1.142  10.318  18.232  0.00  0.00    +0.000 A 
ATOM      6  C   UNL     1       0.396  10.962  19.195  0.00  0.00    +0.000 A 
ATOM      7  N   UNL     1       0.414  10.141  20.281  0.00  0.00    +0.000 N 
ATOM      8  N   UNL     1       1.092   9.006  20.073  0.00  0.00    +0.000 NA
ATOM      9  H   UNL     1       2.648   8.380  17.274  0.00  0.00    +0.000 HD
ENDROOT
BRANCH   2  10
ATOM     10  C   UNL     1       3.612   6.109  17.991  0.00  0.00    +0.000 A 
ATOM     11  C   UNL     1       4.851   6.608  17.440  0.00  0.00    +0.000 A 
ATOM     12  C   UNL     1       5.505   5.698  16.649  0.00  0.00    +0.000 A 
ATOM     13  S   UNL     1       4.663   4.225  16.564  0.00  0.00    +0.000 S 
ATOM     14  C   UNL     1       3.371   4.812  17.551  0.00  0.00    +0.000 A 
BRANCH  14  15
ATOM     15  C   UNL     1       2.206   3.894  17.743  0.00  0.00    +0.000 C 
ATOM     16  F   UNL     1       1.027   4.445  17.360  0.00  0.00    +0.000 F 
ATOM     17  F   UNL     1       2.335   2.735  17.051  0.00  0.00    +0.000 F 
ATOM     18  F   UNL     1       2.045   3.562  19.052  0.00  0.00    +0.000 F 
ENDBRANCH  14  15
ENDBRANCH   2  10
BRANCH   7  19
ATOM     19  C   UNL     1      -0.205  10.366  21.570  0.00  0.00    +0.000 C 
BRANCH  19  20
ATOM     20  C   UNL     1      -0.278   9.089  22.378  0.00  0.00    +0.000 C 
ATOM     21  F   UNL     1      -0.039   9.369  23.690  0.00  0.00    +0.000 F 
ENDBRANCH  19  20
ENDBRANCH   7  19
TORSDOF 4
ENDMDL
MODEL 5
REMARK VINA RESULT:      -6.8      1.190      1.578
REMARK  Name = 
REMARK  4 active torsions:
REMARK  status: ('A' for Active; 'I' for Inactive)
REMARK    1  A    between atoms: C_2  and  C_12
REMARK    2  A    between atoms: N_7  and  C_8
REMARK    3  A    between atoms: C_8  and  C_9
REMARK    4  A    between atoms: C_16  and  C_17
REMARK                            x       y       z     vdW  Elec       q    Type
REMARK                         _______ _______ _______ _____ _____    ______ ____
ROOT
ATOM      1  O   UNL     1       2.457   7.256  18.260  0.00  0.00    +0.000 OA
ATOM      2  C   UNL     1       2.578   6.689  19.339  0.00  0.00    +0.000 C 
ATOM      3  N   UNL     1       2.170   7.171  20.564  0.00  0.00    +0.000 N 
ATOM      4  C   UNL     1       1.458   8.344  20.727  0.00  0.00    +0.000 A 
ATOM      5  C   UNL     1       1.017   8.849  21.976  0.00  0.00    +0.000 A 
ATOM      6  C   UNL     1       0.345  10.014  21.682  0.00  0.00    +0.000 A 
ATOM      7  N   UNL     1       0.400  10.135  20.327  0.00  0.00    +0.000 N 
ATOM      8  N   UNL     1       1.083   9.149  19.735  0.00  0.00    +0.000 NA
ATOM      9  H   UNL     1       2.350   6.648  21.406  0.00  0.00    +0.000 HD
ENDROOT
BRANCH   2  10
ATOM     10  C   UNL     1       3.299   5.403  19.368  0.00  0.00    +0.000 A 
ATOM     11  C   UNL     1       4.733   5.358  19.202  0.00  0.00    +0.000 A 
ATOM     12  C   UNL     1       5.244   4.086  19.186  0.00  0.00    +0.000 A 
ATOM     13  S   UNL     1       4.024   2.920  19.384  0.00  0.00    +0.000 S 
ATOM     14  C   UNL     1       2.778   4.116  19.442  0.00  0.00    +0.000 A 
BRANCH  14  15
ATOM     15  C   UNL     1       1.371   3.612  19.513  0.00  0.00    +0.000 C 
ATOM     16  F   UNL     1       0.596   4.320  20.371  0.00  0.00    +0.000 F 
ATOM     17  F   UNL     1       0.744   3.640  18.311  0.00  0.00    +0.000 F 
ATOM     18  F   UNL     1       1.325   2.326  19.957  0.00  0.00    +0.000 F 
ENDBRANCH  14  15
ENDBRANCH   2  10
BRANCH   7  19
ATOM     19  C   UNL     1      -0.176  11.183  19.508  0.00  0.00    +0.000 C 
BRANCH  19  20
ATOM     20  C   UNL     1       0.893  12.084  18.932  0.00  0.00    +0.000 C 
ATOM     21  F   UNL     1       1.868  12.282  19.862  0.00  0.00    +0.000 F 
ENDBRANCH  19  20
ENDBRANCH   7  19
TORSDOF 4
ENDMDL
MODEL 6
REMARK VINA RESULT:      -6.8      0.984      1.285
REMARK  Name = 
REMARK  4 active torsions:
REMARK  status: ('A' for Active; 'I' for Inactive)
REMARK    1  A    between atoms: C_2  and  C_12
REMARK    2  A    between atoms: N_7  and  C_8
REMARK    3  A    between atoms: C_8  and  C_9
REMARK    4  A    between atoms: C_16  and  C_17
REMARK                            x       y       z     vdW  Elec       q    Type
REMARK                         _______ _______ _______ _____ _____    ______ ____
ROOT
ATOM      1  O   UNL     1       2.365   6.983  18.404  0.00  0.00    +0.000 OA
ATOM      2  C   UNL     1       2.469   6.484  19.518  0.00  0.00    +0.000 C 
ATOM      3  N   UNL     1       2.119   7.075  20.713  0.00  0.00    +0.000 N 
ATOM      4  C   UNL     1       1.492   8.302  20.806  0.00  0.00    +0.000 A 
ATOM      5  C   UNL     1       1.110   8.919  22.023  0.00  0.00    +0.000 A 
ATOM      6  C   UNL     1       0.513  10.106  21.660  0.00  0.00    +0.000 A 
ATOM      7  N   UNL     1       0.548  10.131  20.299  0.00  0.00    +0.000 N 
ATOM      8  N   UNL     1       1.151   9.062  19.766  0.00  0.00    +0.000 NA
ATOM      9  H   UNL     1       2.281   6.599  21.585  0.00  0.00    +0.000 HD
ENDROOT
BRANCH   2  10
ATOM     10  C   UNL     1       3.102   5.157  19.624  0.00  0.00    +0.000 A 
ATOM     11  C   UNL     1       4.480   4.964  19.236  0.00  0.00    +0.000 A 
ATOM     12  C   UNL     1       4.900   3.662  19.330  0.00  0.00    +0.000 A 
ATOM     13  S   UNL     1       3.662   2.646  19.899  0.00  0.00    +0.000 S 
ATOM     14  C   UNL     1       2.522   3.943  19.976  0.00  0.00    +0.000 A 
BRANCH  14  15
ATOM     15  C   UNL     1       1.120   3.578  20.350  0.00  0.00    +0.000 C 
ATOM     16  F   UNL     1       0.320   4.658  20.530  0.00  0.00    +0.000 F 
ATOM     17  F   UNL     1       0.516   2.799  19.418  0.00  0.00    +0.000 F 
ATOM     18  F   UNL     1       1.081   2.896  21.527  0.00  0.00    +0.000 F 
ENDBRANCH  14  15
ENDBRANCH   2  10
BRANCH   7  19
ATOM     19  C   UNL     1       0.027  11.157  19.420  0.00  0.00    +0.000 C 
BRANCH  19  20
ATOM     20  C   UNL     1      -1.403  11.509  19.767  0.00  0.00    +0.000 C 
ATOM     21  F   UNL     1      -1.416  12.610  20.568  0.00  0.00    +0.000 F 
ENDBRANCH  19  20
ENDBRANCH   7  19
TORSDOF 4
ENDMDL
MODEL 7
REMARK VINA RESULT:      -6.8      1.908      2.447
REMARK  Name = 
REMARK  4 active torsions:
REMARK  status: ('A' for Active; 'I' for Inactive)
REMARK    1  A    between atoms: C_2  and  C_12
REMARK    2  A    between atoms: N_7  and  C_8
REMARK    3  A    between atoms: C_8  and  C_9
REMARK    4  A    between atoms: C_16  and  C_17
REMARK                            x       y       z     vdW  Elec       q    Type
REMARK                         _______ _______ _______ _____ _____    ______ ____
ROOT
ATOM      1  O   UNL     1       1.822   6.404  20.737  0.00  0.00    +0.000 OA
ATOM      2  C   UNL     1       2.443   6.531  19.689  0.00  0.00    +0.000 C 
ATOM      3  N   UNL     1       2.374   7.600  18.823  0.00  0.00    +0.000 N 
ATOM      4  C   UNL     1       1.653   8.749  19.081  0.00  0.00    +0.000 A 
ATOM      5  C   UNL     1       1.581   9.866  18.212  0.00  0.00    +0.000 A 
ATOM      6  C   UNL     1       0.779  10.781  18.857  0.00  0.00    +0.000 A 
ATOM      7  N   UNL     1       0.439  10.199  20.039  0.00  0.00    +0.000 N 
ATOM      8  N   UNL     1       0.939   8.966  20.185  0.00  0.00    +0.000 NA
ATOM      9  H   UNL     1       2.895   7.595  17.961  0.00  0.00    +0.000 HD
ENDROOT
BRANCH   2  10
ATOM     10  C   UNL     1       3.291   5.407  19.248  0.00  0.00    +0.000 A 
ATOM     11  C   UNL     1       4.732   5.512  19.290  0.00  0.00    +0.000 A 
ATOM     12  C   UNL     1       5.376   4.412  18.785  0.00  0.00    +0.000 A 
ATOM     13  S   UNL     1       4.275   3.226  18.267  0.00  0.00    +0.000 S 
ATOM     14  C   UNL     1       2.908   4.204  18.667  0.00  0.00    +0.000 A 
BRANCH  14  15
ATOM     15  C   UNL     1       1.564   3.656  18.302  0.00  0.00    +0.000 C 
ATOM     16  F   UNL     1       0.935   4.385  17.347  0.00  0.00    +0.000 F 
ATOM     17  F   UNL     1       1.627   2.383  17.839  0.00  0.00    +0.000 F 
ATOM     18  F   UNL     1       0.722   3.651  19.371  0.00  0.00    +0.000 F 
ENDBRANCH  14  15
ENDBRANCH   2  10
BRANCH   7  19
ATOM     19  C   UNL     1      -0.379  10.756  21.096  0.00  0.00    +0.000 C 
BRANCH  19  20
ATOM     20  C   UNL     1      -0.008  10.179  22.445  0.00  0.00    +0.000 C 
ATOM     21  F   UNL     1      -0.965   9.292  22.836  0.00  0.00    +0.000 F 
ENDBRANCH  19  20
ENDBRANCH   7  19
TORSDOF 4
ENDMDL
MODEL 8
REMARK VINA RESULT:      -6.8      1.388      1.599
REMARK  Name = 
REMARK  4 active torsions:
REMARK  status: ('A' for Active; 'I' for Inactive)
REMARK    1  A    between atoms: C_2  and  C_12
REMARK    2  A    between atoms: N_7  and  C_8
REMARK    3  A    between atoms: C_8  and  C_9
REMARK    4  A    between atoms: C_16  and  C_17
REMARK                            x       y       z     vdW  Elec       q    Type
REMARK                         _______ _______ _______ _____ _____    ______ ____
ROOT
ATOM      1  O   UNL     1       2.470   7.421  18.081  0.00  0.00    +0.000 OA
ATOM      2  C   UNL     1       2.609   6.796  19.125  0.00  0.00    +0.000 C 
ATOM      3  N   UNL     1       2.207   7.200  20.379  0.00  0.00    +0.000 N 
ATOM      4  C   UNL     1       1.480   8.351  20.616  0.00  0.00    +0.000 A 
ATOM      5  C   UNL     1       1.043   8.777  21.895  0.00  0.00    +0.000 A 
ATOM      6  C   UNL     1       0.353   9.947  21.675  0.00  0.00    +0.000 A 
ATOM      7  N   UNL     1       0.393  10.147  20.329  0.00  0.00    +0.000 N 
ATOM      8  N   UNL     1       1.084   9.207  19.675  0.00  0.00    +0.000 NA
ATOM      9  H   UNL     1       2.402   6.632  21.187  0.00  0.00    +0.000 HD
ENDROOT
BRANCH   2  10
ATOM     10  C   UNL     1       3.348   5.520  19.073  0.00  0.00    +0.000 A 
ATOM     11  C   UNL     1       4.785   5.495  19.220  0.00  0.00    +0.000 A 
ATOM     12  C   UNL     1       5.329   4.244  19.081  0.00  0.00    +0.000 A 
ATOM     13  S   UNL     1       4.133   3.072  18.790  0.00  0.00    +0.000 S 
ATOM     14  C   UNL     1       2.865   4.247  18.793  0.00  0.00    +0.000 A 
BRANCH  14  15
ATOM     15  C   UNL     1       1.493   3.750  18.460  0.00  0.00    +0.000 C 
ATOM     16  F   UNL     1       0.930   4.407  17.416  0.00  0.00    +0.000 F 
ATOM     17  F   UNL     1       1.477   2.432  18.143  0.00  0.00    +0.000 F 
ATOM     18  F   UNL     1       0.637   3.921  19.504  0.00  0.00    +0.000 F 
ENDBRANCH  14  15
ENDBRANCH   2  10
BRANCH   7  19
ATOM     19  C   UNL     1      -0.206  11.232  19.578  0.00  0.00    +0.000 C 
BRANCH  19  20
ATOM     20  C   UNL     1      -0.855  12.245  20.494  0.00  0.00    +0.000 C 
ATOM     21  F   UNL     1      -2.186  11.972  20.599  0.00  0.00    +0.000 F 
ENDBRANCH  19  20
ENDBRANCH   7  19
TORSDOF 4
ENDMDL
MODEL 9
REMARK VINA RESULT:      -6.7      1.709      1.917
REMARK  Name = 
REMARK  4 active torsions:
REMARK  status: ('A' for Active; 'I' for Inactive)
REMARK    1  A    between atoms: C_2  and  C_12
REMARK    2  A    between atoms: N_7  and  C_8
REMARK    3  A    between atoms: C_8  and  C_9
REMARK    4  A    between atoms: C_16  and  C_17
REMARK                            x       y       z     vdW  Elec       q    Type
REMARK                         _______ _______ _______ _____ _____    ______ ____
ROOT
ATOM      1  O   UNL     1       2.730   8.194  17.450  0.00  0.00    +0.000 OA
ATOM      2  C   UNL     1       2.805   7.305  18.290  0.00  0.00    +0.000 C 
ATOM      3  N   UNL     1       2.300   7.347  19.571  0.00  0.00    +0.000 N 
ATOM      4  C   UNL     1       1.532   8.388  20.058  0.00  0.00    +0.000 A 
ATOM      5  C   UNL     1       0.991   8.444  21.367  0.00  0.00    +0.000 A 
ATOM      6  C   UNL     1       0.293   9.629  21.423  0.00  0.00    +0.000 A 
ATOM      7  N   UNL     1       0.429  10.192  20.191  0.00  0.00    +0.000 N 
ATOM      8  N   UNL     1       1.189   9.469  19.360  0.00  0.00    +0.000 NA
ATOM      9  H   UNL     1       2.447   6.579  20.205  0.00  0.00    +0.000 HD
ENDROOT
BRANCH   2  10
ATOM     10  C   UNL     1       3.574   6.094  17.948  0.00  0.00    +0.000 A 
ATOM     11  C   UNL     1       4.970   6.186  17.587  0.00  0.00    +0.000 A 
ATOM     12  C   UNL     1       5.525   4.983  17.232  0.00  0.00    +0.000 A 
ATOM     13  S   UNL     1       4.395   3.718  17.338  0.00  0.00    +0.000 S 
ATOM     14  C   UNL     1       3.122   4.786  17.814  0.00  0.00    +0.000 A 
BRANCH  14  15
ATOM     15  C   UNL     1       1.762   4.180  17.962  0.00  0.00    +0.000 C 
ATOM     16  F   UNL     1       0.840   4.738  17.140  0.00  0.00    +0.000 F 
ATOM     17  F   UNL     1       1.753   2.848  17.708  0.00  0.00    +0.000 F 
ATOM     18  F   UNL     1       1.277   4.350  19.222  0.00  0.00    +0.000 F 
ENDBRANCH  14  15
ENDBRANCH   2  10
BRANCH   7  19
ATOM     19  C   UNL     1      -0.136  11.441  19.722  0.00  0.00    +0.000 C 
BRANCH  19  20
ATOM     20  C   UNL     1      -1.608  11.297  19.406  0.00  0.00    +0.000 C 
ATOM     21  F   UNL     1      -1.813  10.135  18.726  0.00  0.00    +0.000 F 
ENDBRANCH  19  20
ENDBRANCH   7  19
TORSDOF 4
ENDMDL
