MODEL 1
REMARK VINA RESULT:      -6.2      0.000      0.000
REMARK  Name = 
REMARK  7 active torsions:
REMARK  status: ('A' for Active; 'I' for Inactive)
REMARK    1  A    between atoms: C_1  and  C_2
REMARK    2  A    between atoms: C_6  and  C_7
REMARK    3  A    between atoms: C_7  and  C_8
REMARK    4  A    between atoms: C_7  and  N_9
REMARK    5  A    between atoms: N_9  and  C_10
REMARK    6  A    between atoms: C_14  and  C_15
REMARK    7  A    between atoms: C_15  and  O_16
REMARK                            x       y       z     vdW  Elec       q    Type
REMARK                         _______ _______ _______ _____ _____    ______ ____
ROOT
ATOM      1  N   UNL     1       2.868   5.179  17.895  0.00  0.00    +0.000 NA
ATOM      2  H   UNL     1       3.033   4.576  17.078  0.00  0.00    +0.000 HD
ENDROOT
BRANCH   1   3
ATOM      3  C   UNL     1       2.635   4.285  19.035  0.00  0.00    +0.000 C 
ATOM      4  C   UNL     1       1.640   4.782  20.082  0.00  0.00    +0.000 C 
ATOM      5  C   UNL     1       1.264   3.539  20.862  0.00  0.00    +0.000 C 
ATOM      6  C   UNL     1       1.318   2.394  19.852  0.00  0.00    +0.000 C 
ATOM      7  C   UNL     1       1.940   2.979  18.576  0.00  0.00    +0.000 C 
BRANCH   7   8
ATOM      8  C   UNL     1       2.854   1.984  17.871  0.00  0.00    +0.000 C 
BRANCH   8   9
ATOM      9  O   UNL     1       4.220   2.342  18.039  0.00  0.00    +0.000 OA
ATOM     10  H   UNL     1       4.355   3.174  17.548  0.00  0.00    +0.000 HD
ENDBRANCH   8   9
ENDBRANCH   7   8
ENDBRANCH   1   3
BRANCH   1  11
ATOM     11  C   UNL     1       4.020   6.106  17.981  0.00  0.00    +0.000 C 
ATOM     12  C   UNL     1       3.628   7.526  17.553  0.00  0.00    +0.000 C 
BRANCH  11  18
ATOM     13  C   UNL     1       6.818   5.473  19.419  0.00  0.00    +0.000 C 
ATOM     14  C   UNL     1       6.506   5.249  17.973  0.00  0.00    +0.000 A 
ATOM     15  C   UNL     1       7.427   4.631  17.064  0.00  0.00    +0.000 A 
ATOM     16  C   UNL     1       6.931   4.531  15.788  0.00  0.00    +0.000 A 
ATOM     17  S   UNL     1       5.378   5.209  15.658  0.00  0.00    +0.000 S 
ATOM     18  C   UNL     1       5.293   5.547  17.348  0.00  0.00    +0.000 A 
ENDBRANCH  11  18
ENDBRANCH   1  11
TORSDOF 5
ENDMDL
MODEL 2
REMARK VINA RESULT:      -6.2      0.997      1.050
REMARK  Name = 
REMARK  7 active torsions:
REMARK  status: ('A' for Active; 'I' for Inactive)
REMARK    1  A    between atoms: C_1  and  C_2
REMARK    2  A    between atoms: C_6  and  C_7
REMARK    3  A    between atoms: C_7  and  C_8
REMARK    4  A    between atoms: C_7  and  N_9
REMARK    5  A    between atoms: N_9  and  C_10
REMARK    6  A    between atoms: C_14  and  C_15
REMARK    7  A    between atoms: C_15  and  O_16
REMARK                            x       y       z     vdW  Elec       q    Type
REMARK                         _______ _______ _______ _____ _____    ______ ____
ROOT
ATOM      1  N   UNL     1       2.854   4.706  18.151  0.00  0.00    +0.000 NA
ATOM      2  H   UNL     1       3.075   4.065  17.379  0.00  0.00    +0.000 HD
ENDROOT
BRANCH   1   3
ATOM      3  C   UNL     1       2.689   3.877  19.350  0.00  0.00    +0.000 C 
ATOM      4  C   UNL     1       2.848   4.596  20.689  0.00  0.00    +0.000 C 
ATOM      5  C   UNL     1       2.209   3.661  21.695  0.00  0.00    +0.000 C 
ATOM      6  C   UNL     1       1.072   2.972  20.945  0.00  0.00    +0.000 C 
ATOM      7  C   UNL     1       1.231   3.368  19.471  0.00  0.00    +0.000 C 
BRANCH   7   8
ATOM      8  C   UNL     1       0.875   2.225  18.526  0.00  0.00    +0.000 C 
BRANCH   8   9
ATOM      9  O   UNL     1       1.972   1.907  17.678  0.00  0.00    +0.000 OA
ATOM     10  H   UNL     1       2.474   1.199  18.123  0.00  0.00    +0.000 HD
ENDBRANCH   8   9
ENDBRANCH   7   8
ENDBRANCH   1   3
BRANCH   1  11
ATOM     11  C   UNL     1       3.922   5.731  18.174  0.00  0.00    +0.000 C 
ATOM     12  C   UNL     1       3.385   7.109  17.765  0.00  0.00    +0.000 C 
BRANCH  11  18
ATOM     13  C   UNL     1       6.864   5.484  19.432  0.00  0.00    +0.000 C 
ATOM     14  C   UNL     1       6.483   5.152  18.025  0.00  0.00    +0.000 A 
ATOM     15  C   UNL     1       7.404   4.592  17.079  0.00  0.00    +0.000 A 
ATOM     16  C   UNL     1       6.838   4.372  15.848  0.00  0.00    +0.000 A 
ATOM     17  S   UNL     1       5.213   4.868  15.801  0.00  0.00    +0.000 S 
ATOM     18  C   UNL     1       5.204   5.283  17.477  0.00  0.00    +0.000 A 
ENDBRANCH  11  18
ENDBRANCH   1  11
TORSDOF 5
ENDMDL
MODEL 3
REMARK VINA RESULT:      -6.1      2.420      5.459
REMARK  Name = 
REMARK  7 active torsions:
REMARK  status: ('A' for Active; 'I' for Inactive)
REMARK    1  A    between atoms: C_1  and  C_2
REMARK    2  A    between atoms: C_6  and  C_7
REMARK    3  A    between atoms: C_7  and  C_8
REMARK    4  A    between atoms: C_7  and  N_9
REMARK    5  A    between atoms: N_9  and  C_10
REMARK    6  A    between atoms: C_14  and  C_15
REMARK    7  A    between atoms: C_15  and  O_16
REMARK                            x       y       z     vdW  Elec       q    Type
REMARK                         _______ _______ _______ _____ _____    ______ ____
ROOT
ATOM      1  N   UNL     1       4.741   5.477  19.470  0.00  0.00    +0.000 NA
ATOM      2  H   UNL     1       4.730   4.885  20.311  0.00  0.00    +0.000 HD
ENDROOT
BRANCH   1   3
ATOM      3  C   UNL     1       5.633   4.820  18.508  0.00  0.00    +0.000 C 
ATOM      4  C   UNL     1       4.991   4.375  17.195  0.00  0.00    +0.000 C 
ATOM      5  C   UNL     1       6.162   4.160  16.259  0.00  0.00    +0.000 C 
ATOM      6  C   UNL     1       7.211   5.187  16.676  0.00  0.00    +0.000 C 
ATOM      7  C   UNL     1       6.700   5.813  17.982  0.00  0.00    +0.000 C 
BRANCH   7   8
ATOM      8  C   UNL     1       7.831   6.109  18.961  0.00  0.00    +0.000 C 
BRANCH   8   9
ATOM      9  O   UNL     1       7.608   5.461  20.206  0.00  0.00    +0.000 OA
ATOM     10  H   UNL     1       6.654   5.533  20.394  0.00  0.00    +0.000 HD
ENDBRANCH   8   9
ENDBRANCH   7   8
ENDBRANCH   1   3
BRANCH   1  11
ATOM     11  C   UNL     1       3.329   5.670  19.066  0.00  0.00    +0.000 C 
ATOM     12  C   UNL     1       2.875   7.118  19.293  0.00  0.00    +0.000 C 
BRANCH  11  18
ATOM     13  C   UNL     1       1.223   3.895  17.419  0.00  0.00    +0.000 C 
ATOM     14  C   UNL     1       1.492   3.797  18.887  0.00  0.00    +0.000 A 
ATOM     15  C   UNL     1       0.877   2.811  19.728  0.00  0.00    +0.000 A 
ATOM     16  C   UNL     1       1.267   2.911  21.041  0.00  0.00    +0.000 A 
ATOM     17  S   UNL     1       2.342   4.205  21.285  0.00  0.00    +0.000 S 
ATOM     18  C   UNL     1       2.394   4.588  19.603  0.00  0.00    +0.000 A 
ENDBRANCH  11  18
ENDBRANCH   1  11
TORSDOF 5
ENDMDL
MODEL 4
REMARK VINA RESULT:      -6.1      2.311      5.464
REMARK  Name = 
REMARK  7 active torsions:
REMARK  status: ('A' for Active; 'I' for Inactive)
REMARK    1  A    between atoms: C_1  and  C_2
REMARK    2  A    between atoms: C_6  and  C_7
REMARK    3  A    between atoms: C_7  and  C_8
REMARK    4  A    between atoms: C_7  and  N_9
REMARK    5  A    between atoms: N_9  and  C_10
REMARK    6  A    between atoms: C_14  and  C_15
REMARK    7  A    between atoms: C_15  and  O_16
REMARK                            x       y       z     vdW  Elec       q    Type
REMARK                         _______ _______ _______ _____ _____    ______ ____
ROOT
ATOM      1  N   UNL     1       4.830   5.210  18.587  0.00  0.00    +0.000 NA
ATOM      2  H   UNL     1       4.969   4.594  19.398  0.00  0.00    +0.000 HD
ENDROOT
BRANCH   1   3
ATOM      3  C   UNL     1       5.731   4.726  17.535  0.00  0.00    +0.000 C 
ATOM      4  C   UNL     1       5.083   3.898  16.427  0.00  0.00    +0.000 C 
ATOM      5  C   UNL     1       6.096   3.918  15.301  0.00  0.00    +0.000 C 
ATOM      6  C   UNL     1       6.784   5.278  15.398  0.00  0.00    +0.000 C 
ATOM      7  C   UNL     1       6.300   5.908  16.712  0.00  0.00    +0.000 C 
BRANCH   7   8
ATOM      8  C   UNL     1       7.400   6.700  17.411  0.00  0.00    +0.000 C 
BRANCH   8   9
ATOM      9  O   UNL     1       7.781   6.073  18.629  0.00  0.00    +0.000 OA
ATOM     10  H   UNL     1       6.989   6.061  19.198  0.00  0.00    +0.000 HD
ENDBRANCH   8   9
ENDBRANCH   7   8
ENDBRANCH   1   3
BRANCH   1  11
ATOM     11  C   UNL     1       3.379   5.207  18.293  0.00  0.00    +0.000 C 
ATOM     12  C   UNL     1       2.843   6.633  18.108  0.00  0.00    +0.000 C 
BRANCH  11  18
ATOM     13  C   UNL     1       2.358   2.212  17.760  0.00  0.00    +0.000 C 
ATOM     14  C   UNL     1       2.147   2.999  19.015  0.00  0.00    +0.000 A 
ATOM     15  C   UNL     1       1.516   2.451  20.181  0.00  0.00    +0.000 A 
ATOM     16  C   UNL     1       1.425   3.354  21.211  0.00  0.00    +0.000 A 
ATOM     17  S   UNL     1       2.058   4.872  20.781  0.00  0.00    +0.000 S 
ATOM     18  C   UNL     1       2.574   4.311  19.232  0.00  0.00    +0.000 A 
ENDBRANCH  11  18
ENDBRANCH   1  11
TORSDOF 5
ENDMDL
MODEL 5
REMARK VINA RESULT:      -6.1      1.927      5.203
REMARK  Name = 
REMARK  7 active torsions:
REMARK  status: ('A' for Active; 'I' for Inactive)
REMARK    1  A    between atoms: C_1  and  C_2
REMARK    2  A    between atoms: C_6  and  C_7
REMARK    3  A    between atoms: C_7  and  C_8
REMARK    4  A    between atoms: C_7  and  N_9
REMARK    5  A    between atoms: N_9  and  C_10
REMARK    6  A    between atoms: C_14  and  C_15
REMARK    7  A    between atoms: C_15  and  O_16
REMARK                            x       y       z     vdW  Elec       q    Type
REMARK                         _______ _______ _______ _____ _____    ______ ____
ROOT
ATOM      1  N   UNL     1       4.449   5.774  18.462  0.00  0.00    +0.000 NA
ATOM      2  H   UNL     1       4.458   5.478  19.447  0.00  0.00    +0.000 HD
ENDROOT
BRANCH   1   3
ATOM      3  C   UNL     1       5.400   4.908  17.756  0.00  0.00    +0.000 C 
ATOM      4  C   UNL     1       5.014   4.513  16.331  0.00  0.00    +0.000 C 
ATOM      5  C   UNL     1       6.310   4.029  15.713  0.00  0.00    +0.000 C 
ATOM      6  C   UNL     1       7.408   4.867  16.362  0.00  0.00    +0.000 C 
ATOM      7  C   UNL     1       6.733   5.652  17.495  0.00  0.00    +0.000 C 
BRANCH   7   8
ATOM      8  C   UNL     1       7.634   5.791  18.717  0.00  0.00    +0.000 C 
BRANCH   8   9
ATOM      9  O   UNL     1       7.005   5.259  19.876  0.00  0.00    +0.000 OA
ATOM     10  H   UNL     1       7.710   4.873  20.427  0.00  0.00    +0.000 HD
ENDBRANCH   8   9
ENDBRANCH   7   8
ENDBRANCH   1   3
BRANCH   1  11
ATOM     11  C   UNL     1       3.037   5.740  18.018  0.00  0.00    +0.000 C 
ATOM     12  C   UNL     1       2.409   7.139  18.041  0.00  0.00    +0.000 C 
BRANCH  11  18
ATOM     13  C   UNL     1       1.713   5.756  20.942  0.00  0.00    +0.000 C 
ATOM     14  C   UNL     1       1.625   4.643  19.946  0.00  0.00    +0.000 A 
ATOM     15  C   UNL     1       0.845   3.459  20.168  0.00  0.00    +0.000 A 
ATOM     16  C   UNL     1       0.914   2.572  19.124  0.00  0.00    +0.000 A 
ATOM     17  S   UNL     1       1.940   3.128  17.887  0.00  0.00    +0.000 S 
ATOM     18  C   UNL     1       2.222   4.633  18.684  0.00  0.00    +0.000 A 
ENDBRANCH  11  18
ENDBRANCH   1  11
TORSDOF 5
ENDMDL
MODEL 6
REMARK VINA RESULT:      -6.1      1.258      1.698
REMARK  Name = 
REMARK  7 active torsions:
REMARK  status: ('A' for Active; 'I' for Inactive)
REMARK    1  A    between atoms: C_1  and  C_2
REMARK    2  A    between atoms: C_6  and  C_7
REMARK    3  A    between atoms: C_7  and  C_8
REMARK    4  A    between atoms: C_7  and  N_9
REMARK    5  A    between atoms: N_9  and  C_10
REMARK    6  A    between atoms: C_14  and  C_15
REMARK    7  A    between atoms: C_15  and  O_16
REMARK                            x       y       z     vdW  Elec       q    Type
REMARK                         _______ _______ _______ _____ _____    ______ ____
ROOT
ATOM      1  N   UNL     1       2.899   5.105  18.181  0.00  0.00    +0.000 NA
ATOM      2  H   UNL     1       3.099   4.464  17.402  0.00  0.00    +0.000 HD
ENDROOT
BRANCH   1   3
ATOM      3  C   UNL     1       2.696   4.269  19.369  0.00  0.00    +0.000 C 
ATOM      4  C   UNL     1       1.423   4.541  20.170  0.00  0.00    +0.000 C 
ATOM      5  C   UNL     1       1.246   3.304  21.025  0.00  0.00    +0.000 C 
ATOM      6  C   UNL     1       1.793   2.149  20.188  0.00  0.00    +0.000 C 
ATOM      7  C   UNL     1       2.471   2.789  18.969  0.00  0.00    +0.000 C 
BRANCH   7   8
ATOM      8  C   UNL     1       3.733   2.043  18.553  0.00  0.00    +0.000 C 
BRANCH   8   9
ATOM      9  O   UNL     1       4.817   2.356  19.418  0.00  0.00    +0.000 OA
ATOM     10  H   UNL     1       4.692   3.280  19.704  0.00  0.00    +0.000 HD
ENDBRANCH   8   9
ENDBRANCH   7   8
ENDBRANCH   1   3
BRANCH   1  11
ATOM     11  C   UNL     1       4.007   6.087  18.221  0.00  0.00    +0.000 C 
ATOM     12  C   UNL     1       3.670   7.344  17.408  0.00  0.00    +0.000 C 
BRANCH  11  18
ATOM     13  C   UNL     1       4.961   4.496  15.602  0.00  0.00    +0.000 C 
ATOM     14  C   UNL     1       5.803   4.792  16.803  0.00  0.00    +0.000 A 
ATOM     15  C   UNL     1       7.196   4.456  16.880  0.00  0.00    +0.000 A 
ATOM     16  C   UNL     1       7.765   4.817  18.076  0.00  0.00    +0.000 A 
ATOM     17  S   UNL     1       6.634   5.525  19.128  0.00  0.00    +0.000 S 
ATOM     18  C   UNL     1       5.375   5.465  17.950  0.00  0.00    +0.000 A 
ENDBRANCH  11  18
ENDBRANCH   1  11
TORSDOF 5
ENDMDL
MODEL 7
REMARK VINA RESULT:      -6.0      1.455      1.889
REMARK  Name = 
REMARK  7 active torsions:
REMARK  status: ('A' for Active; 'I' for Inactive)
REMARK    1  A    between atoms: C_1  and  C_2
REMARK    2  A    between atoms: C_6  and  C_7
REMARK    3  A    between atoms: C_7  and  C_8
REMARK    4  A    between atoms: C_7  and  N_9
REMARK    5  A    between atoms: N_9  and  C_10
REMARK    6  A    between atoms: C_14  and  C_15
REMARK    7  A    between atoms: C_15  and  O_16
REMARK                            x       y       z     vdW  Elec       q    Type
REMARK                         _______ _______ _______ _____ _____    ______ ____
ROOT
ATOM      1  N   UNL     1       2.883   4.779  18.206  0.00  0.00    +0.000 NA
ATOM      2  H   UNL     1       3.145   4.160  17.427  0.00  0.00    +0.000 HD
ENDROOT
BRANCH   1   3
ATOM      3  C   UNL     1       2.723   3.922  19.386  0.00  0.00    +0.000 C 
ATOM      4  C   UNL     1       2.817   4.625  20.740  0.00  0.00    +0.000 C 
ATOM      5  C   UNL     1       2.194   3.646  21.714  0.00  0.00    +0.000 C 
ATOM      6  C   UNL     1       1.106   2.922  20.923  0.00  0.00    +0.000 C 
ATOM      7  C   UNL     1       1.286   3.350  19.460  0.00  0.00    +0.000 C 
BRANCH   7   8
ATOM      8  C   UNL     1       1.004   2.210  18.487  0.00  0.00    +0.000 C 
BRANCH   8   9
ATOM      9  O   UNL     1       2.202   1.769  17.861  0.00  0.00    +0.000 OA
ATOM     10  H   UNL     1       2.895   1.772  18.546  0.00  0.00    +0.000 HD
ENDBRANCH   8   9
ENDBRANCH   7   8
ENDBRANCH   1   3
BRANCH   1  11
ATOM     11  C   UNL     1       3.912   5.842  18.270  0.00  0.00    +0.000 C 
ATOM     12  C   UNL     1       3.475   7.091  17.493  0.00  0.00    +0.000 C 
BRANCH  11  18
ATOM     13  C   UNL     1       5.002   4.504  15.565  0.00  0.00    +0.000 C 
ATOM     14  C   UNL     1       5.808   4.773  16.795  0.00  0.00    +0.000 A 
ATOM     15  C   UNL     1       7.220   4.529  16.871  0.00  0.00    +0.000 A 
ATOM     16  C   UNL     1       7.751   4.845  18.097  0.00  0.00    +0.000 A 
ATOM     17  S   UNL     1       6.562   5.400  19.177  0.00  0.00    +0.000 S 
ATOM     18  C   UNL     1       5.322   5.336  17.978  0.00  0.00    +0.000 A 
ENDBRANCH  11  18
ENDBRANCH   1  11
TORSDOF 5
ENDMDL
MODEL 8
REMARK VINA RESULT:      -6.0      2.386      5.145
REMARK  Name = 
REMARK  7 active torsions:
REMARK  status: ('A' for Active; 'I' for Inactive)
REMARK    1  A    between atoms: C_1  and  C_2
REMARK    2  A    between atoms: C_6  and  C_7
REMARK    3  A    between atoms: C_7  and  C_8
REMARK    4  A    between atoms: C_7  and  N_9
REMARK    5  A    between atoms: N_9  and  C_10
REMARK    6  A    between atoms: C_14  and  C_15
REMARK    7  A    between atoms: C_15  and  O_16
REMARK                            x       y       z     vdW  Elec       q    Type
REMARK                         _______ _______ _______ _____ _____    ______ ____
ROOT
ATOM      1  N   UNL     1       3.763   5.259  17.957  0.00  0.00    +0.000 NA
ATOM      2  H   UNL     1       3.341   5.710  18.780  0.00  0.00    +0.000 HD
ENDROOT
BRANCH   1   3
ATOM      3  C   UNL     1       5.182   5.630  17.959  0.00  0.00    +0.000 C 
ATOM      4  C   UNL     1       5.951   5.330  19.245  0.00  0.00    +0.000 C 
ATOM      5  C   UNL     1       7.407   5.384  18.833  0.00  0.00    +0.000 C 
ATOM      6  C   UNL     1       7.441   4.884  17.391  0.00  0.00    +0.000 C 
ATOM      7  C   UNL     1       5.976   4.769  16.945  0.00  0.00    +0.000 C 
BRANCH   7   8
ATOM      8  C   UNL     1       5.785   5.165  15.485  0.00  0.00    +0.000 C 
BRANCH   8   9
ATOM      9  O   UNL     1       5.241   6.475  15.382  0.00  0.00    +0.000 OA
ATOM     10  H   UNL     1       4.648   6.594  16.146  0.00  0.00    +0.000 HD
ENDBRANCH   8   9
ENDBRANCH   7   8
ENDBRANCH   1   3
BRANCH   1  11
ATOM     11  C   UNL     1       3.435   3.818  18.045  0.00  0.00    +0.000 C 
ATOM     12  C   UNL     1       2.683   3.338  16.797  0.00  0.00    +0.000 C 
BRANCH  11  18
ATOM     13  C   UNL     1       4.759   2.034  20.361  0.00  0.00    +0.000 C 
ATOM     14  C   UNL     1       3.402   2.662  20.407  0.00  0.00    +0.000 A 
ATOM     15  C   UNL     1       2.553   2.600  21.562  0.00  0.00    +0.000 A 
ATOM     16  C   UNL     1       1.354   3.241  21.377  0.00  0.00    +0.000 A 
ATOM     17  S   UNL     1       1.217   3.889  19.812  0.00  0.00    +0.000 S 
ATOM     18  C   UNL     1       2.822   3.419  19.386  0.00  0.00    +0.000 A 
ENDBRANCH  11  18
ENDBRANCH   1  11
TORSDOF 5
ENDMDL
MODEL 9
REMARK VINA RESULT:      -5.9      1.189      1.192
REMARK  Name = 
REMARK  7 active torsions:
REMARK  status: ('A' for Active; 'I' for Inactive)
REMARK    1  A    between atoms: C_1  and  C_2
REMARK    2  A    between atoms: C_6  and  C_7
REMARK    3  A    between atoms: C_7  and  C_8
REMARK    4  A    between atoms: C_7  and  N_9
REMARK    5  A    between atoms: N_9  and  C_10
REMARK    6  A    between atoms: C_14  and  C_15
REMARK    7  A    between atoms: C_15  and  O_16
REMARK                            x       y       z     vdW  Elec       q    Type
REMARK                         _______ _______ _______ _____ _____    ______ ____
ROOT
ATOM      1  N   UNL     1       3.235   4.901  18.069  0.00  0.00    +0.000 NA
ATOM      2  H   UNL     1       3.485   4.083  17.497  0.00  0.00    +0.000 HD
ENDROOT
BRANCH   1   3
ATOM      3  C   UNL     1       3.047   4.411  19.439  0.00  0.00    +0.000 C 
ATOM      4  C   UNL     1       1.780   4.884  20.150  0.00  0.00    +0.000 C 
ATOM      5  C   UNL     1       1.617   3.918  21.306  0.00  0.00    +0.000 C 
ATOM      6  C   UNL     1       2.161   2.584  20.802  0.00  0.00    +0.000 C 
ATOM      7  C   UNL     1       2.825   2.878  19.449  0.00  0.00    +0.000 C 
BRANCH   7   8
ATOM      8  C   UNL     1       4.087   2.050  19.234  0.00  0.00    +0.000 C 
BRANCH   8   9
ATOM      9  O   UNL     1       5.250   2.861  19.341  0.00  0.00    +0.000 OA
ATOM     10  H   UNL     1       5.621   2.940  18.443  0.00  0.00    +0.000 HD
ENDBRANCH   8   9
ENDBRANCH   7   8
ENDBRANCH   1   3
BRANCH   1  11
ATOM     11  C   UNL     1       4.290   5.915  17.847  0.00  0.00    +0.000 C 
ATOM     12  C   UNL     1       3.687   7.302  17.588  0.00  0.00    +0.000 C 
BRANCH  11  18
ATOM     13  C   UNL     1       7.289   7.021  17.565  0.00  0.00    +0.000 C 
ATOM     14  C   UNL     1       6.680   5.924  16.751  0.00  0.00    +0.000 A 
ATOM     15  C   UNL     1       7.421   5.170  15.781  0.00  0.00    +0.000 A 
ATOM     16  C   UNL     1       6.658   4.218  15.150  0.00  0.00    +0.000 A 
ATOM     17  S   UNL     1       5.045   4.244  15.684  0.00  0.00    +0.000 S 
ATOM     18  C   UNL     1       5.366   5.463  16.863  0.00  0.00    +0.000 A 
ENDBRANCH  11  18
ENDBRANCH   1  11
TORSDOF 5
ENDMDL
