MODEL 1
REMARK VINA RESULT:      -7.9      0.000      0.000
REMARK  Name = 
REMARK  6 active torsions:
REMARK  status: ('A' for Active; 'I' for Inactive)
REMARK    1  A    between atoms: C_1  and  C_2
REMARK    2  A    between atoms: C_2  and  N_3
REMARK    3  A    between atoms: C_2  and  C_16
REMARK    4  A    between atoms: C_4  and  C_6
REMARK    5  A    between atoms: C_6  and  S_7
REMARK    6  A    between atoms: S_7  and  C_10
REMARK                            x       y       z     vdW  Elec       q    Type
REMARK                         _______ _______ _______ _____ _____    ______ ____
ROOT
ATOM      1  N   UNL     1       4.277   6.198  17.904  0.00  0.00    +0.000 N 
ATOM      2  C   UNL     1       5.039   6.588  16.827  0.00  0.00    +0.000 C 
ATOM      3  O   UNL     1       4.554   7.068  15.804  0.00  0.00    +0.000 OA
ATOM      4  H   UNL     1       4.724   5.795  18.722  0.00  0.00    +0.000 HD
ENDROOT
BRANCH   1   6
ATOM      5  C   UNL     1       2.540   7.735  18.722  0.00  0.00    +0.000 C 
ATOM      6  C   UNL     1       2.840   6.430  17.979  0.00  0.00    +0.000 C 
BRANCH   6   7
ATOM      7  C   UNL     1       2.160   5.235  18.624  0.00  0.00    +0.000 A 
ATOM      8  C   UNL     1       1.803   4.128  17.836  0.00  0.00    +0.000 A 
ATOM      9  C   UNL     1       1.181   3.017  18.409  0.00  0.00    +0.000 A 
ATOM     10  C   UNL     1       0.914   2.994  19.776  0.00  0.00    +0.000 A 
ATOM     11  C   UNL     1       1.271   4.080  20.572  0.00  0.00    +0.000 A 
ATOM     12  C   UNL     1       1.889   5.194  20.001  0.00  0.00    +0.000 A 
ENDBRANCH   6   7
ENDBRANCH   1   6
BRANCH   2  13
ATOM     13  C   UNL     1       6.511   6.303  16.923  0.00  0.00    +0.000 C 
BRANCH  13  14
ATOM     14  S   UNL     1       6.800   4.602  16.551  0.00  0.00    +0.000 S 
ATOM     15  O   UNL     1       8.112   4.216  17.038  0.00  0.00    +0.000 OA
ATOM     16  O   UNL     1       5.617   3.859  16.947  0.00  0.00    +0.000 OA
BRANCH  14  17
ATOM     17  C   UNL     1       6.875   4.545  14.770  0.00  0.00    +0.000 A 
ATOM     18  C   UNL     1       7.775   5.362  14.077  0.00  0.00    +0.000 A 
ATOM     19  C   UNL     1       7.840   5.281  12.683  0.00  0.00    +0.000 A 
ATOM     20  C   UNL     1       7.026   4.381  11.993  0.00  0.00    +0.000 A 
ATOM     21  C   UNL     1       6.155   3.546  12.693  0.00  0.00    +0.000 A 
ATOM     22  C   UNL     1       6.083   3.619  14.086  0.00  0.00    +0.000 A 
ENDBRANCH  14  17
ENDBRANCH  13  14
ENDBRANCH   2  13
TORSDOF 5
ENDMDL
MODEL 2
REMARK VINA RESULT:      -7.9      0.080      1.494
REMARK  Name = 
REMARK  6 active torsions:
REMARK  status: ('A' for Active; 'I' for Inactive)
REMARK    1  A    between atoms: C_1  and  C_2
REMARK    2  A    between atoms: C_2  and  N_3
REMARK    3  A    between atoms: C_2  and  C_16
REMARK    4  A    between atoms: C_4  and  C_6
REMARK    5  A    between atoms: C_6  and  S_7
REMARK    6  A    between atoms: S_7  and  C_10
REMARK                            x       y       z     vdW  Elec       q    Type
REMARK                         _______ _______ _______ _____ _____    ______ ____
ROOT
ATOM      1  N   UNL     1       4.284   6.174  17.824  0.00  0.00    +0.000 N 
ATOM      2  C   UNL     1       5.050   6.588  16.760  0.00  0.00    +0.000 C 
ATOM      3  O   UNL     1       4.569   7.083  15.742  0.00  0.00    +0.000 OA
ATOM      4  H   UNL     1       4.728   5.758  18.637  0.00  0.00    +0.000 HD
ENDROOT
BRANCH   1   6
ATOM      5  C   UNL     1       2.536   7.726  18.589  0.00  0.00    +0.000 C 
ATOM      6  C   UNL     1       2.845   6.396  17.895  0.00  0.00    +0.000 C 
BRANCH   6   7
ATOM      7  C   UNL     1       2.176   5.221  18.585  0.00  0.00    +0.000 A 
ATOM      8  C   UNL     1       1.927   5.275  19.966  0.00  0.00    +0.000 A 
ATOM      9  C   UNL     1       1.308   4.207  20.621  0.00  0.00    +0.000 A 
ATOM     10  C   UNL     1       0.926   3.076  19.903  0.00  0.00    +0.000 A 
ATOM     11  C   UNL     1       1.158   3.012  18.531  0.00  0.00    +0.000 A 
ATOM     12  C   UNL     1       1.779   4.076  17.875  0.00  0.00    +0.000 A 
ENDBRANCH   6   7
ENDBRANCH   1   6
BRANCH   2  13
ATOM     13  C   UNL     1       6.523   6.308  16.859  0.00  0.00    +0.000 C 
BRANCH  13  14
ATOM     14  S   UNL     1       6.813   4.595  16.547  0.00  0.00    +0.000 S 
ATOM     15  O   UNL     1       8.121   4.226  17.059  0.00  0.00    +0.000 OA
ATOM     16  O   UNL     1       5.626   3.868  16.959  0.00  0.00    +0.000 OA
BRANCH  14  17
ATOM     17  C   UNL     1       6.903   4.478  14.771  0.00  0.00    +0.000 A 
ATOM     18  C   UNL     1       6.045   3.616  14.078  0.00  0.00    +0.000 A 
ATOM     19  C   UNL     1       6.110   3.561  12.682  0.00  0.00    +0.000 A 
ATOM     20  C   UNL     1       7.011   4.370  11.989  0.00  0.00    +0.000 A 
ATOM     21  C   UNL     1       7.840   5.250  12.684  0.00  0.00    +0.000 A 
ATOM     22  C   UNL     1       7.783   5.313  14.077  0.00  0.00    +0.000 A 
ENDBRANCH  14  17
ENDBRANCH  13  14
ENDBRANCH   2  13
TORSDOF 5
ENDMDL
MODEL 3
REMARK VINA RESULT:      -7.9      0.116      1.064
REMARK  Name = 
REMARK  6 active torsions:
REMARK  status: ('A' for Active; 'I' for Inactive)
REMARK    1  A    between atoms: C_1  and  C_2
REMARK    2  A    between atoms: C_2  and  N_3
REMARK    3  A    between atoms: C_2  and  C_16
REMARK    4  A    between atoms: C_4  and  C_6
REMARK    5  A    between atoms: C_6  and  S_7
REMARK    6  A    between atoms: S_7  and  C_10
REMARK                            x       y       z     vdW  Elec       q    Type
REMARK                         _______ _______ _______ _____ _____    ______ ____
ROOT
ATOM      1  N   UNL     1       4.253   6.180  17.843  0.00  0.00    +0.000 N 
ATOM      2  C   UNL     1       5.030   6.591  16.785  0.00  0.00    +0.000 C 
ATOM      3  O   UNL     1       4.560   7.082  15.761  0.00  0.00    +0.000 OA
ATOM      4  H   UNL     1       4.688   5.769  18.662  0.00  0.00    +0.000 HD
ENDROOT
BRANCH   1   6
ATOM      5  C   UNL     1       2.496   7.759  18.530  0.00  0.00    +0.000 C 
ATOM      6  C   UNL     1       2.812   6.401  17.896  0.00  0.00    +0.000 C 
BRANCH   6   7
ATOM      7  C   UNL     1       2.144   5.255  18.634  0.00  0.00    +0.000 A 
ATOM      8  C   UNL     1       1.664   4.149  17.914  0.00  0.00    +0.000 A 
ATOM      9  C   UNL     1       1.050   3.082  18.574  0.00  0.00    +0.000 A 
ATOM     10  C   UNL     1       0.914   3.103  19.960  0.00  0.00    +0.000 A 
ATOM     11  C   UNL     1       1.394   4.190  20.688  0.00  0.00    +0.000 A 
ATOM     12  C   UNL     1       2.004   5.259  20.032  0.00  0.00    +0.000 A 
ENDBRANCH   6   7
ENDBRANCH   1   6
BRANCH   2  13
ATOM     13  C   UNL     1       6.503   6.315  16.903  0.00  0.00    +0.000 C 
BRANCH  13  14
ATOM     14  S   UNL     1       6.799   4.601  16.599  0.00  0.00    +0.000 S 
ATOM     15  O   UNL     1       8.109   4.240  17.108  0.00  0.00    +0.000 OA
ATOM     16  O   UNL     1       5.616   3.871  17.017  0.00  0.00    +0.000 OA
BRANCH  14  17
ATOM     17  C   UNL     1       6.884   4.475  14.822  0.00  0.00    +0.000 A 
ATOM     18  C   UNL     1       6.032   3.602  14.136  0.00  0.00    +0.000 A 
ATOM     19  C   UNL     1       6.093   3.539  12.741  0.00  0.00    +0.000 A 
ATOM     20  C   UNL     1       6.984   4.354  12.041  0.00  0.00    +0.000 A 
ATOM     21  C   UNL     1       7.807   5.246  12.728  0.00  0.00    +0.000 A 
ATOM     22  C   UNL     1       7.753   5.315  14.122  0.00  0.00    +0.000 A 
ENDBRANCH  14  17
ENDBRANCH  13  14
ENDBRANCH   2  13
TORSDOF 5
ENDMDL
MODEL 4
REMARK VINA RESULT:      -7.6      1.208      2.261
REMARK  Name = 
REMARK  6 active torsions:
REMARK  status: ('A' for Active; 'I' for Inactive)
REMARK    1  A    between atoms: C_1  and  C_2
REMARK    2  A    between atoms: C_2  and  N_3
REMARK    3  A    between atoms: C_2  and  C_16
REMARK    4  A    between atoms: C_4  and  C_6
REMARK    5  A    between atoms: C_6  and  S_7
REMARK    6  A    between atoms: S_7  and  C_10
REMARK                            x       y       z     vdW  Elec       q    Type
REMARK                         _______ _______ _______ _____ _____    ______ ____
ROOT
ATOM      1  N   UNL     1       3.979   5.486  17.873  0.00  0.00    +0.000 N 
ATOM      2  C   UNL     1       4.415   4.427  17.110  0.00  0.00    +0.000 C 
ATOM      3  O   UNL     1       3.666   3.535  16.715  0.00  0.00    +0.000 OA
ATOM      4  H   UNL     1       4.639   6.191  18.186  0.00  0.00    +0.000 HD
ENDROOT
BRANCH   1   6
ATOM      5  C   UNL     1       2.340   7.157  18.628  0.00  0.00    +0.000 C 
ATOM      6  C   UNL     1       2.571   5.711  18.179  0.00  0.00    +0.000 C 
BRANCH   6   7
ATOM      7  C   UNL     1       2.104   4.708  19.218  0.00  0.00    +0.000 A 
ATOM      8  C   UNL     1       2.569   4.806  20.540  0.00  0.00    +0.000 A 
ATOM      9  C   UNL     1       2.148   3.896  21.512  0.00  0.00    +0.000 A 
ATOM     10  C   UNL     1       1.254   2.882  21.179  0.00  0.00    +0.000 A 
ATOM     11  C   UNL     1       0.777   2.777  19.874  0.00  0.00    +0.000 A 
ATOM     12  C   UNL     1       1.199   3.683  18.899  0.00  0.00    +0.000 A 
ENDBRANCH   6   7
ENDBRANCH   1   6
BRANCH   2  13
ATOM     13  C   UNL     1       5.895   4.358  16.862  0.00  0.00    +0.000 C 
BRANCH  13  14
ATOM     14  S   UNL     1       6.363   5.664  15.771  0.00  0.00    +0.000 S 
ATOM     15  O   UNL     1       5.258   6.594  15.628  0.00  0.00    +0.000 OA
ATOM     16  O   UNL     1       7.674   6.132  16.184  0.00  0.00    +0.000 OA
BRANCH  14  17
ATOM     17  C   UNL     1       6.574   4.867  14.190  0.00  0.00    +0.000 A 
ATOM     18  C   UNL     1       5.686   3.864  13.784  0.00  0.00    +0.000 A 
ATOM     19  C   UNL     1       5.849   3.272  12.528  0.00  0.00    +0.000 A 
ATOM     20  C   UNL     1       6.877   3.691  11.683  0.00  0.00    +0.000 A 
ATOM     21  C   UNL     1       7.738   4.714  12.081  0.00  0.00    +0.000 A 
ATOM     22  C   UNL     1       7.583   5.311  13.333  0.00  0.00    +0.000 A 
ENDBRANCH  14  17
ENDBRANCH  13  14
ENDBRANCH   2  13
TORSDOF 5
ENDMDL
MODEL 5
REMARK VINA RESULT:      -7.6      1.212      2.044
REMARK  Name = 
REMARK  6 active torsions:
REMARK  status: ('A' for Active; 'I' for Inactive)
REMARK    1  A    between atoms: C_1  and  C_2
REMARK    2  A    between atoms: C_2  and  N_3
REMARK    3  A    between atoms: C_2  and  C_16
REMARK    4  A    between atoms: C_4  and  C_6
REMARK    5  A    between atoms: C_6  and  S_7
REMARK    6  A    between atoms: S_7  and  C_10
REMARK                            x       y       z     vdW  Elec       q    Type
REMARK                         _______ _______ _______ _____ _____    ______ ____
ROOT
ATOM      1  N   UNL     1       4.004   5.547  17.931  0.00  0.00    +0.000 N 
ATOM      2  C   UNL     1       4.428   4.501  17.145  0.00  0.00    +0.000 C 
ATOM      3  O   UNL     1       3.671   3.621  16.738  0.00  0.00    +0.000 OA
ATOM      4  H   UNL     1       4.670   6.242  18.253  0.00  0.00    +0.000 HD
ENDROOT
BRANCH   1   6
ATOM      5  C   UNL     1       2.378   7.217  18.718  0.00  0.00    +0.000 C 
ATOM      6  C   UNL     1       2.600   5.775  18.252  0.00  0.00    +0.000 C 
BRANCH   6   7
ATOM      7  C   UNL     1       2.137   4.762  19.284  0.00  0.00    +0.000 A 
ATOM      8  C   UNL     1       1.196   3.783  18.925  0.00  0.00    +0.000 A 
ATOM      9  C   UNL     1       0.761   2.839  19.857  0.00  0.00    +0.000 A 
ATOM     10  C   UNL     1       1.264   2.856  21.156  0.00  0.00    +0.000 A 
ATOM     11  C   UNL     1       2.205   3.815  21.523  0.00  0.00    +0.000 A 
ATOM     12  C   UNL     1       2.640   4.763  20.595  0.00  0.00    +0.000 A 
ENDBRANCH   6   7
ENDBRANCH   1   6
BRANCH   2  13
ATOM     13  C   UNL     1       5.906   4.428  16.885  0.00  0.00    +0.000 C 
BRANCH  13  14
ATOM     14  S   UNL     1       6.359   5.698  15.746  0.00  0.00    +0.000 S 
ATOM     15  O   UNL     1       5.259   6.634  15.602  0.00  0.00    +0.000 OA
ATOM     16  O   UNL     1       7.683   6.167  16.115  0.00  0.00    +0.000 OA
BRANCH  14  17
ATOM     17  C   UNL     1       6.526   4.854  14.184  0.00  0.00    +0.000 A 
ATOM     18  C   UNL     1       5.593   3.881  13.808  0.00  0.00    +0.000 A 
ATOM     19  C   UNL     1       5.723   3.251  12.566  0.00  0.00    +0.000 A 
ATOM     20  C   UNL     1       6.763   3.605  11.706  0.00  0.00    +0.000 A 
ATOM     21  C   UNL     1       7.670   4.600  12.074  0.00  0.00    +0.000 A 
ATOM     22  C   UNL     1       7.548   5.234  13.312  0.00  0.00    +0.000 A 
ENDBRANCH  14  17
ENDBRANCH  13  14
ENDBRANCH   2  13
TORSDOF 5
ENDMDL
MODEL 6
REMARK VINA RESULT:      -7.6      1.211      1.748
REMARK  Name = 
REMARK  6 active torsions:
REMARK  status: ('A' for Active; 'I' for Inactive)
REMARK    1  A    between atoms: C_1  and  C_2
REMARK    2  A    between atoms: C_2  and  N_3
REMARK    3  A    between atoms: C_2  and  C_16
REMARK    4  A    between atoms: C_4  and  C_6
REMARK    5  A    between atoms: C_6  and  S_7
REMARK    6  A    between atoms: S_7  and  C_10
REMARK                            x       y       z     vdW  Elec       q    Type
REMARK                         _______ _______ _______ _____ _____    ______ ____
ROOT
ATOM      1  N   UNL     1       3.997   5.544  17.973  0.00  0.00    +0.000 N 
ATOM      2  C   UNL     1       4.403   4.510  17.162  0.00  0.00    +0.000 C 
ATOM      3  O   UNL     1       3.632   3.652  16.736  0.00  0.00    +0.000 OA
ATOM      4  H   UNL     1       4.675   6.220  18.310  0.00  0.00    +0.000 HD
ENDROOT
BRANCH   1   6
ATOM      5  C   UNL     1       2.398   7.223  18.794  0.00  0.00    +0.000 C 
ATOM      6  C   UNL     1       2.597   5.786  18.302  0.00  0.00    +0.000 C 
BRANCH   6   7
ATOM      7  C   UNL     1       2.123   4.762  19.317  0.00  0.00    +0.000 A 
ATOM      8  C   UNL     1       1.201   3.775  18.931  0.00  0.00    +0.000 A 
ATOM      9  C   UNL     1       0.755   2.820  19.848  0.00  0.00    +0.000 A 
ATOM     10  C   UNL     1       1.229   2.835  21.158  0.00  0.00    +0.000 A 
ATOM     11  C   UNL     1       2.151   3.802  21.552  0.00  0.00    +0.000 A 
ATOM     12  C   UNL     1       2.596   4.760  20.639  0.00  0.00    +0.000 A 
ENDBRANCH   6   7
ENDBRANCH   1   6
BRANCH   2  13
ATOM     13  C   UNL     1       5.880   4.420  16.898  0.00  0.00    +0.000 C 
BRANCH  13  14
ATOM     14  S   UNL     1       6.359   5.733  15.820  0.00  0.00    +0.000 S 
ATOM     15  O   UNL     1       5.271   6.688  15.708  0.00  0.00    +0.000 OA
ATOM     16  O   UNL     1       7.685   6.168  16.220  0.00  0.00    +0.000 OA
BRANCH  14  17
ATOM     17  C   UNL     1       6.528   4.956  14.224  0.00  0.00    +0.000 A 
ATOM     18  C   UNL     1       7.584   5.312  13.376  0.00  0.00    +0.000 A 
ATOM     19  C   UNL     1       7.717   4.669  12.142  0.00  0.00    +0.000 A 
ATOM     20  C   UNL     1       6.815   3.672  11.768  0.00  0.00    +0.000 A 
ATOM     21  C   UNL     1       5.785   3.300  12.632  0.00  0.00    +0.000 A 
ATOM     22  C   UNL     1       5.644   3.936  13.867  0.00  0.00    +0.000 A 
ENDBRANCH  14  17
ENDBRANCH  13  14
ENDBRANCH   2  13
TORSDOF 5
ENDMDL
MODEL 7
REMARK VINA RESULT:      -7.5      1.489      3.222
REMARK  Name = 
REMARK  6 active torsions:
REMARK  status: ('A' for Active; 'I' for Inactive)
REMARK    1  A    between atoms: C_1  and  C_2
REMARK    2  A    between atoms: C_2  and  N_3
REMARK    3  A    between atoms: C_2  and  C_16
REMARK    4  A    between atoms: C_4  and  C_6
REMARK    5  A    between atoms: C_6  and  S_7
REMARK    6  A    between atoms: S_7  and  C_10
REMARK                            x       y       z     vdW  Elec       q    Type
REMARK                         _______ _______ _______ _____ _____    ______ ____
ROOT
ATOM      1  N   UNL     1       3.780   5.204  18.277  0.00  0.00    +0.000 N 
ATOM      2  C   UNL     1       4.911   4.422  18.252  0.00  0.00    +0.000 C 
ATOM      3  O   UNL     1       5.552   4.142  19.264  0.00  0.00    +0.000 OA
ATOM      4  H   UNL     1       3.293   5.419  17.412  0.00  0.00    +0.000 HD
ENDROOT
BRANCH   1   6
ATOM      5  C   UNL     1       2.200   4.623  20.070  0.00  0.00    +0.000 C 
ATOM      6  C   UNL     1       3.169   5.671  19.516  0.00  0.00    +0.000 C 
BRANCH   6   7
ATOM      7  C   UNL     1       2.493   7.010  19.283  0.00  0.00    +0.000 A 
ATOM      8  C   UNL     1       2.465   7.560  17.991  0.00  0.00    +0.000 A 
ATOM      9  C   UNL     1       1.843   8.789  17.754  0.00  0.00    +0.000 A 
ATOM     10  C   UNL     1       1.237   9.478  18.801  0.00  0.00    +0.000 A 
ATOM     11  C   UNL     1       1.248   8.940  20.086  0.00  0.00    +0.000 A 
ATOM     12  C   UNL     1       1.872   7.714  20.327  0.00  0.00    +0.000 A 
ENDBRANCH   6   7
ENDBRANCH   1   6
BRANCH   2  13
ATOM     13  C   UNL     1       5.392   4.000  16.893  0.00  0.00    +0.000 C 
BRANCH  13  14
ATOM     14  S   UNL     1       6.360   5.298  16.190  0.00  0.00    +0.000 S 
ATOM     15  O   UNL     1       5.574   6.517  16.143  0.00  0.00    +0.000 OA
ATOM     16  O   UNL     1       7.657   5.280  16.842  0.00  0.00    +0.000 OA
BRANCH  14  17
ATOM     17  C   UNL     1       6.623   4.789  14.501  0.00  0.00    +0.000 A 
ATOM     18  C   UNL     1       5.763   3.861  13.903  0.00  0.00    +0.000 A 
ATOM     19  C   UNL     1       5.967   3.498  12.569  0.00  0.00    +0.000 A 
ATOM     20  C   UNL     1       7.009   4.069  11.838  0.00  0.00    +0.000 A 
ATOM     21  C   UNL     1       7.842   5.019  12.430  0.00  0.00    +0.000 A 
ATOM     22  C   UNL     1       7.646   5.388  13.762  0.00  0.00    +0.000 A 
ENDBRANCH  14  17
ENDBRANCH  13  14
ENDBRANCH   2  13
TORSDOF 5
ENDMDL
MODEL 8
REMARK VINA RESULT:      -7.3      0.591      1.201
REMARK  Name = 
REMARK  6 active torsions:
REMARK  status: ('A' for Active; 'I' for Inactive)
REMARK    1  A    between atoms: C_1  and  C_2
REMARK    2  A    between atoms: C_2  and  N_3
REMARK    3  A    between atoms: C_2  and  C_16
REMARK    4  A    between atoms: C_4  and  C_6
REMARK    5  A    between atoms: C_6  and  S_7
REMARK    6  A    between atoms: S_7  and  C_10
REMARK                            x       y       z     vdW  Elec       q    Type
REMARK                         _______ _______ _______ _____ _____    ______ ____
ROOT
ATOM      1  N   UNL     1       4.111   6.162  18.509  0.00  0.00    +0.000 N 
ATOM      2  C   UNL     1       4.774   6.593  17.383  0.00  0.00    +0.000 C 
ATOM      3  O   UNL     1       4.193   7.036  16.394  0.00  0.00    +0.000 OA
ATOM      4  H   UNL     1       4.634   5.791  19.295  0.00  0.00    +0.000 HD
ENDROOT
BRANCH   1   6
ATOM      5  C   UNL     1       2.352   7.411  19.691  0.00  0.00    +0.000 C 
ATOM      6  C   UNL     1       2.670   6.306  18.680  0.00  0.00    +0.000 C 
BRANCH   6   7
ATOM      7  C   UNL     1       2.064   4.972  19.080  0.00  0.00    +0.000 A 
ATOM      8  C   UNL     1       1.824   4.696  20.436  0.00  0.00    +0.000 A 
ATOM      9  C   UNL     1       1.264   3.477  20.825  0.00  0.00    +0.000 A 
ATOM     10  C   UNL     1       0.930   2.524  19.866  0.00  0.00    +0.000 A 
ATOM     11  C   UNL     1       1.153   2.788  18.517  0.00  0.00    +0.000 A 
ATOM     12  C   UNL     1       1.717   4.004  18.124  0.00  0.00    +0.000 A 
ENDBRANCH   6   7
ENDBRANCH   1   6
BRANCH   2  13
ATOM     13  C   UNL     1       6.264   6.398  17.381  0.00  0.00    +0.000 C 
BRANCH  13  14
ATOM     14  S   UNL     1       6.629   4.704  17.050  0.00  0.00    +0.000 S 
ATOM     15  O   UNL     1       7.955   4.389  17.550  0.00  0.00    +0.000 OA
ATOM     16  O   UNL     1       5.479   3.918  17.461  0.00  0.00    +0.000 OA
BRANCH  14  17
ATOM     17  C   UNL     1       6.713   4.607  15.271  0.00  0.00    +0.000 A 
ATOM     18  C   UNL     1       7.687   5.329  14.572  0.00  0.00    +0.000 A 
ATOM     19  C   UNL     1       7.757   5.217  13.181  0.00  0.00    +0.000 A 
ATOM     20  C   UNL     1       6.873   4.380  12.500  0.00  0.00    +0.000 A 
ATOM     21  C   UNL     1       5.926   3.637  13.206  0.00  0.00    +0.000 A 
ATOM     22  C   UNL     1       5.849   3.743  14.596  0.00  0.00    +0.000 A 
ENDBRANCH  14  17
ENDBRANCH  13  14
ENDBRANCH   2  13
TORSDOF 5
ENDMDL
MODEL 9
REMARK VINA RESULT:      -7.3      2.144      6.738
REMARK  Name = 
REMARK  6 active torsions:
REMARK  status: ('A' for Active; 'I' for Inactive)
REMARK    1  A    between atoms: C_1  and  C_2
REMARK    2  A    between atoms: C_2  and  N_3
REMARK    3  A    between atoms: C_2  and  C_16
REMARK    4  A    between atoms: C_4  and  C_6
REMARK    5  A    between atoms: C_6  and  S_7
REMARK    6  A    between atoms: S_7  and  C_10
REMARK                            x       y       z     vdW  Elec       q    Type
REMARK                         _______ _______ _______ _____ _____    ______ ____
ROOT
ATOM      1  N   UNL     1       5.186   3.878  16.884  0.00  0.00    +0.000 N 
ATOM      2  C   UNL     1       5.000   3.664  18.230  0.00  0.00    +0.000 C 
ATOM      3  O   UNL     1       5.702   4.186  19.094  0.00  0.00    +0.000 OA
ATOM      4  H   UNL     1       4.588   3.414  16.209  0.00  0.00    +0.000 HD
ENDROOT
BRANCH   1   6
ATOM      5  C   UNL     1       5.688   6.273  16.629  0.00  0.00    +0.000 C 
ATOM      6  C   UNL     1       6.153   4.838  16.364  0.00  0.00    +0.000 C 
BRANCH   6   7
ATOM      7  C   UNL     1       6.394   4.576  14.889  0.00  0.00    +0.000 A 
ATOM      8  C   UNL     1       7.465   5.209  14.235  0.00  0.00    +0.000 A 
ATOM      9  C   UNL     1       7.707   4.978  12.879  0.00  0.00    +0.000 A 
ATOM     10  C   UNL     1       6.888   4.110  12.161  0.00  0.00    +0.000 A 
ATOM     11  C   UNL     1       5.829   3.469  12.798  0.00  0.00    +0.000 A 
ATOM     12  C   UNL     1       5.581   3.699  14.152  0.00  0.00    +0.000 A 
ENDBRANCH   6   7
ENDBRANCH   1   6
BRANCH   2  13
ATOM     13  C   UNL     1       3.940   2.664  18.598  0.00  0.00    +0.000 C 
BRANCH  13  14
ATOM     14  S   UNL     1       2.363   3.276  18.095  0.00  0.00    +0.000 S 
ATOM     15  O   UNL     1       2.353   3.460  16.655  0.00  0.00    +0.000 OA
ATOM     16  O   UNL     1       1.350   2.463  18.743  0.00  0.00    +0.000 OA
BRANCH  14  17
ATOM     17  C   UNL     1       2.266   4.901  18.823  0.00  0.00    +0.000 A 
ATOM     18  C   UNL     1       2.471   6.039  18.034  0.00  0.00    +0.000 A 
ATOM     19  C   UNL     1       2.361   7.305  18.617  0.00  0.00    +0.000 A 
ATOM     20  C   UNL     1       2.032   7.430  19.967  0.00  0.00    +0.000 A 
ATOM     21  C   UNL     1       1.796   6.292  20.739  0.00  0.00    +0.000 A 
ATOM     22  C   UNL     1       1.904   5.024  20.167  0.00  0.00    +0.000 A 
ENDBRANCH  14  17
ENDBRANCH  13  14
ENDBRANCH   2  13
TORSDOF 5
ENDMDL
