MODEL 1
REMARK VINA RESULT:      -6.5      0.000      0.000
REMARK  Name = 
REMARK  4 active torsions:
REMARK  status: ('A' for Active; 'I' for Inactive)
REMARK    1  A    between atoms: N_8  and  C_9
REMARK    2  A    between atoms: C_9  and  C_10
REMARK    3  A    between atoms: N_12  and  C_13
REMARK    4  A    between atoms: C_13  and  C_14
REMARK                            x       y       z     vdW  Elec       q    Type
REMARK                         _______ _______ _______ _____ _____    ______ ____
ROOT
ATOM      1  C   UNL     1       5.667   4.541  17.317  0.00  0.00    +0.000 C 
ENDROOT
BRANCH   1   9
ATOM      2  O   UNL     1       3.673   2.491  17.372  0.00  0.00    +0.000 OA
ATOM      3  N   UNL     1       2.781   3.304  17.651  0.00  0.00    +0.000 N 
ATOM      4  O   UNL     1       1.601   3.007  17.878  0.00  0.00    +0.000 OA
ATOM      5  C   UNL     1       3.141   4.698  17.723  0.00  0.00    +0.000 A 
ATOM      6  N   UNL     1       2.258   5.641  17.999  0.00  0.00    +0.000 NA
ATOM      7  C   UNL     1       2.964   6.812  17.999  0.00  0.00    +0.000 A 
ATOM      8  C   UNL     1       4.290   6.579  17.722  0.00  0.00    +0.000 A 
ATOM      9  N   UNL     1       4.399   5.215  17.539  0.00  0.00    +0.000 N 
ENDBRANCH   1   9
BRANCH   1  10
ATOM     10  C   UNL     1       6.155   4.713  15.929  0.00  0.00    +0.000 A 
ATOM     11  C   UNL     1       5.703   4.159  14.749  0.00  0.00    +0.000 A 
ATOM     12  N   UNL     1       6.654   4.508  13.838  0.00  0.00    +0.000 N 
ATOM     13  N   UNL     1       7.577   5.319  14.379  0.00  0.00    +0.000 NA
ATOM     14  N   UNL     1       7.289   5.442  15.667  0.00  0.00    +0.000 NA
BRANCH  12  15
ATOM     15  C   UNL     1       6.801   4.031  12.480  0.00  0.00    +0.000 C 
BRANCH  15  16
ATOM     16  C   UNL     1       5.735   2.999  12.158  0.00  0.00    +0.000 C 
ATOM     17  F   UNL     1       4.701   3.607  11.512  0.00  0.00    +0.000 F 
ENDBRANCH  15  16
ENDBRANCH  12  15
ENDBRANCH   1  10
TORSDOF 4
ENDMDL
MODEL 2
REMARK VINA RESULT:      -6.5      1.961      2.777
REMARK  Name = 
REMARK  4 active torsions:
REMARK  status: ('A' for Active; 'I' for Inactive)
REMARK    1  A    between atoms: N_8  and  C_9
REMARK    2  A    between atoms: C_9  and  C_10
REMARK    3  A    between atoms: N_12  and  C_13
REMARK    4  A    between atoms: C_13  and  C_14
REMARK                            x       y       z     vdW  Elec       q    Type
REMARK                         _______ _______ _______ _____ _____    ______ ____
ROOT
ATOM      1  C   UNL     1       4.962   4.798  19.128  0.00  0.00    +0.000 C 
ENDROOT
BRANCH   1   9
ATOM      2  O   UNL     1       2.565   5.732  17.875  0.00  0.00    +0.000 OA
ATOM      3  N   UNL     1       2.084   4.591  17.844  0.00  0.00    +0.000 N 
ATOM      4  O   UNL     1       0.997   4.298  17.330  0.00  0.00    +0.000 OA
ATOM      5  C   UNL     1       2.845   3.524  18.444  0.00  0.00    +0.000 A 
ATOM      6  N   UNL     1       2.409   2.277  18.473  0.00  0.00    +0.000 NA
ATOM      7  C   UNL     1       3.395   1.561  19.093  0.00  0.00    +0.000 A 
ATOM      8  C   UNL     1       4.441   2.381  19.443  0.00  0.00    +0.000 A 
ATOM      9  N   UNL     1       4.081   3.646  19.028  0.00  0.00    +0.000 N 
ENDBRANCH   1   9
BRANCH   1  10
ATOM     10  C   UNL     1       5.899   4.885  17.985  0.00  0.00    +0.000 A 
ATOM     11  C   UNL     1       5.672   5.232  16.669  0.00  0.00    +0.000 A 
ATOM     12  N   UNL     1       6.845   4.934  16.044  0.00  0.00    +0.000 N 
ATOM     13  N   UNL     1       7.780   4.536  16.921  0.00  0.00    +0.000 NA
ATOM     14  N   UNL     1       7.207   4.489  18.116  0.00  0.00    +0.000 NA
BRANCH  12  15
ATOM     15  C   UNL     1       7.113   4.907  14.622  0.00  0.00    +0.000 C 
BRANCH  15  16
ATOM     16  C   UNL     1       6.332   3.790  13.953  0.00  0.00    +0.000 C 
ATOM     17  F   UNL     1       5.103   4.252  13.595  0.00  0.00    +0.000 F 
ENDBRANCH  15  16
ENDBRANCH  12  15
ENDBRANCH   1  10
TORSDOF 4
ENDMDL
MODEL 3
REMARK VINA RESULT:      -6.5      3.347      5.877
REMARK  Name = 
REMARK  4 active torsions:
REMARK  status: ('A' for Active; 'I' for Inactive)
REMARK    1  A    between atoms: N_8  and  C_9
REMARK    2  A    between atoms: C_9  and  C_10
REMARK    3  A    between atoms: N_12  and  C_13
REMARK    4  A    between atoms: C_13  and  C_14
REMARK                            x       y       z     vdW  Elec       q    Type
REMARK                         _______ _______ _______ _____ _____    ______ ____
ROOT
ATOM      1  C   UNL     1       4.534   5.739  17.412  0.00  0.00    +0.000 C 
ENDROOT
BRANCH   1   9
ATOM      2  O   UNL     1       6.786   4.880  18.954  0.00  0.00    +0.000 OA
ATOM      3  N   UNL     1       7.434   4.603  17.936  0.00  0.00    +0.000 N 
ATOM      4  O   UNL     1       8.562   4.093  17.934  0.00  0.00    +0.000 OA
ATOM      5  C   UNL     1       6.831   4.886  16.657  0.00  0.00    +0.000 A 
ATOM      6  N   UNL     1       7.449   4.639  15.516  0.00  0.00    +0.000 NA
ATOM      7  C   UNL     1       6.570   5.015  14.538  0.00  0.00    +0.000 A 
ATOM      8  C   UNL     1       5.406   5.493  15.090  0.00  0.00    +0.000 A 
ATOM      9  N   UNL     1       5.580   5.414  16.457  0.00  0.00    +0.000 N 
ENDBRANCH   1   9
BRANCH   1  10
ATOM     10  C   UNL     1       3.583   4.620  17.601  0.00  0.00    +0.000 A 
ATOM     11  C   UNL     1       2.326   4.603  18.171  0.00  0.00    +0.000 A 
ATOM     12  N   UNL     1       2.023   3.278  18.254  0.00  0.00    +0.000 N 
ATOM     13  N   UNL     1       2.968   2.521  17.674  0.00  0.00    +0.000 NA
ATOM     14  N   UNL     1       3.938   3.333  17.280  0.00  0.00    +0.000 NA
BRANCH  12  15
ATOM     15  C   UNL     1       0.915   2.661  18.953  0.00  0.00    +0.000 C 
BRANCH  15  16
ATOM     16  C   UNL     1       0.844   3.159  20.385  0.00  0.00    +0.000 C 
ATOM     17  F   UNL     1       1.869   2.618  21.101  0.00  0.00    +0.000 F 
ENDBRANCH  15  16
ENDBRANCH  12  15
ENDBRANCH   1  10
TORSDOF 4
ENDMDL
MODEL 4
REMARK VINA RESULT:      -6.4      1.961      2.350
REMARK  Name = 
REMARK  4 active torsions:
REMARK  status: ('A' for Active; 'I' for Inactive)
REMARK    1  A    between atoms: N_8  and  C_9
REMARK    2  A    between atoms: C_9  and  C_10
REMARK    3  A    between atoms: N_12  and  C_13
REMARK    4  A    between atoms: C_13  and  C_14
REMARK                            x       y       z     vdW  Elec       q    Type
REMARK                         _______ _______ _______ _____ _____    ______ ____
ROOT
ATOM      1  C   UNL     1       6.227   4.459  17.179  0.00  0.00    +0.000 C 
ENDROOT
BRANCH   1   9
ATOM      2  O   UNL     1       5.422   7.198  17.365  0.00  0.00    +0.000 OA
ATOM      3  N   UNL     1       4.235   6.885  17.525  0.00  0.00    +0.000 N 
ATOM      4  O   UNL     1       3.299   7.690  17.619  0.00  0.00    +0.000 OA
ATOM      5  C   UNL     1       3.915   5.481  17.600  0.00  0.00    +0.000 A 
ATOM      6  N   UNL     1       2.679   5.049  17.783  0.00  0.00    +0.000 NA
ATOM      7  C   UNL     1       2.767   3.685  17.781  0.00  0.00    +0.000 A 
ATOM      8  C   UNL     1       4.068   3.283  17.591  0.00  0.00    +0.000 A 
ATOM      9  N   UNL     1       4.806   4.444  17.481  0.00  0.00    +0.000 N 
ENDBRANCH   1   9
BRANCH   1  10
ATOM     10  C   UNL     1       6.487   4.591  15.727  0.00  0.00    +0.000 A 
ATOM     11  C   UNL     1       5.951   3.902  14.658  0.00  0.00    +0.000 A 
ATOM     12  N   UNL     1       6.709   4.301  13.598  0.00  0.00    +0.000 N 
ATOM     13  N   UNL     1       7.584   5.256  13.953  0.00  0.00    +0.000 NA
ATOM     14  N   UNL     1       7.466   5.434  15.261  0.00  0.00    +0.000 NA
BRANCH  12  15
ATOM     15  C   UNL     1       6.727   3.750  12.260  0.00  0.00    +0.000 C 
BRANCH  15  16
ATOM     16  C   UNL     1       5.392   3.107  11.931  0.00  0.00    +0.000 C 
ATOM     17  F   UNL     1       5.594   1.809  11.571  0.00  0.00    +0.000 F 
ENDBRANCH  15  16
ENDBRANCH  12  15
ENDBRANCH   1  10
TORSDOF 4
ENDMDL
MODEL 5
REMARK VINA RESULT:      -6.4      3.673      6.128
REMARK  Name = 
REMARK  4 active torsions:
REMARK  status: ('A' for Active; 'I' for Inactive)
REMARK    1  A    between atoms: N_8  and  C_9
REMARK    2  A    between atoms: C_9  and  C_10
REMARK    3  A    between atoms: N_12  and  C_13
REMARK    4  A    between atoms: C_13  and  C_14
REMARK                            x       y       z     vdW  Elec       q    Type
REMARK                         _______ _______ _______ _____ _____    ______ ____
ROOT
ATOM      1  C   UNL     1       4.947   3.679  16.700  0.00  0.00    +0.000 C 
ENDROOT
BRANCH   1   9
ATOM      2  O   UNL     1       6.404   3.898  14.248  0.00  0.00    +0.000 OA
ATOM      3  N   UNL     1       7.045   4.872  14.664  0.00  0.00    +0.000 N 
ATOM      4  O   UNL     1       7.868   5.513  13.996  0.00  0.00    +0.000 OA
ATOM      5  C   UNL     1       6.814   5.298  16.021  0.00  0.00    +0.000 A 
ATOM      6  N   UNL     1       7.460   6.318  16.559  0.00  0.00    +0.000 NA
ATOM      7  C   UNL     1       6.968   6.431  17.830  0.00  0.00    +0.000 A 
ATOM      8  C   UNL     1       6.012   5.472  18.066  0.00  0.00    +0.000 A 
ATOM      9  N   UNL     1       5.920   4.740  16.900  0.00  0.00    +0.000 N 
ENDBRANCH   1   9
BRANCH   1  10
ATOM     10  C   UNL     1       3.877   3.704  17.724  0.00  0.00    +0.000 A 
ATOM     11  C   UNL     1       3.751   2.993  18.900  0.00  0.00    +0.000 A 
ATOM     12  N   UNL     1       2.483   3.270  19.316  0.00  0.00    +0.000 N 
ATOM     13  N   UNL     1       1.894   4.178  18.521  0.00  0.00    +0.000 NA
ATOM     14  N   UNL     1       2.736   4.443  17.532  0.00  0.00    +0.000 NA
BRANCH  12  15
ATOM     15  C   UNL     1       1.740   2.640  20.386  0.00  0.00    +0.000 C 
BRANCH  15  16
ATOM     16  C   UNL     1       2.038   3.315  21.712  0.00  0.00    +0.000 C 
ATOM     17  F   UNL     1       2.423   4.601  21.486  0.00  0.00    +0.000 F 
ENDBRANCH  15  16
ENDBRANCH  12  15
ENDBRANCH   1  10
TORSDOF 4
ENDMDL
MODEL 6
REMARK VINA RESULT:      -6.3      1.406      1.406
REMARK  Name = 
REMARK  4 active torsions:
REMARK  status: ('A' for Active; 'I' for Inactive)
REMARK    1  A    between atoms: N_8  and  C_9
REMARK    2  A    between atoms: C_9  and  C_10
REMARK    3  A    between atoms: N_12  and  C_13
REMARK    4  A    between atoms: C_13  and  C_14
REMARK                            x       y       z     vdW  Elec       q    Type
REMARK                         _______ _______ _______ _____ _____    ______ ____
ROOT
ATOM      1  C   UNL     1       5.932   4.640  17.921  0.00  0.00    +0.000 C 
ENDROOT
BRANCH   1   9
ATOM      2  O   UNL     1       4.868   2.775  19.813  0.00  0.00    +0.000 OA
ATOM      3  N   UNL     1       3.816   3.420  19.924  0.00  0.00    +0.000 N 
ATOM      4  O   UNL     1       2.894   3.137  20.700  0.00  0.00    +0.000 OA
ATOM      5  C   UNL     1       3.654   4.589  19.096  0.00  0.00    +0.000 A 
ATOM      6  N   UNL     1       2.562   5.332  19.133  0.00  0.00    +0.000 NA
ATOM      7  C   UNL     1       2.781   6.344  18.240  0.00  0.00    +0.000 A 
ATOM      8  C   UNL     1       4.019   6.216  17.656  0.00  0.00    +0.000 A 
ATOM      9  N   UNL     1       4.576   5.080  18.206  0.00  0.00    +0.000 N 
ENDBRANCH   1   9
BRANCH   1  10
ATOM     10  C   UNL     1       6.280   4.796  16.490  0.00  0.00    +0.000 A 
ATOM     11  C   UNL     1       5.879   4.068  15.389  0.00  0.00    +0.000 A 
ATOM     12  N   UNL     1       6.673   4.531  14.383  0.00  0.00    +0.000 N 
ATOM     13  N   UNL     1       7.438   5.555  14.794  0.00  0.00    +0.000 NA
ATOM     14  N   UNL     1       7.215   5.720  16.091  0.00  0.00    +0.000 NA
BRANCH  12  15
ATOM     15  C   UNL     1       6.828   3.987  13.052  0.00  0.00    +0.000 C 
BRANCH  15  16
ATOM     16  C   UNL     1       5.525   3.377  12.569  0.00  0.00    +0.000 C 
ATOM     17  F   UNL     1       5.798   2.329  11.743  0.00  0.00    +0.000 F 
ENDBRANCH  15  16
ENDBRANCH  12  15
ENDBRANCH   1  10
TORSDOF 4
ENDMDL
MODEL 7
REMARK VINA RESULT:      -6.3      3.806      6.196
REMARK  Name = 
REMARK  4 active torsions:
REMARK  status: ('A' for Active; 'I' for Inactive)
REMARK    1  A    between atoms: N_8  and  C_9
REMARK    2  A    between atoms: C_9  and  C_10
REMARK    3  A    between atoms: N_12  and  C_13
REMARK    4  A    between atoms: C_13  and  C_14
REMARK                            x       y       z     vdW  Elec       q    Type
REMARK                         _______ _______ _______ _____ _____    ______ ____
ROOT
ATOM      1  C   UNL     1       4.675   4.087  16.465  0.00  0.00    +0.000 C 
ENDROOT
BRANCH   1   9
ATOM      2  O   UNL     1       6.385   4.004  14.173  0.00  0.00    +0.000 OA
ATOM      3  N   UNL     1       7.084   4.930  14.605  0.00  0.00    +0.000 N 
ATOM      4  O   UNL     1       8.035   5.441  13.998  0.00  0.00    +0.000 OA
ATOM      5  C   UNL     1       6.767   5.460  15.908  0.00  0.00    +0.000 A 
ATOM      6  N   UNL     1       7.463   6.438  16.460  0.00  0.00    +0.000 NA
ATOM      7  C   UNL     1       6.862   6.678  17.664  0.00  0.00    +0.000 A 
ATOM      8  C   UNL     1       5.788   5.840  17.845  0.00  0.00    +0.000 A 
ATOM      9  N   UNL     1       5.733   5.052  16.713  0.00  0.00    +0.000 N 
ENDBRANCH   1   9
BRANCH   1  10
ATOM     10  C   UNL     1       3.902   3.779  17.690  0.00  0.00    +0.000 A 
ATOM     11  C   UNL     1       2.702   4.289  18.140  0.00  0.00    +0.000 A 
ATOM     12  N   UNL     1       2.590   3.797  19.406  0.00  0.00    +0.000 N 
ATOM     13  N   UNL     1       3.590   2.948  19.691  0.00  0.00    +0.000 NA
ATOM     14  N   UNL     1       4.411   2.938  18.650  0.00  0.00    +0.000 NA
BRANCH  12  15
ATOM     15  C   UNL     1       1.628   4.166  20.422  0.00  0.00    +0.000 C 
BRANCH  15  16
ATOM     16  C   UNL     1       1.988   3.531  21.753  0.00  0.00    +0.000 C 
ATOM     17  F   UNL     1       1.172   2.464  21.977  0.00  0.00    +0.000 F 
ENDBRANCH  15  16
ENDBRANCH  12  15
ENDBRANCH   1  10
TORSDOF 4
ENDMDL
MODEL 8
REMARK VINA RESULT:      -6.2      3.768      6.157
REMARK  Name = 
REMARK  4 active torsions:
REMARK  status: ('A' for Active; 'I' for Inactive)
REMARK    1  A    between atoms: N_8  and  C_9
REMARK    2  A    between atoms: C_9  and  C_10
REMARK    3  A    between atoms: N_12  and  C_13
REMARK    4  A    between atoms: C_13  and  C_14
REMARK                            x       y       z     vdW  Elec       q    Type
REMARK                         _______ _______ _______ _____ _____    ______ ____
ROOT
ATOM      1  C   UNL     1       4.184   5.970  17.374  0.00  0.00    +0.000 C 
ENDROOT
BRANCH   1   9
ATOM      2  O   UNL     1       5.477   5.707  14.836  0.00  0.00    +0.000 OA
ATOM      3  N   UNL     1       6.565   5.447  15.367  0.00  0.00    +0.000 N 
ATOM      4  O   UNL     1       7.626   5.271  14.754  0.00  0.00    +0.000 OA
ATOM      5  C   UNL     1       6.605   5.350  16.805  0.00  0.00    +0.000 A 
ATOM      6  N   UNL     1       7.715   5.063  17.462  0.00  0.00    +0.000 NA
ATOM      7  C   UNL     1       7.369   5.078  18.785  0.00  0.00    +0.000 A 
ATOM      8  C   UNL     1       6.037   5.379  18.934  0.00  0.00    +0.000 A 
ATOM      9  N   UNL     1       5.545   5.548  17.655  0.00  0.00    +0.000 N 
ENDBRANCH   1   9
BRANCH   1  10
ATOM     10  C   UNL     1       3.184   4.995  17.867  0.00  0.00    +0.000 A 
ATOM     11  C   UNL     1       2.235   5.114  18.862  0.00  0.00    +0.000 A 
ATOM     12  N   UNL     1       1.756   3.848  19.011  0.00  0.00    +0.000 N 
ATOM     13  N   UNL     1       2.281   3.014  18.099  0.00  0.00    +0.000 NA
ATOM     14  N   UNL     1       3.170   3.704  17.398  0.00  0.00    +0.000 NA
BRANCH  12  15
ATOM     15  C   UNL     1       0.885   3.343  20.051  0.00  0.00    +0.000 C 
BRANCH  15  16
ATOM     16  C   UNL     1       1.698   2.733  21.178  0.00  0.00    +0.000 C 
ATOM     17  F   UNL     1       2.149   3.724  21.996  0.00  0.00    +0.000 F 
ENDBRANCH  15  16
ENDBRANCH  12  15
ENDBRANCH   1  10
TORSDOF 4
ENDMDL
MODEL 9
REMARK VINA RESULT:      -6.2      3.721      6.227
REMARK  Name = 
REMARK  4 active torsions:
REMARK  status: ('A' for Active; 'I' for Inactive)
REMARK    1  A    between atoms: N_8  and  C_9
REMARK    2  A    between atoms: C_9  and  C_10
REMARK    3  A    between atoms: N_12  and  C_13
REMARK    4  A    between atoms: C_13  and  C_14
REMARK                            x       y       z     vdW  Elec       q    Type
REMARK                         _______ _______ _______ _____ _____    ______ ____
ROOT
ATOM      1  C   UNL     1       5.066   4.038  17.220  0.00  0.00    +0.000 C 
ENDROOT
BRANCH   1   9
ATOM      2  O   UNL     1       6.218   3.854  14.607  0.00  0.00    +0.000 OA
ATOM      3  N   UNL     1       6.934   4.845  14.805  0.00  0.00    +0.000 N 
ATOM      4  O   UNL     1       7.687   5.351  13.962  0.00  0.00    +0.000 OA
ATOM      5  C   UNL     1       6.884   5.462  16.106  0.00  0.00    +0.000 A 
ATOM      6  N   UNL     1       7.620   6.514  16.417  0.00  0.00    +0.000 NA
ATOM      7  C   UNL     1       7.291   6.821  17.708  0.00  0.00    +0.000 A 
ATOM      8  C   UNL     1       6.343   5.948  18.186  0.00  0.00    +0.000 A 
ATOM      9  N   UNL     1       6.087   5.070  17.153  0.00  0.00    +0.000 N 
ENDBRANCH   1   9
BRANCH   1  10
ATOM     10  C   UNL     1       3.994   4.375  18.185  0.00  0.00    +0.000 A 
ATOM     11  C   UNL     1       3.902   4.129  19.539  0.00  0.00    +0.000 A 
ATOM     12  N   UNL     1       2.621   4.473  19.849  0.00  0.00    +0.000 N 
ATOM     13  N   UNL     1       1.987   5.004  18.791  0.00  0.00    +0.000 NA
ATOM     14  N   UNL     1       2.816   4.938  17.758  0.00  0.00    +0.000 NA
BRANCH  12  15
ATOM     15  C   UNL     1       1.910   4.233  21.086  0.00  0.00    +0.000 C 
BRANCH  15  16
ATOM     16  C   UNL     1       1.178   2.905  21.031  0.00  0.00    +0.000 C 
ATOM     17  F   UNL     1       1.741   2.042  21.922  0.00  0.00    +0.000 F 
ENDBRANCH  15  16
ENDBRANCH  12  15
ENDBRANCH   1  10
TORSDOF 4
ENDMDL
