MODEL 1
REMARK VINA RESULT:      -7.3      0.000      0.000
REMARK  Name = 
REMARK  8 active torsions:
REMARK  status: ('A' for Active; 'I' for Inactive)
REMARK    1  A    between atoms: C_1  and  C_2
REMARK    2  A    between atoms: C_2  and  O_3
REMARK    3  A    between atoms: O_3  and  C_4
REMARK    4  A    between atoms: C_7  and  N_8
REMARK    5  A    between atoms: N_8  and  C_9
REMARK    6  A    between atoms: C_15  and  C_16
REMARK    7  A    between atoms: C_16  and  O_18
REMARK    8  A    between atoms: C_19  and  C_20
REMARK                            x       y       z     vdW  Elec       q    Type
REMARK                         _______ _______ _______ _____ _____    ______ ____
ROOT
ATOM      1  C   UNL     1       2.330   5.670  19.915  0.00  0.00    +0.000 A 
ATOM      2  N   UNL     1       1.381   5.032  20.642  0.00  0.00    +0.000 NA
ATOM      3  C   UNL     1       1.124   3.741  20.411  0.00  0.00    +0.000 A 
ATOM      4  N   UNL     1       1.705   2.962  19.504  0.00  0.00    +0.000 NA
ATOM      5  C   UNL     1       2.635   3.612  18.789  0.00  0.00    +0.000 A 
ATOM      6  S   UNL     1       3.471   2.792  17.571  0.00  0.00    +0.000 S 
ATOM      7  C   UNL     1       4.390   4.176  17.146  0.00  0.00    +0.000 A 
ATOM      8  C   UNL     1       4.054   5.272  17.943  0.00  0.00    +0.000 A 
ATOM      9  C   UNL     1       4.641   6.650  17.825  0.00  0.00    +0.000 C 
ATOM     10  C   UNL     1       3.023   4.935  18.922  0.00  0.00    +0.000 A 
ENDROOT
BRANCH   1  11
ATOM     11  N   UNL     1       2.601   7.027  20.190  0.00  0.00    +0.000 N 
ATOM     12  H   UNL     1       2.934   7.125  21.142  0.00  0.00    +0.000 HD
BRANCH  11  16
ATOM     13  C   UNL     1       0.118  10.193  18.876  0.00  0.00    +0.000 A 
ATOM     14  C   UNL     1       1.022   9.592  18.000  0.00  0.00    +0.000 A 
ATOM     15  C   UNL     1       1.849   8.547  18.433  0.00  0.00    +0.000 A 
ATOM     16  C   UNL     1       1.809   8.116  19.764  0.00  0.00    +0.000 A 
ATOM     17  C   UNL     1       0.904   8.741  20.634  0.00  0.00    +0.000 A 
ATOM     18  C   UNL     1       0.077   9.780  20.203  0.00  0.00    +0.000 A 
BRANCH  13  19
ATOM     19  O   UNL     1      -0.671  11.167  18.329  0.00  0.00    +0.000 OA
BRANCH  19  21
ATOM     20  C   UNL     1      -2.600  10.027  17.524  0.00  0.00    +0.000 C 
ATOM     21  C   UNL     1      -2.076  11.022  18.543  0.00  0.00    +0.000 C 
ENDBRANCH  19  21
ENDBRANCH  13  19
ENDBRANCH  11  16
ENDBRANCH   1  11
BRANCH   7  22
ATOM     22  C   UNL     1       5.365   4.086  16.064  0.00  0.00    +0.000 C 
ATOM     23  O   UNL     1       5.138   4.262  14.874  0.00  0.00    +0.000 OA
BRANCH  22  24
ATOM     24  O   UNL     1       6.622   3.781  16.491  0.00  0.00    +0.000 OA
ATOM     25  H   UNL     1       7.308   4.156  15.908  0.00  0.00    +0.000 HD
ENDBRANCH  22  24
ENDBRANCH   7  22
TORSDOF 6
ENDMDL
MODEL 2
REMARK VINA RESULT:      -7.3      1.267      1.426
REMARK  Name = 
REMARK  8 active torsions:
REMARK  status: ('A' for Active; 'I' for Inactive)
REMARK    1  A    between atoms: C_1  and  C_2
REMARK    2  A    between atoms: C_2  and  O_3
REMARK    3  A    between atoms: O_3  and  C_4
REMARK    4  A    between atoms: C_7  and  N_8
REMARK    5  A    between atoms: N_8  and  C_9
REMARK    6  A    between atoms: C_15  and  C_16
REMARK    7  A    between atoms: C_16  and  O_18
REMARK    8  A    between atoms: C_19  and  C_20
REMARK                            x       y       z     vdW  Elec       q    Type
REMARK                         _______ _______ _______ _____ _____    ______ ____
ROOT
ATOM      1  C   UNL     1       2.729   5.183  18.895  0.00  0.00    +0.000 A 
ATOM      2  N   UNL     1       1.579   4.464  18.896  0.00  0.00    +0.000 NA
ATOM      3  C   UNL     1       1.467   3.391  18.107  0.00  0.00    +0.000 A 
ATOM      4  N   UNL     1       2.385   2.918  17.270  0.00  0.00    +0.000 NA
ATOM      5  C   UNL     1       3.510   3.646  17.277  0.00  0.00    +0.000 A 
ATOM      6  S   UNL     1       4.789   3.211  16.260  0.00  0.00    +0.000 S 
ATOM      7  C   UNL     1       5.771   4.514  16.788  0.00  0.00    +0.000 A 
ATOM      8  C   UNL     1       5.115   5.286  17.749  0.00  0.00    +0.000 A 
ATOM      9  C   UNL     1       5.669   6.518  18.404  0.00  0.00    +0.000 C 
ATOM     10  C   UNL     1       3.782   4.766  18.045  0.00  0.00    +0.000 A 
ENDROOT
BRANCH   1  11
ATOM     11  N   UNL     1       2.834   6.299  19.752  0.00  0.00    +0.000 N 
ATOM     12  H   UNL     1       2.819   5.995  20.718  0.00  0.00    +0.000 HD
BRANCH  11  16
ATOM     13  C   UNL     1       0.781   9.945  19.111  0.00  0.00    +0.000 A 
ATOM     14  C   UNL     1       1.528   9.364  18.086  0.00  0.00    +0.000 A 
ATOM     15  C   UNL     1       2.213   8.160  18.297  0.00  0.00    +0.000 A 
ATOM     16  C   UNL     1       2.191   7.541  19.551  0.00  0.00    +0.000 A 
ATOM     17  C   UNL     1       1.446   8.146  20.574  0.00  0.00    +0.000 A 
ATOM     18  C   UNL     1       0.760   9.345  20.365  0.00  0.00    +0.000 A 
BRANCH  13  19
ATOM     19  O   UNL     1       0.116  11.092  18.774  0.00  0.00    +0.000 OA
BRANCH  19  21
ATOM     20  C   UNL     1      -1.980  10.332  17.939  0.00  0.00    +0.000 C 
ATOM     21  C   UNL     1      -1.286  11.100  19.048  0.00  0.00    +0.000 C 
ENDBRANCH  19  21
ENDBRANCH  13  19
ENDBRANCH  11  16
ENDBRANCH   1  11
BRANCH   7  22
ATOM     22  C   UNL     1       7.104   4.684  16.219  0.00  0.00    +0.000 C 
ATOM     23  O   UNL     1       7.371   5.253  15.169  0.00  0.00    +0.000 OA
BRANCH  22  24
ATOM     24  O   UNL     1       8.092   4.142  16.983  0.00  0.00    +0.000 OA
ATOM     25  H   UNL     1       8.316   4.705  17.748  0.00  0.00    +0.000 HD
ENDBRANCH  22  24
ENDBRANCH   7  22
TORSDOF 6
ENDMDL
MODEL 3
REMARK VINA RESULT:      -7.2      3.709      7.510
REMARK  Name = 
REMARK  8 active torsions:
REMARK  status: ('A' for Active; 'I' for Inactive)
REMARK    1  A    between atoms: C_1  and  C_2
REMARK    2  A    between atoms: C_2  and  O_3
REMARK    3  A    between atoms: O_3  and  C_4
REMARK    4  A    between atoms: C_7  and  N_8
REMARK    5  A    between atoms: N_8  and  C_9
REMARK    6  A    between atoms: C_15  and  C_16
REMARK    7  A    between atoms: C_16  and  O_18
REMARK    8  A    between atoms: C_19  and  C_20
REMARK                            x       y       z     vdW  Elec       q    Type
REMARK                         _______ _______ _______ _____ _____    ______ ____
ROOT
ATOM      1  C   UNL     1       4.618   5.922  17.922  0.00  0.00    +0.000 A 
ATOM      2  N   UNL     1       4.367   7.148  17.401  0.00  0.00    +0.000 NA
ATOM      3  C   UNL     1       3.297   7.836  17.808  0.00  0.00    +0.000 A 
ATOM      4  N   UNL     1       2.392   7.448  18.702  0.00  0.00    +0.000 NA
ATOM      5  C   UNL     1       2.652   6.231  19.201  0.00  0.00    +0.000 A 
ATOM      6  S   UNL     1       1.601   5.557  20.340  0.00  0.00    +0.000 S 
ATOM      7  C   UNL     1       2.521   4.116  20.469  0.00  0.00    +0.000 A 
ATOM      8  C   UNL     1       3.641   4.152  19.635  0.00  0.00    +0.000 A 
ATOM      9  C   UNL     1       4.646   3.048  19.475  0.00  0.00    +0.000 C 
ATOM     10  C   UNL     1       3.723   5.408  18.892  0.00  0.00    +0.000 A 
ENDROOT
BRANCH   1  11
ATOM     11  N   UNL     1       5.766   5.222  17.495  0.00  0.00    +0.000 N 
ATOM     12  H   UNL     1       6.588   5.597  17.951  0.00  0.00    +0.000 HD
BRANCH  11  16
ATOM     13  C   UNL     1       6.438   4.078  13.475  0.00  0.00    +0.000 A 
ATOM     14  C   UNL     1       5.276   3.683  14.139  0.00  0.00    +0.000 A 
ATOM     15  C   UNL     1       5.053   4.056  15.470  0.00  0.00    +0.000 A 
ATOM     16  C   UNL     1       6.012   4.797  16.170  0.00  0.00    +0.000 A 
ATOM     17  C   UNL     1       7.180   5.174  15.492  0.00  0.00    +0.000 A 
ATOM     18  C   UNL     1       7.402   4.806  14.163  0.00  0.00    +0.000 A 
BRANCH  13  19
ATOM     19  O   UNL     1       6.523   3.698  12.164  0.00  0.00    +0.000 OA
BRANCH  19  21
ATOM     20  C   UNL     1       6.706   1.586  11.079  0.00  0.00    +0.000 C 
ATOM     21  C   UNL     1       5.771   2.537  11.804  0.00  0.00    +0.000 C 
ENDBRANCH  19  21
ENDBRANCH  13  19
ENDBRANCH  11  16
ENDBRANCH   1  11
BRANCH   7  22
ATOM     22  C   UNL     1       2.077   3.058  21.371  0.00  0.00    +0.000 C 
ATOM     23  O   UNL     1       2.779   2.450  22.167  0.00  0.00    +0.000 OA
BRANCH  22  24
ATOM     24  O   UNL     1       0.748   2.779  21.266  0.00  0.00    +0.000 OA
ATOM     25  H   UNL     1       0.340   2.606  22.136  0.00  0.00    +0.000 HD
ENDBRANCH  22  24
ENDBRANCH   7  22
TORSDOF 6
ENDMDL
MODEL 4
REMARK VINA RESULT:      -7.1      0.330      1.055
REMARK  Name = 
REMARK  8 active torsions:
REMARK  status: ('A' for Active; 'I' for Inactive)
REMARK    1  A    between atoms: C_1  and  C_2
REMARK    2  A    between atoms: C_2  and  O_3
REMARK    3  A    between atoms: O_3  and  C_4
REMARK    4  A    between atoms: C_7  and  N_8
REMARK    5  A    between atoms: N_8  and  C_9
REMARK    6  A    between atoms: C_15  and  C_16
REMARK    7  A    between atoms: C_16  and  O_18
REMARK    8  A    between atoms: C_19  and  C_20
REMARK                            x       y       z     vdW  Elec       q    Type
REMARK                         _______ _______ _______ _____ _____    ______ ____
ROOT
ATOM      1  C   UNL     1       2.309   5.560  19.882  0.00  0.00    +0.000 A 
ATOM      2  N   UNL     1       1.329   4.921  20.567  0.00  0.00    +0.000 NA
ATOM      3  C   UNL     1       1.064   3.638  20.305  0.00  0.00    +0.000 A 
ATOM      4  N   UNL     1       1.665   2.868  19.404  0.00  0.00    +0.000 NA
ATOM      5  C   UNL     1       2.626   3.517  18.732  0.00  0.00    +0.000 A 
ATOM      6  S   UNL     1       3.492   2.708  17.527  0.00  0.00    +0.000 S 
ATOM      7  C   UNL     1       4.441   4.087  17.157  0.00  0.00    +0.000 A 
ATOM      8  C   UNL     1       4.093   5.174  17.961  0.00  0.00    +0.000 A 
ATOM      9  C   UNL     1       4.700   6.545  17.886  0.00  0.00    +0.000 C 
ATOM     10  C   UNL     1       3.025   4.833  18.899  0.00  0.00    +0.000 A 
ENDROOT
BRANCH   1  11
ATOM     11  N   UNL     1       2.587   6.908  20.190  0.00  0.00    +0.000 N 
ATOM     12  H   UNL     1       2.905   6.984  21.149  0.00  0.00    +0.000 HD
BRANCH  11  16
ATOM     13  C   UNL     1       0.383  10.312  18.975  0.00  0.00    +0.000 A 
ATOM     14  C   UNL     1       0.283   9.832  20.281  0.00  0.00    +0.000 A 
ATOM     15  C   UNL     1       1.007   8.703  20.685  0.00  0.00    +0.000 A 
ATOM     16  C   UNL     1       1.813   8.013  19.773  0.00  0.00    +0.000 A 
ATOM     17  C   UNL     1       1.892   8.501  18.461  0.00  0.00    +0.000 A 
ATOM     18  C   UNL     1       1.173   9.629  18.057  0.00  0.00    +0.000 A 
BRANCH  13  19
ATOM     19  O   UNL     1      -0.330  11.448  18.711  0.00  0.00    +0.000 OA
BRANCH  19  21
ATOM     20  C   UNL     1      -2.354  11.171  17.488  0.00  0.00    +0.000 C 
ATOM     21  C   UNL     1      -1.746  11.343  18.868  0.00  0.00    +0.000 C 
ENDBRANCH  19  21
ENDBRANCH  13  19
ENDBRANCH  11  16
ENDBRANCH   1  11
BRANCH   7  22
ATOM     22  C   UNL     1       5.451   4.003  16.106  0.00  0.00    +0.000 C 
ATOM     23  O   UNL     1       5.240   4.052  14.901  0.00  0.00    +0.000 OA
BRANCH  22  24
ATOM     24  O   UNL     1       6.719   3.863  16.582  0.00  0.00    +0.000 OA
ATOM     25  H   UNL     1       6.917   4.503  17.291  0.00  0.00    +0.000 HD
ENDBRANCH  22  24
ENDBRANCH   7  22
TORSDOF 6
ENDMDL
MODEL 5
REMARK VINA RESULT:      -7.1      3.641      7.476
REMARK  Name = 
REMARK  8 active torsions:
REMARK  status: ('A' for Active; 'I' for Inactive)
REMARK    1  A    between atoms: C_1  and  C_2
REMARK    2  A    between atoms: C_2  and  O_3
REMARK    3  A    between atoms: O_3  and  C_4
REMARK    4  A    between atoms: C_7  and  N_8
REMARK    5  A    between atoms: N_8  and  C_9
REMARK    6  A    between atoms: C_15  and  C_16
REMARK    7  A    between atoms: C_16  and  O_18
REMARK    8  A    between atoms: C_19  and  C_20
REMARK                            x       y       z     vdW  Elec       q    Type
REMARK                         _______ _______ _______ _____ _____    ______ ____
ROOT
ATOM      1  C   UNL     1       4.466   6.025  17.927  0.00  0.00    +0.000 A 
ATOM      2  N   UNL     1       4.167   7.250  17.430  0.00  0.00    +0.000 NA
ATOM      3  C   UNL     1       3.093   7.905  17.882  0.00  0.00    +0.000 A 
ATOM      4  N   UNL     1       2.229   7.483  18.799  0.00  0.00    +0.000 NA
ATOM      5  C   UNL     1       2.536   6.267  19.273  0.00  0.00    +0.000 A 
ATOM      6  S   UNL     1       1.541   5.551  20.437  0.00  0.00    +0.000 S 
ATOM      7  C   UNL     1       2.502   4.133  20.517  0.00  0.00    +0.000 A 
ATOM      8  C   UNL     1       3.592   4.209  19.648  0.00  0.00    +0.000 A 
ATOM      9  C   UNL     1       4.620   3.134  19.441  0.00  0.00    +0.000 C 
ATOM     10  C   UNL     1       3.617   5.476  18.919  0.00  0.00    +0.000 A 
ENDROOT
BRANCH   1  11
ATOM     11  N   UNL     1       5.617   5.361  17.453  0.00  0.00    +0.000 N 
ATOM     12  H   UNL     1       6.443   5.740  17.900  0.00  0.00    +0.000 HD
BRANCH  11  16
ATOM     13  C   UNL     1       6.333   4.075  13.484  0.00  0.00    +0.000 A 
ATOM     14  C   UNL     1       7.309   4.782  14.187  0.00  0.00    +0.000 A 
ATOM     15  C   UNL     1       7.074   5.213  15.498  0.00  0.00    +0.000 A 
ATOM     16  C   UNL     1       5.839   4.977  16.112  0.00  0.00    +0.000 A 
ATOM     17  C   UNL     1       4.864   4.277  15.386  0.00  0.00    +0.000 A 
ATOM     18  C   UNL     1       5.098   3.844  14.079  0.00  0.00    +0.000 A 
BRANCH  13  19
ATOM     19  O   UNL     1       6.694   3.663  12.231  0.00  0.00    +0.000 OA
BRANCH  19  21
ATOM     20  C   UNL     1       6.918   1.550  11.159  0.00  0.00    +0.000 C 
ATOM     21  C   UNL     1       5.938   2.577  11.692  0.00  0.00    +0.000 C 
ENDBRANCH  19  21
ENDBRANCH  13  19
ENDBRANCH  11  16
ENDBRANCH   1  11
BRANCH   7  22
ATOM     22  C   UNL     1       2.114   3.054  21.420  0.00  0.00    +0.000 C 
ATOM     23  O   UNL     1       2.866   2.424  22.152  0.00  0.00    +0.000 OA
BRANCH  22  24
ATOM     24  O   UNL     1       0.781   2.779  21.396  0.00  0.00    +0.000 OA
ATOM     25  H   UNL     1       0.243   3.585  21.275  0.00  0.00    +0.000 HD
ENDBRANCH  22  24
ENDBRANCH   7  22
TORSDOF 6
ENDMDL
MODEL 6
REMARK VINA RESULT:      -6.9      1.456      1.911
REMARK  Name = 
REMARK  8 active torsions:
REMARK  status: ('A' for Active; 'I' for Inactive)
REMARK    1  A    between atoms: C_1  and  C_2
REMARK    2  A    between atoms: C_2  and  O_3
REMARK    3  A    between atoms: O_3  and  C_4
REMARK    4  A    between atoms: C_7  and  N_8
REMARK    5  A    between atoms: N_8  and  C_9
REMARK    6  A    between atoms: C_15  and  C_16
REMARK    7  A    between atoms: C_16  and  O_18
REMARK    8  A    between atoms: C_19  and  C_20
REMARK                            x       y       z     vdW  Elec       q    Type
REMARK                         _______ _______ _______ _____ _____    ______ ____
ROOT
ATOM      1  C   UNL     1       2.675   5.121  18.975  0.00  0.00    +0.000 A 
ATOM      2  N   UNL     1       1.546   4.370  18.984  0.00  0.00    +0.000 NA
ATOM      3  C   UNL     1       1.463   3.289  18.203  0.00  0.00    +0.000 A 
ATOM      4  N   UNL     1       2.391   2.836  17.366  0.00  0.00    +0.000 NA
ATOM      5  C   UNL     1       3.496   3.595  17.365  0.00  0.00    +0.000 A 
ATOM      6  S   UNL     1       4.784   3.190  16.348  0.00  0.00    +0.000 S 
ATOM      7  C   UNL     1       5.730   4.523  16.865  0.00  0.00    +0.000 A 
ATOM      8  C   UNL     1       5.055   5.283  17.823  0.00  0.00    +0.000 A 
ATOM      9  C   UNL     1       5.575   6.536  18.468  0.00  0.00    +0.000 C 
ATOM     10  C   UNL     1       3.737   4.728  18.125  0.00  0.00    +0.000 A 
ENDROOT
BRANCH   1  11
ATOM     11  N   UNL     1       2.750   6.246  19.824  0.00  0.00    +0.000 N 
ATOM     12  H   UNL     1       2.687   5.952  20.791  0.00  0.00    +0.000 HD
BRANCH  11  16
ATOM     13  C   UNL     1       1.020  10.047  19.133  0.00  0.00    +0.000 A 
ATOM     14  C   UNL     1       0.890   9.425  20.375  0.00  0.00    +0.000 A 
ATOM     15  C   UNL     1       1.457   8.165  20.605  0.00  0.00    +0.000 A 
ATOM     16  C   UNL     1       2.130   7.491  19.580  0.00  0.00    +0.000 A 
ATOM     17  C   UNL     1       2.239   8.125  18.334  0.00  0.00    +0.000 A 
ATOM     18  C   UNL     1       1.677   9.383  18.104  0.00  0.00    +0.000 A 
BRANCH  13  19
ATOM     19  O   UNL     1       0.469  11.295  19.042  0.00  0.00    +0.000 OA
BRANCH  19  21
ATOM     20  C   UNL     1      -1.658  12.145  19.692  0.00  0.00    +0.000 C 
ATOM     21  C   UNL     1      -0.282  11.727  20.178  0.00  0.00    +0.000 C 
ENDBRANCH  19  21
ENDBRANCH  13  19
ENDBRANCH  11  16
ENDBRANCH   1  11
BRANCH   7  22
ATOM     22  C   UNL     1       7.056   4.728  16.292  0.00  0.00    +0.000 C 
ATOM     23  O   UNL     1       7.310   5.350  15.269  0.00  0.00    +0.000 OA
BRANCH  22  24
ATOM     24  O   UNL     1       8.055   4.150  17.016  0.00  0.00    +0.000 OA
ATOM     25  H   UNL     1       7.876   4.179  17.975  0.00  0.00    +0.000 HD
ENDBRANCH  22  24
ENDBRANCH   7  22
TORSDOF 6
ENDMDL
MODEL 7
REMARK VINA RESULT:      -6.8      1.342      1.985
REMARK  Name = 
REMARK  8 active torsions:
REMARK  status: ('A' for Active; 'I' for Inactive)
REMARK    1  A    between atoms: C_1  and  C_2
REMARK    2  A    between atoms: C_2  and  O_3
REMARK    3  A    between atoms: O_3  and  C_4
REMARK    4  A    between atoms: C_7  and  N_8
REMARK    5  A    between atoms: N_8  and  C_9
REMARK    6  A    between atoms: C_15  and  C_16
REMARK    7  A    between atoms: C_16  and  O_18
REMARK    8  A    between atoms: C_19  and  C_20
REMARK                            x       y       z     vdW  Elec       q    Type
REMARK                         _______ _______ _______ _____ _____    ______ ____
ROOT
ATOM      1  C   UNL     1       2.301   5.751  19.856  0.00  0.00    +0.000 A 
ATOM      2  N   UNL     1       1.347   5.127  20.588  0.00  0.00    +0.000 NA
ATOM      3  C   UNL     1       1.082   3.835  20.370  0.00  0.00    +0.000 A 
ATOM      4  N   UNL     1       1.661   3.043  19.473  0.00  0.00    +0.000 NA
ATOM      5  C   UNL     1       2.596   3.680  18.753  0.00  0.00    +0.000 A 
ATOM      6  S   UNL     1       3.430   2.842  17.545  0.00  0.00    +0.000 S 
ATOM      7  C   UNL     1       4.359   4.215  17.108  0.00  0.00    +0.000 A 
ATOM      8  C   UNL     1       4.028   5.322  17.892  0.00  0.00    +0.000 A 
ATOM      9  C   UNL     1       4.623   6.695  17.761  0.00  0.00    +0.000 C 
ATOM     10  C   UNL     1       2.992   5.002  18.872  0.00  0.00    +0.000 A 
ENDROOT
BRANCH   1  11
ATOM     11  N   UNL     1       2.580   7.109  20.118  0.00  0.00    +0.000 N 
ATOM     12  H   UNL     1       3.360   7.184  20.759  0.00  0.00    +0.000 HD
BRANCH  11  16
ATOM     13  C   UNL     1      -0.223  10.221  20.732  0.00  0.00    +0.000 A 
ATOM     14  C   UNL     1       0.058   9.310  21.751  0.00  0.00    +0.000 A 
ATOM     15  C   UNL     1       0.982   8.276  21.549  0.00  0.00    +0.000 A 
ATOM     16  C   UNL     1       1.607   8.116  20.308  0.00  0.00    +0.000 A 
ATOM     17  C   UNL     1       1.302   9.032  19.291  0.00  0.00    +0.000 A 
ATOM     18  C   UNL     1       0.384  10.066  19.492  0.00  0.00    +0.000 A 
BRANCH  13  19
ATOM     19  O   UNL     1      -1.102  11.216  21.061  0.00  0.00    +0.000 OA
BRANCH  19  21
ATOM     20  C   UNL     1      -2.211  11.974  23.027  0.00  0.00    +0.000 C 
ATOM     21  C   UNL     1      -0.875  11.855  22.318  0.00  0.00    +0.000 C 
ENDBRANCH  19  21
ENDBRANCH  13  19
ENDBRANCH  11  16
ENDBRANCH   1  11
BRANCH   7  22
ATOM     22  C   UNL     1       5.336   4.108  16.029  0.00  0.00    +0.000 C 
ATOM     23  O   UNL     1       5.114   4.279  14.838  0.00  0.00    +0.000 OA
BRANCH  22  24
ATOM     24  O   UNL     1       6.588   3.792  16.461  0.00  0.00    +0.000 OA
ATOM     25  H   UNL     1       6.935   2.992  16.024  0.00  0.00    +0.000 HD
ENDBRANCH  22  24
ENDBRANCH   7  22
TORSDOF 6
ENDMDL
MODEL 8
REMARK VINA RESULT:      -6.8      2.686      6.936
REMARK  Name = 
REMARK  8 active torsions:
REMARK  status: ('A' for Active; 'I' for Inactive)
REMARK    1  A    between atoms: C_1  and  C_2
REMARK    2  A    between atoms: C_2  and  O_3
REMARK    3  A    between atoms: O_3  and  C_4
REMARK    4  A    between atoms: C_7  and  N_8
REMARK    5  A    between atoms: N_8  and  C_9
REMARK    6  A    between atoms: C_15  and  C_16
REMARK    7  A    between atoms: C_16  and  O_18
REMARK    8  A    between atoms: C_19  and  C_20
REMARK                            x       y       z     vdW  Elec       q    Type
REMARK                         _______ _______ _______ _____ _____    ______ ____
ROOT
ATOM      1  C   UNL     1       5.145   4.047  18.947  0.00  0.00    +0.000 A 
ATOM      2  N   UNL     1       5.060   2.868  19.611  0.00  0.00    +0.000 NA
ATOM      3  C   UNL     1       3.982   2.602  20.356  0.00  0.00    +0.000 A 
ATOM      4  N   UNL     1       2.930   3.392  20.547  0.00  0.00    +0.000 NA
ATOM      5  C   UNL     1       3.035   4.555  19.889  0.00  0.00    +0.000 A 
ATOM      6  S   UNL     1       1.801   5.702  20.024  0.00  0.00    +0.000 S 
ATOM      7  C   UNL     1       2.604   6.819  19.000  0.00  0.00    +0.000 A 
ATOM      8  C   UNL     1       3.825   6.310  18.552  0.00  0.00    +0.000 A 
ATOM      9  C   UNL     1       4.798   7.031  17.665  0.00  0.00    +0.000 C 
ATOM     10  C   UNL     1       4.074   4.966  19.070  0.00  0.00    +0.000 A 
ENDROOT
BRANCH   1  11
ATOM     11  N   UNL     1       6.280   4.298  18.149  0.00  0.00    +0.000 N 
ATOM     12  H   UNL     1       6.786   5.097  18.510  0.00  0.00    +0.000 HD
BRANCH  11  16
ATOM     13  C   UNL     1       6.307   4.153  13.918  0.00  0.00    +0.000 A 
ATOM     14  C   UNL     1       5.346   3.450  14.645  0.00  0.00    +0.000 A 
ATOM     15  C   UNL     1       5.337   3.492  16.045  0.00  0.00    +0.000 A 
ATOM     16  C   UNL     1       6.318   4.207  16.740  0.00  0.00    +0.000 A 
ATOM     17  C   UNL     1       7.285   4.897  15.994  0.00  0.00    +0.000 A 
ATOM     18  C   UNL     1       7.293   4.859  14.598  0.00  0.00    +0.000 A 
BRANCH  13  19
ATOM     19  O   UNL     1       6.186   4.078  12.559  0.00  0.00    +0.000 OA
BRANCH  19  21
ATOM     20  C   UNL     1       4.296   3.288  11.345  0.00  0.00    +0.000 C 
ATOM     21  C   UNL     1       5.576   2.888  12.054  0.00  0.00    +0.000 C 
ENDBRANCH  19  21
ENDBRANCH  13  19
ENDBRANCH  11  16
ENDBRANCH   1  11
BRANCH   7  22
ATOM     22  C   UNL     1       1.982   8.109  18.717  0.00  0.00    +0.000 C 
ATOM     23  O   UNL     1       1.862   8.622  17.613  0.00  0.00    +0.000 OA
BRANCH  22  24
ATOM     24  O   UNL     1       1.512   8.740  19.828  0.00  0.00    +0.000 OA
ATOM     25  H   UNL     1       2.232   9.115  20.369  0.00  0.00    +0.000 HD
ENDBRANCH  22  24
ENDBRANCH   7  22
TORSDOF 6
ENDMDL
MODEL 9
REMARK VINA RESULT:      -6.8      3.344      7.343
REMARK  Name = 
REMARK  8 active torsions:
REMARK  status: ('A' for Active; 'I' for Inactive)
REMARK    1  A    between atoms: C_1  and  C_2
REMARK    2  A    between atoms: C_2  and  O_3
REMARK    3  A    between atoms: O_3  and  C_4
REMARK    4  A    between atoms: C_7  and  N_8
REMARK    5  A    between atoms: N_8  and  C_9
REMARK    6  A    between atoms: C_15  and  C_16
REMARK    7  A    between atoms: C_16  and  O_18
REMARK    8  A    between atoms: C_19  and  C_20
REMARK                            x       y       z     vdW  Elec       q    Type
REMARK                         _______ _______ _______ _____ _____    ______ ____
ROOT
ATOM      1  C   UNL     1       1.260   8.875  21.061  0.00  0.00    +0.000 A 
ATOM      2  N   UNL     1       1.215   8.761  22.411  0.00  0.00    +0.000 NA
ATOM      3  C   UNL     1       0.326   9.475  23.109  0.00  0.00    +0.000 A 
ATOM      4  N   UNL     1      -0.562  10.336  22.623  0.00  0.00    +0.000 NA
ATOM      5  C   UNL     1      -0.498  10.442  21.288  0.00  0.00    +0.000 A 
ATOM      6  S   UNL     1      -1.538  11.506  20.486  0.00  0.00    +0.000 S 
ATOM      7  C   UNL     1      -0.893  11.118  18.945  0.00  0.00    +0.000 A 
ATOM      8  C   UNL     1       0.125  10.167  19.046  0.00  0.00    +0.000 A 
ATOM      9  C   UNL     1       0.927   9.623  17.899  0.00  0.00    +0.000 C 
ATOM     10  C   UNL     1       0.351   9.760  20.431  0.00  0.00    +0.000 A 
ENDROOT
BRANCH   1  11
ATOM     11  N   UNL     1       2.190   8.095  20.343  0.00  0.00    +0.000 N 
ATOM     12  H   UNL     1       2.689   8.677  19.681  0.00  0.00    +0.000 HD
BRANCH  11  16
ATOM     13  C   UNL     1       1.632   4.135  18.956  0.00  0.00    +0.000 A 
ATOM     14  C   UNL     1       2.093   5.130  18.093  0.00  0.00    +0.000 A 
ATOM     15  C   UNL     1       2.275   6.442  18.547  0.00  0.00    +0.000 A 
ATOM     16  C   UNL     1       1.957   6.787  19.866  0.00  0.00    +0.000 A 
ATOM     17  C   UNL     1       1.481   5.778  20.716  0.00  0.00    +0.000 A 
ATOM     18  C   UNL     1       1.303   4.468  20.265  0.00  0.00    +0.000 A 
BRANCH  13  19
ATOM     19  O   UNL     1       1.542   2.883  18.414  0.00  0.00    +0.000 OA
BRANCH  19  21
ATOM     20  C   UNL     1       3.554   1.615  18.308  0.00  0.00    +0.000 C 
ATOM     21  C   UNL     1       2.277   1.860  19.089  0.00  0.00    +0.000 C 
ENDBRANCH  19  21
ENDBRANCH  13  19
ENDBRANCH  11  16
ENDBRANCH   1  11
BRANCH   7  22
ATOM     22  C   UNL     1      -1.428  11.776  17.757  0.00  0.00    +0.000 C 
ATOM     23  O   UNL     1      -2.257  11.309  16.988  0.00  0.00    +0.000 OA
BRANCH  22  24
ATOM     24  O   UNL     1      -0.916  13.021  17.550  0.00  0.00    +0.000 OA
ATOM     25  H   UNL     1      -0.196  13.229  18.175  0.00  0.00    +0.000 HD
ENDBRANCH  22  24
ENDBRANCH   7  22
TORSDOF 6
ENDMDL
