MODEL 1
REMARK VINA RESULT:      -6.5      0.000      0.000
REMARK  Name = 
REMARK  4 active torsions:
REMARK  status: ('A' for Active; 'I' for Inactive)
REMARK    1  A    between atoms: C_1  and  C_2
REMARK    2  A    between atoms: C_8  and  C_9
REMARK    3  A    between atoms: C_14  and  O_15
REMARK    4  A    between atoms: C_14  and  C_16
REMARK                            x       y       z     vdW  Elec       q    Type
REMARK                         _______ _______ _______ _____ _____    ______ ____
ROOT
ATOM      1  C   UNL     1       4.290   3.714  16.700  0.00  0.00    +0.000 C 
ATOM      2  C   UNL     1       4.865   5.019  17.262  0.00  0.00    +0.000 C 
ATOM      3  C   UNL     1       3.776   6.110  17.339  0.00  0.00    +0.000 C 
ATOM      4  N   UNL     1       3.173   5.929  18.662  0.00  0.00    +0.000 N 
ATOM      5  C   UNL     1       2.433   6.967  19.210  0.00  0.00    +0.000 A 
ATOM      6  C   UNL     1       1.859   6.831  20.478  0.00  0.00    +0.000 A 
ATOM      7  C   UNL     1       1.155   7.886  21.063  0.00  0.00    +0.000 A 
ATOM      8  C   UNL     1       1.009   9.070  20.357  0.00  0.00    +0.000 A 
ATOM      9  C   UNL     1       1.558   9.126  19.089  0.00  0.00    +0.000 A 
ATOM     10  N   UNL     1       2.252   8.108  18.510  0.00  0.00    +0.000 NA
ATOM     11  C   UNL     1       4.074   5.179  19.545  0.00  0.00    +0.000 C 
ATOM     12  C   UNL     1       5.365   4.919  18.726  0.00  0.00    +0.000 C 
ENDROOT
BRANCH  12  13
ATOM     13  C   UNL     1       6.434   5.965  19.030  0.00  0.00    +0.000 C 
ATOM     14  C   UNL     1       7.901   5.588  19.078  0.00  0.00    +0.000 C 
ATOM     15  C   UNL     1       7.399   6.469  17.974  0.00  0.00    +0.000 C 
ENDBRANCH  12  13
BRANCH   8  16
ATOM     16  C   UNL     1       0.309  10.194  20.906  0.00  0.00    +0.000 C 
ATOM     17  N   UNL     1      -0.270  11.099  21.352  0.00  0.00    +0.000 NA
ENDBRANCH   8  16
BRANCH  12  18
ATOM     18  O   UNL     1       5.902   3.626  19.011  0.00  0.00    +0.000 OA
ATOM     19  H   UNL     1       5.875   3.094  18.198  0.00  0.00    +0.000 HD
ENDBRANCH  12  18
TORSDOF 3
ENDMDL
MODEL 2
REMARK VINA RESULT:      -6.4      3.663      4.423
REMARK  Name = 
REMARK  4 active torsions:
REMARK  status: ('A' for Active; 'I' for Inactive)
REMARK    1  A    between atoms: C_1  and  C_2
REMARK    2  A    between atoms: C_8  and  C_9
REMARK    3  A    between atoms: C_14  and  O_15
REMARK    4  A    between atoms: C_14  and  C_16
REMARK                            x       y       z     vdW  Elec       q    Type
REMARK                         _______ _______ _______ _____ _____    ______ ____
ROOT
ATOM      1  C   UNL     1       5.615   5.108  14.342  0.00  0.00    +0.000 C 
ATOM      2  C   UNL     1       5.459   5.852  15.674  0.00  0.00    +0.000 C 
ATOM      3  C   UNL     1       4.201   5.369  16.427  0.00  0.00    +0.000 C 
ATOM      4  N   UNL     1       4.672   4.241  17.234  0.00  0.00    +0.000 N 
ATOM      5  C   UNL     1       3.903   3.818  18.310  0.00  0.00    +0.000 A 
ATOM      6  C   UNL     1       4.335   2.755  19.109  0.00  0.00    +0.000 A 
ATOM      7  C   UNL     1       3.597   2.353  20.226  0.00  0.00    +0.000 A 
ATOM      8  C   UNL     1       2.412   3.008  20.519  0.00  0.00    +0.000 A 
ATOM      9  C   UNL     1       2.015   4.020  19.663  0.00  0.00    +0.000 A 
ATOM     10  N   UNL     1       2.727   4.426  18.577  0.00  0.00    +0.000 NA
ATOM     11  C   UNL     1       6.129   4.295  17.403  0.00  0.00    +0.000 C 
ATOM     12  C   UNL     1       6.600   5.590  16.690  0.00  0.00    +0.000 C 
ENDROOT
BRANCH  12  13
ATOM     13  C   UNL     1       6.750   6.743  17.679  0.00  0.00    +0.000 C 
ATOM     14  C   UNL     1       7.986   6.868  18.546  0.00  0.00    +0.000 C 
ATOM     15  C   UNL     1       7.738   7.873  17.462  0.00  0.00    +0.000 C 
ENDBRANCH  12  13
BRANCH   8  16
ATOM     16  C   UNL     1       1.615   2.652  21.657  0.00  0.00    +0.000 C 
ATOM     17  N   UNL     1       0.958   2.367  22.573  0.00  0.00    +0.000 NA
ENDBRANCH   8  16
BRANCH  12  18
ATOM     18  O   UNL     1       7.852   5.389  16.034  0.00  0.00    +0.000 OA
ATOM     19  H   UNL     1       7.972   4.437  15.882  0.00  0.00    +0.000 HD
ENDBRANCH  12  18
TORSDOF 3
ENDMDL
MODEL 3
REMARK VINA RESULT:      -6.4      2.109      3.602
REMARK  Name = 
REMARK  4 active torsions:
REMARK  status: ('A' for Active; 'I' for Inactive)
REMARK    1  A    between atoms: C_1  and  C_2
REMARK    2  A    between atoms: C_8  and  C_9
REMARK    3  A    between atoms: C_14  and  O_15
REMARK    4  A    between atoms: C_14  and  C_16
REMARK                            x       y       z     vdW  Elec       q    Type
REMARK                         _______ _______ _______ _____ _____    ______ ____
ROOT
ATOM      1  C   UNL     1       5.045   4.207  19.237  0.00  0.00    +0.000 C 
ATOM      2  C   UNL     1       3.541   4.302  19.520  0.00  0.00    +0.000 C 
ATOM      3  C   UNL     1       3.175   5.691  20.083  0.00  0.00    +0.000 C 
ATOM      4  N   UNL     1       2.896   6.502  18.895  0.00  0.00    +0.000 N 
ATOM      5  C   UNL     1       2.174   7.679  19.041  0.00  0.00    +0.000 A 
ATOM      6  C   UNL     1       1.877   8.466  17.923  0.00  0.00    +0.000 A 
ATOM      7  C   UNL     1       1.107   9.625  18.049  0.00  0.00    +0.000 A 
ATOM      8  C   UNL     1       0.660  10.003  19.305  0.00  0.00    +0.000 A 
ATOM      9  C   UNL     1       1.028   9.209  20.376  0.00  0.00    +0.000 A 
ATOM     10  N   UNL     1       1.771   8.074  20.268  0.00  0.00    +0.000 NA
ATOM     11  C   UNL     1       2.600   5.647  17.740  0.00  0.00    +0.000 C 
ATOM     12  C   UNL     1       2.645   4.186  18.260  0.00  0.00    +0.000 C 
ENDROOT
BRANCH  12  13
ATOM     13  C   UNL     1       1.248   3.679  18.606  0.00  0.00    +0.000 C 
ATOM     14  C   UNL     1       0.961   2.194  18.705  0.00  0.00    +0.000 C 
ATOM     15  C   UNL     1       0.926   3.039  19.943  0.00  0.00    +0.000 C 
ENDBRANCH  12  13
BRANCH   8  16
ATOM     16  C   UNL     1      -0.143  11.175  19.499  0.00  0.00    +0.000 C 
ATOM     17  N   UNL     1      -0.789  12.131  19.645  0.00  0.00    +0.000 NA
ENDBRANCH   8  16
BRANCH  12  18
ATOM     18  O   UNL     1       3.217   3.311  17.286  0.00  0.00    +0.000 OA
ATOM     19  H   UNL     1       2.554   3.141  16.597  0.00  0.00    +0.000 HD
ENDBRANCH  12  18
TORSDOF 3
ENDMDL
MODEL 4
REMARK VINA RESULT:      -6.3      3.212      6.286
REMARK  Name = 
REMARK  4 active torsions:
REMARK  status: ('A' for Active; 'I' for Inactive)
REMARK    1  A    between atoms: C_1  and  C_2
REMARK    2  A    between atoms: C_8  and  C_9
REMARK    3  A    between atoms: C_14  and  O_15
REMARK    4  A    between atoms: C_14  and  C_16
REMARK                            x       y       z     vdW  Elec       q    Type
REMARK                         _______ _______ _______ _____ _____    ______ ____
ROOT
ATOM      1  C   UNL     1       1.865   5.432  20.995  0.00  0.00    +0.000 C 
ATOM      2  C   UNL     1       1.959   4.478  19.798  0.00  0.00    +0.000 C 
ATOM      3  C   UNL     1       2.648   5.167  18.602  0.00  0.00    +0.000 C 
ATOM      4  N   UNL     1       4.074   4.894  18.797  0.00  0.00    +0.000 N 
ATOM      5  C   UNL     1       4.938   5.034  17.719  0.00  0.00    +0.000 A 
ATOM      6  C   UNL     1       6.302   4.764  17.871  0.00  0.00    +0.000 A 
ATOM      7  C   UNL     1       7.173   4.850  16.783  0.00  0.00    +0.000 A 
ATOM      8  C   UNL     1       6.672   5.234  15.548  0.00  0.00    +0.000 A 
ATOM      9  C   UNL     1       5.324   5.534  15.475  0.00  0.00    +0.000 A 
ATOM     10  N   UNL     1       4.462   5.447  16.525  0.00  0.00    +0.000 NA
ATOM     11  C   UNL     1       4.265   3.748  19.694  0.00  0.00    +0.000 C 
ATOM     12  C   UNL     1       2.845   3.230  20.043  0.00  0.00    +0.000 C 
ENDROOT
BRANCH  12  13
ATOM     13  C   UNL     1       2.443   2.067  19.142  0.00  0.00    +0.000 C 
ATOM     14  C   UNL     1       2.456   2.210  17.633  0.00  0.00    +0.000 C 
ATOM     15  C   UNL     1       3.452   1.309  18.299  0.00  0.00    +0.000 C 
ENDBRANCH  12  13
BRANCH   8  16
ATOM     16  C   UNL     1       7.512   5.331  14.390  0.00  0.00    +0.000 C 
ATOM     17  N   UNL     1       8.194   5.396  13.451  0.00  0.00    +0.000 NA
ENDBRANCH   8  16
BRANCH  12  18
ATOM     18  O   UNL     1       2.777   2.795  21.402  0.00  0.00    +0.000 OA
ATOM     19  H   UNL     1       3.591   2.308  21.612  0.00  0.00    +0.000 HD
ENDBRANCH  12  18
TORSDOF 3
ENDMDL
MODEL 5
REMARK VINA RESULT:      -6.2      3.312      4.342
REMARK  Name = 
REMARK  4 active torsions:
REMARK  status: ('A' for Active; 'I' for Inactive)
REMARK    1  A    between atoms: C_1  and  C_2
REMARK    2  A    between atoms: C_8  and  C_9
REMARK    3  A    between atoms: C_14  and  O_15
REMARK    4  A    between atoms: C_14  and  C_16
REMARK                            x       y       z     vdW  Elec       q    Type
REMARK                         _______ _______ _______ _____ _____    ______ ____
ROOT
ATOM      1  C   UNL     1       5.285   6.669  14.992  0.00  0.00    +0.000 C 
ATOM      2  C   UNL     1       5.783   6.467  16.427  0.00  0.00    +0.000 C 
ATOM      3  C   UNL     1       4.597   6.286  17.399  0.00  0.00    +0.000 C 
ATOM      4  N   UNL     1       4.342   4.844  17.396  0.00  0.00    +0.000 N 
ATOM      5  C   UNL     1       3.607   4.290  18.435  0.00  0.00    +0.000 A 
ATOM      6  C   UNL     1       3.361   2.913  18.469  0.00  0.00    +0.000 A 
ATOM      7  C   UNL     1       2.668   2.336  19.535  0.00  0.00    +0.000 A 
ATOM      8  C   UNL     1       2.200   3.152  20.553  0.00  0.00    +0.000 A 
ATOM      9  C   UNL     1       2.433   4.510  20.438  0.00  0.00    +0.000 A 
ATOM     10  N   UNL     1       3.113   5.085  19.409  0.00  0.00    +0.000 NA
ATOM     11  C   UNL     1       5.517   4.109  16.910  0.00  0.00    +0.000 C 
ATOM     12  C   UNL     1       6.612   5.175  16.640  0.00  0.00    +0.000 C 
ENDROOT
BRANCH  12  13
ATOM     13  C   UNL     1       7.563   5.303  17.826  0.00  0.00    +0.000 C 
ATOM     14  C   UNL     1       7.865   6.656  18.439  0.00  0.00    +0.000 C 
ATOM     15  C   UNL     1       7.077   5.649  19.221  0.00  0.00    +0.000 C 
ENDBRANCH  12  13
BRANCH   8  16
ATOM     16  C   UNL     1       1.492   2.620  21.681  0.00  0.00    +0.000 C 
ATOM     17  N   UNL     1       0.926   2.194  22.603  0.00  0.00    +0.000 NA
ENDBRANCH   8  16
BRANCH  12  18
ATOM     18  O   UNL     1       7.376   4.843  15.480  0.00  0.00    +0.000 OA
ATOM     19  H   UNL     1       7.561   3.889  15.494  0.00  0.00    +0.000 HD
ENDBRANCH  12  18
TORSDOF 3
ENDMDL
MODEL 6
REMARK VINA RESULT:      -6.2      1.645      2.149
REMARK  Name = 
REMARK  4 active torsions:
REMARK  status: ('A' for Active; 'I' for Inactive)
REMARK    1  A    between atoms: C_1  and  C_2
REMARK    2  A    between atoms: C_8  and  C_9
REMARK    3  A    between atoms: C_14  and  O_15
REMARK    4  A    between atoms: C_14  and  C_16
REMARK                            x       y       z     vdW  Elec       q    Type
REMARK                         _______ _______ _______ _____ _____    ______ ____
ROOT
ATOM      1  C   UNL     1       6.038   3.981  14.827  0.00  0.00    +0.000 C 
ATOM      2  C   UNL     1       6.337   5.348  15.452  0.00  0.00    +0.000 C 
ATOM      3  C   UNL     1       5.032   6.128  15.718  0.00  0.00    +0.000 C 
ATOM      4  N   UNL     1       4.632   5.717  17.066  0.00  0.00    +0.000 N 
ATOM      5  C   UNL     1       3.725   6.502  17.765  0.00  0.00    +0.000 A 
ATOM      6  C   UNL     1       3.337   6.145  19.061  0.00  0.00    +0.000 A 
ATOM      7  C   UNL     1       2.466   6.952  19.795  0.00  0.00    +0.000 A 
ATOM      8  C   UNL     1       1.966   8.107  19.212  0.00  0.00    +0.000 A 
ATOM      9  C   UNL     1       2.350   8.379  17.911  0.00  0.00    +0.000 A 
ATOM     10  N   UNL     1       3.204   7.605  17.187  0.00  0.00    +0.000 NA
ATOM     11  C   UNL     1       5.774   5.158  17.799  0.00  0.00    +0.000 C 
ATOM     12  C   UNL     1       6.998   5.280  16.853  0.00  0.00    +0.000 C 
ENDROOT
BRANCH  12  13
ATOM     13  C   UNL     1       7.809   6.536  17.157  0.00  0.00    +0.000 C 
ATOM     14  C   UNL     1       7.149   7.766  17.747  0.00  0.00    +0.000 C 
ATOM     15  C   UNL     1       8.119   6.978  18.575  0.00  0.00    +0.000 C 
ENDBRANCH  12  13
BRANCH   8  16
ATOM     16  C   UNL     1       1.077   8.984  19.916  0.00  0.00    +0.000 C 
ATOM     17  N   UNL     1       0.359   9.688  20.499  0.00  0.00    +0.000 NA
ENDBRANCH   8  16
BRANCH  12  18
ATOM     18  O   UNL     1       7.856   4.145  16.975  0.00  0.00    +0.000 OA
ATOM     19  H   UNL     1       8.698   4.435  17.364  0.00  0.00    +0.000 HD
ENDBRANCH  12  18
TORSDOF 3
ENDMDL
MODEL 7
REMARK VINA RESULT:      -6.2      3.375      4.819
REMARK  Name = 
REMARK  4 active torsions:
REMARK  status: ('A' for Active; 'I' for Inactive)
REMARK    1  A    between atoms: C_1  and  C_2
REMARK    2  A    between atoms: C_8  and  C_9
REMARK    3  A    between atoms: C_14  and  O_15
REMARK    4  A    between atoms: C_14  and  C_16
REMARK                            x       y       z     vdW  Elec       q    Type
REMARK                         _______ _______ _______ _____ _____    ______ ____
ROOT
ATOM      1  C   UNL     1       7.386   7.117  17.242  0.00  0.00    +0.000 C 
ATOM      2  C   UNL     1       6.728   5.764  16.949  0.00  0.00    +0.000 C 
ATOM      3  C   UNL     1       6.286   5.074  18.256  0.00  0.00    +0.000 C 
ATOM      4  N   UNL     1       4.926   5.567  18.486  0.00  0.00    +0.000 N 
ATOM      5  C   UNL     1       4.096   4.869  19.352  0.00  0.00    +0.000 A 
ATOM      6  C   UNL     1       2.786   5.305  19.579  0.00  0.00    +0.000 A 
ATOM      7  C   UNL     1       1.924   4.583  20.406  0.00  0.00    +0.000 A 
ATOM      8  C   UNL     1       2.392   3.435  21.026  0.00  0.00    +0.000 A 
ATOM      9  C   UNL     1       3.710   3.082  20.800  0.00  0.00    +0.000 A 
ATOM     10  N   UNL     1       4.559   3.772  19.990  0.00  0.00    +0.000 NA
ATOM     11  C   UNL     1       4.347   6.092  17.244  0.00  0.00    +0.000 C 
ATOM     12  C   UNL     1       5.410   5.857  16.138  0.00  0.00    +0.000 C 
ENDROOT
BRANCH  12  13
ATOM     13  C   UNL     1       5.130   4.571  15.366  0.00  0.00    +0.000 C 
ATOM     14  C   UNL     1       5.571   4.417  13.924  0.00  0.00    +0.000 C 
ATOM     15  C   UNL     1       6.229   3.595  14.992  0.00  0.00    +0.000 C 
ENDBRANCH  12  13
BRANCH   8  16
ATOM     16  C   UNL     1       1.554   2.643  21.878  0.00  0.00    +0.000 C 
ATOM     17  N   UNL     1       0.863   2.007  22.565  0.00  0.00    +0.000 NA
ENDBRANCH   8  16
BRANCH  12  18
ATOM     18  O   UNL     1       5.437   6.945  15.213  0.00  0.00    +0.000 OA
ATOM     19  H   UNL     1       6.261   7.442  15.344  0.00  0.00    +0.000 HD
ENDBRANCH  12  18
TORSDOF 3
ENDMDL
MODEL 8
REMARK VINA RESULT:      -6.2      3.832      5.661
REMARK  Name = 
REMARK  4 active torsions:
REMARK  status: ('A' for Active; 'I' for Inactive)
REMARK    1  A    between atoms: C_1  and  C_2
REMARK    2  A    between atoms: C_8  and  C_9
REMARK    3  A    between atoms: C_14  and  O_15
REMARK    4  A    between atoms: C_14  and  C_16
REMARK                            x       y       z     vdW  Elec       q    Type
REMARK                         _______ _______ _______ _____ _____    ______ ____
ROOT
ATOM      1  C   UNL     1       3.660   1.171  18.330  0.00  0.00    +0.000 C 
ATOM      2  C   UNL     1       3.559   2.427  19.203  0.00  0.00    +0.000 C 
ATOM      3  C   UNL     1       4.903   3.185  19.230  0.00  0.00    +0.000 C 
ATOM      4  N   UNL     1       4.828   4.100  18.088  0.00  0.00    +0.000 N 
ATOM      5  C   UNL     1       5.690   5.187  18.041  0.00  0.00    +0.000 A 
ATOM      6  C   UNL     1       5.630   6.087  16.973  0.00  0.00    +0.000 A 
ATOM      7  C   UNL     1       6.456   7.213  16.939  0.00  0.00    +0.000 A 
ATOM      8  C   UNL     1       7.359   7.416  17.970  0.00  0.00    +0.000 A 
ATOM      9  C   UNL     1       7.404   6.464  18.973  0.00  0.00    +0.000 A 
ATOM     10  N   UNL     1       6.600   5.367  19.022  0.00  0.00    +0.000 NA
ATOM     11  C   UNL     1       3.433   4.303  17.677  0.00  0.00    +0.000 C 
ATOM     12  C   UNL     1       2.565   3.493  18.676  0.00  0.00    +0.000 C 
ENDROOT
BRANCH  12  13
ATOM     13  C   UNL     1       2.042   4.382  19.801  0.00  0.00    +0.000 C 
ATOM     14  C   UNL     1       0.770   4.028  20.545  0.00  0.00    +0.000 C 
ATOM     15  C   UNL     1       2.088   3.958  21.256  0.00  0.00    +0.000 C 
ENDBRANCH  12  13
BRANCH   8  16
ATOM     16  C   UNL     1       8.226   8.558  18.000  0.00  0.00    +0.000 C 
ATOM     17  N   UNL     1       8.919   9.491  18.022  0.00  0.00    +0.000 NA
ENDBRANCH   8  16
BRANCH  12  18
ATOM     18  O   UNL     1       1.450   2.893  18.016  0.00  0.00    +0.000 OA
ATOM     19  H   UNL     1       1.262   3.396  17.206  0.00  0.00    +0.000 HD
ENDBRANCH  12  18
TORSDOF 3
ENDMDL
MODEL 9
REMARK VINA RESULT:      -6.1      3.240      6.565
REMARK  Name = 
REMARK  4 active torsions:
REMARK  status: ('A' for Active; 'I' for Inactive)
REMARK    1  A    between atoms: C_1  and  C_2
REMARK    2  A    between atoms: C_8  and  C_9
REMARK    3  A    between atoms: C_14  and  O_15
REMARK    4  A    between atoms: C_14  and  C_16
REMARK                            x       y       z     vdW  Elec       q    Type
REMARK                         _______ _______ _______ _____ _____    ______ ____
ROOT
ATOM      1  C   UNL     1       2.990   2.564  20.539  0.00  0.00    +0.000 C 
ATOM      2  C   UNL     1       3.553   3.958  20.239  0.00  0.00    +0.000 C 
ATOM      3  C   UNL     1       4.807   3.861  19.345  0.00  0.00    +0.000 C 
ATOM      4  N   UNL     1       4.283   3.895  17.978  0.00  0.00    +0.000 N 
ATOM      5  C   UNL     1       5.143   4.211  16.936  0.00  0.00    +0.000 A 
ATOM      6  C   UNL     1       4.668   4.267  15.622  0.00  0.00    +0.000 A 
ATOM      7  C   UNL     1       5.511   4.635  14.571  0.00  0.00    +0.000 A 
ATOM      8  C   UNL     1       6.840   4.919  14.843  0.00  0.00    +0.000 A 
ATOM      9  C   UNL     1       7.261   4.798  16.155  0.00  0.00    +0.000 A 
ATOM     10  N   UNL     1       6.448   4.449  17.190  0.00  0.00    +0.000 NA
ATOM     11  C   UNL     1       2.929   4.463  17.955  0.00  0.00    +0.000 C 
ATOM     12  C   UNL     1       2.605   4.867  19.417  0.00  0.00    +0.000 C 
ENDROOT
BRANCH  12  13
ATOM     13  C   UNL     1       2.892   6.347  19.659  0.00  0.00    +0.000 C 
ATOM     14  C   UNL     1       2.328   7.410  18.738  0.00  0.00    +0.000 C 
ATOM     15  C   UNL     1       1.825   7.309  20.147  0.00  0.00    +0.000 C 
ENDBRANCH  12  13
BRANCH   8  16
ATOM     16  C   UNL     1       7.754   5.313  13.810  0.00  0.00    +0.000 C 
ATOM     17  N   UNL     1       8.498   5.643  12.980  0.00  0.00    +0.000 NA
ENDBRANCH   8  16
BRANCH  12  18
ATOM     18  O   UNL     1       1.234   4.615  19.727  0.00  0.00    +0.000 OA
ATOM     19  H   UNL     1       1.189   3.862  20.341  0.00  0.00    +0.000 HD
ENDBRANCH  12  18
TORSDOF 3
ENDMDL
