MODEL 1
REMARK VINA RESULT:      -7.5      0.000      0.000
REMARK  Name = 
REMARK  9 active torsions:
REMARK  status: ('A' for Active; 'I' for Inactive)
REMARK    1  A    between atoms: C_1  and  N_2
REMARK    2  A    between atoms: N_2  and  C_3
REMARK    3  A    between atoms: N_2  and  C_4
REMARK    4  A    between atoms: C_7  and  C_8
REMARK    5  A    between atoms: C_11  and  O_12
REMARK    6  A    between atoms: O_12  and  C_13
REMARK    7  A    between atoms: C_13  and  C_14
REMARK    8  A    between atoms: C_14  and  C_15
REMARK    9  A    between atoms: C_15  and  N_16
REMARK                            x       y       z     vdW  Elec       q    Type
REMARK                         _______ _______ _______ _____ _____    ______ ____
ROOT
ATOM      1  C   UNL     1       1.115   8.925  19.721  0.00  0.00    +0.000 A 
ATOM      2  C   UNL     1       1.473   9.321  18.432  0.00  0.00    +0.000 A 
ATOM      3  C   UNL     1       2.372   8.568  17.681  0.00  0.00    +0.000 A 
ATOM      4  C   UNL     1       2.934   7.400  18.204  0.00  0.00    +0.000 A 
ATOM      5  C   UNL     1       2.600   7.007  19.498  0.00  0.00    +0.000 A 
ATOM      6  C   UNL     1       1.699   7.764  20.256  0.00  0.00    +0.000 A 
ENDROOT
BRANCH   1  10
ATOM      7  C   UNL     1      -0.597  11.919  22.431  0.00  0.00    +0.000 C 
ATOM      8  C   UNL     1      -0.711  10.419  22.794  0.00  0.00    +0.000 C 
ATOM      9  C   UNL     1       0.266   9.555  22.000  0.00  0.00    +0.000 C 
ATOM     10  C   UNL     1       0.106   9.753  20.489  0.00  0.00    +0.000 C 
ATOM     11  C   UNL     1       0.185  11.231  20.103  0.00  0.00    +0.000 C 
ATOM     12  C   UNL     1      -0.801  12.074  20.908  0.00  0.00    +0.000 C 
BRANCH   7  14
ATOM     13  C   UNL     1      -2.808  12.019  23.485  0.00  0.00    +0.000 C 
ATOM     14  N   UNL     1      -1.563  12.747  23.205  0.00  0.00    +0.000 NA
ATOM     15  C   UNL     1      -1.907  13.993  22.507  0.00  0.00    +0.000 C 
ENDBRANCH   7  14
ENDBRANCH   1  10
BRANCH   4  16
ATOM     16  O   UNL     1       3.805   6.574  17.536  0.00  0.00    +0.000 OA
BRANCH  16  17
ATOM     17  C   UNL     1       4.633   5.781  18.389  0.00  0.00    +0.000 C 
BRANCH  17  18
ATOM     18  C   UNL     1       4.986   4.464  17.710  0.00  0.00    +0.000 C 
BRANCH  18  19
ATOM     19  C   UNL     1       3.874   3.427  17.917  0.00  0.00    +0.000 C 
BRANCH  19  20
ATOM     20  N   UNL     1       3.091   3.616  19.153  0.00  0.00    +0.000 NA
ATOM     21  C   UNL     1       1.640   3.577  18.899  0.00  0.00    +0.000 C 
ATOM     22  C   UNL     1       0.841   3.819  20.178  0.00  0.00    +0.000 C 
ATOM     23  C   UNL     1       1.212   2.813  21.259  0.00  0.00    +0.000 C 
ATOM     24  C   UNL     1       2.720   2.811  21.477  0.00  0.00    +0.000 C 
ATOM     25  C   UNL     1       3.476   2.613  20.161  0.00  0.00    +0.000 C 
ENDBRANCH  19  20
ENDBRANCH  18  19
ENDBRANCH  17  18
ENDBRANCH  16  17
ENDBRANCH   4  16
TORSDOF 7
ENDMDL
MODEL 2
REMARK VINA RESULT:      -7.2      1.013      1.886
REMARK  Name = 
REMARK  9 active torsions:
REMARK  status: ('A' for Active; 'I' for Inactive)
REMARK    1  A    between atoms: C_1  and  N_2
REMARK    2  A    between atoms: N_2  and  C_3
REMARK    3  A    between atoms: N_2  and  C_4
REMARK    4  A    between atoms: C_7  and  C_8
REMARK    5  A    between atoms: C_11  and  O_12
REMARK    6  A    between atoms: O_12  and  C_13
REMARK    7  A    between atoms: C_13  and  C_14
REMARK    8  A    between atoms: C_14  and  C_15
REMARK    9  A    between atoms: C_15  and  N_16
REMARK                            x       y       z     vdW  Elec       q    Type
REMARK                         _______ _______ _______ _____ _____    ______ ____
ROOT
ATOM      1  C   UNL     1       1.979   7.986  19.222  0.00  0.00    +0.000 A 
ATOM      2  C   UNL     1       2.449   6.844  19.872  0.00  0.00    +0.000 A 
ATOM      3  C   UNL     1       3.422   6.041  19.282  0.00  0.00    +0.000 A 
ATOM      4  C   UNL     1       3.947   6.362  18.028  0.00  0.00    +0.000 A 
ATOM      5  C   UNL     1       3.470   7.489  17.361  0.00  0.00    +0.000 A 
ATOM      6  C   UNL     1       2.490   8.296  17.950  0.00  0.00    +0.000 A 
ENDROOT
BRANCH   1  10
ATOM      7  C   UNL     1       0.179  11.217  21.580  0.00  0.00    +0.000 C 
ATOM      8  C   UNL     1       0.167   9.775  22.142  0.00  0.00    +0.000 C 
ATOM      9  C   UNL     1       1.168   8.867  21.430  0.00  0.00    +0.000 C 
ATOM     10  C   UNL     1       0.947   8.852  19.914  0.00  0.00    +0.000 C 
ATOM     11  C   UNL     1       0.926  10.267  19.333  0.00  0.00    +0.000 C 
ATOM     12  C   UNL     1      -0.083  11.155  20.059  0.00  0.00    +0.000 C 
BRANCH   7  14
ATOM     13  C   UNL     1      -1.657  11.322  23.201  0.00  0.00    +0.000 C 
ATOM     14  N   UNL     1      -0.810  12.086  22.276  0.00  0.00    +0.000 NA
ATOM     15  C   UNL     1      -1.684  12.796  21.332  0.00  0.00    +0.000 C 
ENDBRANCH   7  14
ENDBRANCH   1  10
BRANCH   4  16
ATOM     16  O   UNL     1       4.927   5.654  17.375  0.00  0.00    +0.000 OA
BRANCH  16  17
ATOM     17  C   UNL     1       5.045   4.293  17.793  0.00  0.00    +0.000 C 
BRANCH  17  18
ATOM     18  C   UNL     1       3.944   3.448  17.167  0.00  0.00    +0.000 C 
BRANCH  18  19
ATOM     19  C   UNL     1       3.779   2.120  17.919  0.00  0.00    +0.000 C 
BRANCH  19  20
ATOM     20  N   UNL     1       2.820   2.172  19.038  0.00  0.00    +0.000 NA
ATOM     21  C   UNL     1       3.460   2.592  20.296  0.00  0.00    +0.000 C 
ATOM     22  C   UNL     1       2.466   2.598  21.456  0.00  0.00    +0.000 C 
ATOM     23  C   UNL     1       1.271   3.490  21.153  0.00  0.00    +0.000 C 
ATOM     24  C   UNL     1       0.646   3.094  19.821  0.00  0.00    +0.000 C 
ATOM     25  C   UNL     1       1.689   3.055  18.702  0.00  0.00    +0.000 C 
ENDBRANCH  19  20
ENDBRANCH  18  19
ENDBRANCH  17  18
ENDBRANCH  16  17
ENDBRANCH   4  16
TORSDOF 7
ENDMDL
MODEL 3
REMARK VINA RESULT:      -7.2      1.372      2.211
REMARK  Name = 
REMARK  9 active torsions:
REMARK  status: ('A' for Active; 'I' for Inactive)
REMARK    1  A    between atoms: C_1  and  N_2
REMARK    2  A    between atoms: N_2  and  C_3
REMARK    3  A    between atoms: N_2  and  C_4
REMARK    4  A    between atoms: C_7  and  C_8
REMARK    5  A    between atoms: C_11  and  O_12
REMARK    6  A    between atoms: O_12  and  C_13
REMARK    7  A    between atoms: C_13  and  C_14
REMARK    8  A    between atoms: C_14  and  C_15
REMARK    9  A    between atoms: C_15  and  N_16
REMARK                            x       y       z     vdW  Elec       q    Type
REMARK                         _______ _______ _______ _____ _____    ______ ____
ROOT
ATOM      1  C   UNL     1       2.014   8.279  18.869  0.00  0.00    +0.000 A 
ATOM      2  C   UNL     1       2.138   7.249  19.802  0.00  0.00    +0.000 A 
ATOM      3  C   UNL     1       3.055   6.219  19.606  0.00  0.00    +0.000 A 
ATOM      4  C   UNL     1       3.868   6.195  18.470  0.00  0.00    +0.000 A 
ATOM      5  C   UNL     1       3.737   7.208  17.521  0.00  0.00    +0.000 A 
ATOM      6  C   UNL     1       2.815   8.242  17.714  0.00  0.00    +0.000 A 
ENDROOT
BRANCH   1  10
ATOM      7  C   UNL     1       0.295  12.016  20.391  0.00  0.00    +0.000 C 
ATOM      8  C   UNL     1      -0.234  10.666  20.932  0.00  0.00    +0.000 C 
ATOM      9  C   UNL     1       0.718   9.510  20.634  0.00  0.00    +0.000 C 
ATOM     10  C   UNL     1       1.032   9.400  19.138  0.00  0.00    +0.000 C 
ATOM     11  C   UNL     1       1.530  10.729  18.567  0.00  0.00    +0.000 C 
ATOM     12  C   UNL     1       0.562  11.869  18.876  0.00  0.00    +0.000 C 
BRANCH   7  14
ATOM     13  C   UNL     1      -2.051  12.706  20.570  0.00  0.00    +0.000 C 
ATOM     14  N   UNL     1      -0.649  13.131  20.679  0.00  0.00    +0.000 NA
ATOM     15  C   UNL     1      -0.445  14.275  19.780  0.00  0.00    +0.000 C 
ENDBRANCH   7  14
ENDBRANCH   1  10
BRANCH   4  16
ATOM     16  O   UNL     1       4.820   5.243  18.198  0.00  0.00    +0.000 OA
BRANCH  16  17
ATOM     17  C   UNL     1       4.684   4.624  16.918  0.00  0.00    +0.000 C 
BRANCH  17  18
ATOM     18  C   UNL     1       3.541   3.619  16.934  0.00  0.00    +0.000 C 
BRANCH  18  19
ATOM     19  C   UNL     1       3.849   2.455  17.885  0.00  0.00    +0.000 C 
BRANCH  19  20
ATOM     20  N   UNL     1       2.910   2.331  19.016  0.00  0.00    +0.000 NA
ATOM     21  C   UNL     1       3.542   2.681  20.300  0.00  0.00    +0.000 C 
ATOM     22  C   UNL     1       2.574   2.506  21.468  0.00  0.00    +0.000 C 
ATOM     23  C   UNL     1       1.311   3.331  21.264  0.00  0.00    +0.000 C 
ATOM     24  C   UNL     1       0.691   3.013  19.909  0.00  0.00    +0.000 C 
ATOM     25  C   UNL     1       1.712   3.155  18.778  0.00  0.00    +0.000 C 
ENDBRANCH  19  20
ENDBRANCH  18  19
ENDBRANCH  17  18
ENDBRANCH  16  17
ENDBRANCH   4  16
TORSDOF 7
ENDMDL
MODEL 4
REMARK VINA RESULT:      -7.2      1.215      2.036
REMARK  Name = 
REMARK  9 active torsions:
REMARK  status: ('A' for Active; 'I' for Inactive)
REMARK    1  A    between atoms: C_1  and  N_2
REMARK    2  A    between atoms: N_2  and  C_3
REMARK    3  A    between atoms: N_2  and  C_4
REMARK    4  A    between atoms: C_7  and  C_8
REMARK    5  A    between atoms: C_11  and  O_12
REMARK    6  A    between atoms: O_12  and  C_13
REMARK    7  A    between atoms: C_13  and  C_14
REMARK    8  A    between atoms: C_14  and  C_15
REMARK    9  A    between atoms: C_15  and  N_16
REMARK                            x       y       z     vdW  Elec       q    Type
REMARK                         _______ _______ _______ _____ _____    ______ ____
ROOT
ATOM      1  C   UNL     1       2.006   8.174  19.031  0.00  0.00    +0.000 A 
ATOM      2  C   UNL     1       2.736   8.250  17.844  0.00  0.00    +0.000 A 
ATOM      3  C   UNL     1       3.646   7.252  17.505  0.00  0.00    +0.000 A 
ATOM      4  C   UNL     1       3.848   6.155  18.347  0.00  0.00    +0.000 A 
ATOM      5  C   UNL     1       3.140   6.080  19.545  0.00  0.00    +0.000 A 
ATOM      6  C   UNL     1       2.227   7.083  19.890  0.00  0.00    +0.000 A 
ENDROOT
BRANCH   1  10
ATOM      7  C   UNL     1       0.267  11.926  20.493  0.00  0.00    +0.000 C 
ATOM      8  C   UNL     1      -0.109  10.597  21.191  0.00  0.00    +0.000 C 
ATOM      9  C   UNL     1       0.866   9.471  20.856  0.00  0.00    +0.000 C 
ATOM     10  C   UNL     1       0.999   9.261  19.344  0.00  0.00    +0.000 C 
ATOM     11  C   UNL     1       1.343  10.566  18.623  0.00  0.00    +0.000 C 
ATOM     12  C   UNL     1       0.354  11.676  18.971  0.00  0.00    +0.000 C 
BRANCH   7  14
ATOM     13  C   UNL     1      -0.249  14.316  20.316  0.00  0.00    +0.000 C 
ATOM     14  N   UNL     1      -0.698  13.011  20.820  0.00  0.00    +0.000 NA
ATOM     15  C   UNL     1      -0.928  13.132  22.266  0.00  0.00    +0.000 C 
ENDBRANCH   7  14
ENDBRANCH   1  10
BRANCH   4  16
ATOM     16  O   UNL     1       4.698   5.107  18.091  0.00  0.00    +0.000 OA
BRANCH  16  17
ATOM     17  C   UNL     1       4.495   4.481  16.824  0.00  0.00    +0.000 C 
BRANCH  17  18
ATOM     18  C   UNL     1       3.336   3.497  16.898  0.00  0.00    +0.000 C 
BRANCH  18  19
ATOM     19  C   UNL     1       3.670   2.328  17.836  0.00  0.00    +0.000 C 
BRANCH  19  20
ATOM     20  N   UNL     1       2.811   2.246  19.032  0.00  0.00    +0.000 NA
ATOM     21  C   UNL     1       3.533   2.628  20.258  0.00  0.00    +0.000 C 
ATOM     22  C   UNL     1       2.647   2.496  21.495  0.00  0.00    +0.000 C 
ATOM     23  C   UNL     1       1.378   3.324  21.354  0.00  0.00    +0.000 C 
ATOM     24  C   UNL     1       0.663   2.971  20.056  0.00  0.00    +0.000 C 
ATOM     25  C   UNL     1       1.604   3.072  18.853  0.00  0.00    +0.000 C 
ENDBRANCH  19  20
ENDBRANCH  18  19
ENDBRANCH  17  18
ENDBRANCH  16  17
ENDBRANCH   4  16
TORSDOF 7
ENDMDL
MODEL 5
REMARK VINA RESULT:      -7.1      0.631      1.148
REMARK  Name = 
REMARK  9 active torsions:
REMARK  status: ('A' for Active; 'I' for Inactive)
REMARK    1  A    between atoms: C_1  and  N_2
REMARK    2  A    between atoms: N_2  and  C_3
REMARK    3  A    between atoms: N_2  and  C_4
REMARK    4  A    between atoms: C_7  and  C_8
REMARK    5  A    between atoms: C_11  and  O_12
REMARK    6  A    between atoms: O_12  and  C_13
REMARK    7  A    between atoms: C_13  and  C_14
REMARK    8  A    between atoms: C_14  and  C_15
REMARK    9  A    between atoms: C_15  and  N_16
REMARK                            x       y       z     vdW  Elec       q    Type
REMARK                         _______ _______ _______ _____ _____    ______ ____
ROOT
ATOM      1  C   UNL     1       1.335   8.552  19.726  0.00  0.00    +0.000 A 
ATOM      2  C   UNL     1       1.788   7.359  20.290  0.00  0.00    +0.000 A 
ATOM      3  C   UNL     1       2.764   6.597  19.652  0.00  0.00    +0.000 A 
ATOM      4  C   UNL     1       3.308   7.012  18.433  0.00  0.00    +0.000 A 
ATOM      5  C   UNL     1       2.847   8.191  17.852  0.00  0.00    +0.000 A 
ATOM      6  C   UNL     1       1.865   8.957  18.489  0.00  0.00    +0.000 A 
ENDROOT
BRANCH   1  10
ATOM      7  C   UNL     1      -0.471  11.519  22.405  0.00  0.00    +0.000 C 
ATOM      8  C   UNL     1      -0.585  10.016  22.756  0.00  0.00    +0.000 C 
ATOM      9  C   UNL     1       0.419   9.163  21.984  0.00  0.00    +0.000 C 
ATOM     10  C   UNL     1       0.299   9.369  20.471  0.00  0.00    +0.000 C 
ATOM     11  C   UNL     1       0.380  10.849  20.095  0.00  0.00    +0.000 C 
ATOM     12  C   UNL     1      -0.634  11.682  20.877  0.00  0.00    +0.000 C 
BRANCH   7  14
ATOM     13  C   UNL     1      -2.807  12.240  22.571  0.00  0.00    +0.000 C 
ATOM     14  N   UNL     1      -1.463  12.336  23.156  0.00  0.00    +0.000 NA
ATOM     15  C   UNL     1      -1.086  13.755  23.209  0.00  0.00    +0.000 C 
ENDBRANCH   7  14
ENDBRANCH   1  10
BRANCH   4  16
ATOM     16  O   UNL     1       4.292   6.350  17.740  0.00  0.00    +0.000 OA
BRANCH  16  17
ATOM     17  C   UNL     1       3.836   5.199  17.027  0.00  0.00    +0.000 C 
BRANCH  17  18
ATOM     18  C   UNL     1       4.679   3.984  17.387  0.00  0.00    +0.000 C 
BRANCH  18  19
ATOM     19  C   UNL     1       3.798   2.848  17.926  0.00  0.00    +0.000 C 
BRANCH  19  20
ATOM     20  N   UNL     1       2.974   3.221  19.091  0.00  0.00    +0.000 NA
ATOM     21  C   UNL     1       1.554   2.883  18.895  0.00  0.00    +0.000 C 
ATOM     22  C   UNL     1       0.705   3.315  20.088  0.00  0.00    +0.000 C 
ATOM     23  C   UNL     1       1.216   2.696  21.381  0.00  0.00    +0.000 C 
ATOM     24  C   UNL     1       2.700   2.994  21.553  0.00  0.00    +0.000 C 
ATOM     25  C   UNL     1       3.501   2.589  20.313  0.00  0.00    +0.000 C 
ENDBRANCH  19  20
ENDBRANCH  18  19
ENDBRANCH  17  18
ENDBRANCH  16  17
ENDBRANCH   4  16
TORSDOF 7
ENDMDL
MODEL 6
REMARK VINA RESULT:      -7.1      1.003      1.834
REMARK  Name = 
REMARK  9 active torsions:
REMARK  status: ('A' for Active; 'I' for Inactive)
REMARK    1  A    between atoms: C_1  and  N_2
REMARK    2  A    between atoms: N_2  and  C_3
REMARK    3  A    between atoms: N_2  and  C_4
REMARK    4  A    between atoms: C_7  and  C_8
REMARK    5  A    between atoms: C_11  and  O_12
REMARK    6  A    between atoms: O_12  and  C_13
REMARK    7  A    between atoms: C_13  and  C_14
REMARK    8  A    between atoms: C_14  and  C_15
REMARK    9  A    between atoms: C_15  and  N_16
REMARK                            x       y       z     vdW  Elec       q    Type
REMARK                         _______ _______ _______ _____ _____    ______ ____
ROOT
ATOM      1  C   UNL     1       2.130   7.875  19.052  0.00  0.00    +0.000 A 
ATOM      2  C   UNL     1       2.651   6.804  19.778  0.00  0.00    +0.000 A 
ATOM      3  C   UNL     1       3.694   6.038  19.263  0.00  0.00    +0.000 A 
ATOM      4  C   UNL     1       4.240   6.327  18.010  0.00  0.00    +0.000 A 
ATOM      5  C   UNL     1       3.712   7.382  17.267  0.00  0.00    +0.000 A 
ATOM      6  C   UNL     1       2.662   8.151  17.780  0.00  0.00    +0.000 A 
ENDROOT
BRANCH   1  10
ATOM      7  C   UNL     1       0.051  10.995  21.329  0.00  0.00    +0.000 C 
ATOM      8  C   UNL     1      -0.004   9.532  21.829  0.00  0.00    +0.000 C 
ATOM      9  C   UNL     1       1.077   8.661  21.193  0.00  0.00    +0.000 C 
ATOM     10  C   UNL     1       1.020   8.705  19.663  0.00  0.00    +0.000 C 
ATOM     11  C   UNL     1       1.044  10.142  19.139  0.00  0.00    +0.000 C 
ATOM     12  C   UNL     1      -0.047  10.993  19.786  0.00  0.00    +0.000 C 
BRANCH   7  14
ATOM     13  C   UNL     1      -0.535  13.175  22.284  0.00  0.00    +0.000 C 
ATOM     14  N   UNL     1      -1.016  11.829  21.948  0.00  0.00    +0.000 NA
ATOM     15  C   UNL     1      -1.559  11.217  23.168  0.00  0.00    +0.000 C 
ENDBRANCH   7  14
ENDBRANCH   1  10
BRANCH   4  16
ATOM     16  O   UNL     1       5.286   5.653  17.428  0.00  0.00    +0.000 OA
BRANCH  16  17
ATOM     17  C   UNL     1       5.275   4.242  17.654  0.00  0.00    +0.000 C 
BRANCH  17  18
ATOM     18  C   UNL     1       4.144   3.589  16.872  0.00  0.00    +0.000 C 
BRANCH  18  19
ATOM     19  C   UNL     1       3.438   2.522  17.720  0.00  0.00    +0.000 C 
BRANCH  19  20
ATOM     20  N   UNL     1       2.826   3.040  18.959  0.00  0.00    +0.000 NA
ATOM     21  C   UNL     1       1.355   3.008  18.905  0.00  0.00    +0.000 C 
ATOM     22  C   UNL     1       0.734   3.588  20.174  0.00  0.00    +0.000 C 
ATOM     23  C   UNL     1       1.229   2.857  21.413  0.00  0.00    +0.000 C 
ATOM     24  C   UNL     1       2.752   2.838  21.437  0.00  0.00    +0.000 C 
ATOM     25  C   UNL     1       3.326   2.294  20.127  0.00  0.00    +0.000 C 
ENDBRANCH  19  20
ENDBRANCH  18  19
ENDBRANCH  17  18
ENDBRANCH  16  17
ENDBRANCH   4  16
TORSDOF 7
ENDMDL
MODEL 7
REMARK VINA RESULT:      -6.9      5.515      7.177
REMARK  Name = 
REMARK  9 active torsions:
REMARK  status: ('A' for Active; 'I' for Inactive)
REMARK    1  A    between atoms: C_1  and  N_2
REMARK    2  A    between atoms: N_2  and  C_3
REMARK    3  A    between atoms: N_2  and  C_4
REMARK    4  A    between atoms: C_7  and  C_8
REMARK    5  A    between atoms: C_11  and  O_12
REMARK    6  A    between atoms: O_12  and  C_13
REMARK    7  A    between atoms: C_13  and  C_14
REMARK    8  A    between atoms: C_14  and  C_15
REMARK    9  A    between atoms: C_15  and  N_16
REMARK                            x       y       z     vdW  Elec       q    Type
REMARK                         _______ _______ _______ _____ _____    ______ ____
ROOT
ATOM      1  C   UNL     1       8.263   8.526  18.193  0.00  0.00    +0.000 A 
ATOM      2  C   UNL     1       7.251   8.362  17.247  0.00  0.00    +0.000 A 
ATOM      3  C   UNL     1       6.548   7.163  17.159  0.00  0.00    +0.000 A 
ATOM      4  C   UNL     1       6.842   6.099  18.017  0.00  0.00    +0.000 A 
ATOM      5  C   UNL     1       7.865   6.246  18.952  0.00  0.00    +0.000 A 
ATOM      6  C   UNL     1       8.576   7.448  19.040  0.00  0.00    +0.000 A 
ENDROOT
BRANCH   1  10
ATOM      7  C   UNL     1       9.177  12.687  19.236  0.00  0.00    +0.000 C 
ATOM      8  C   UNL     1       8.823  12.336  17.771  0.00  0.00    +0.000 C 
ATOM      9  C   UNL     1       8.140  10.975  17.650  0.00  0.00    +0.000 C 
ATOM     10  C   UNL     1       8.978   9.858  18.280  0.00  0.00    +0.000 C 
ATOM     11  C   UNL     1       9.369  10.190  19.721  0.00  0.00    +0.000 C 
ATOM     12  C   UNL     1      10.051  11.553  19.817  0.00  0.00    +0.000 C 
BRANCH   7  14
ATOM     13  C   UNL     1      10.882  14.023  20.384  0.00  0.00    +0.000 C 
ATOM     14  N   UNL     1       9.852  14.010  19.337  0.00  0.00    +0.000 NA
ATOM     15  C   UNL     1       8.903  15.097  19.613  0.00  0.00    +0.000 C 
ENDBRANCH   7  14
ENDBRANCH   1  10
BRANCH   4  16
ATOM     16  O   UNL     1       6.190   4.891  18.031  0.00  0.00    +0.000 OA
BRANCH  16  17
ATOM     17  C   UNL     1       4.766   4.990  17.972  0.00  0.00    +0.000 C 
BRANCH  17  18
ATOM     18  C   UNL     1       4.215   4.076  16.887  0.00  0.00    +0.000 C 
BRANCH  18  19
ATOM     19  C   UNL     1       3.235   3.053  17.479  0.00  0.00    +0.000 C 
BRANCH  19  20
ATOM     20  N   UNL     1       2.776   3.373  18.843  0.00  0.00    +0.000 NA
ATOM     21  C   UNL     1       1.318   3.575  18.902  0.00  0.00    +0.000 C 
ATOM     22  C   UNL     1       0.860   3.950  20.310  0.00  0.00    +0.000 C 
ATOM     23  C   UNL     1       1.286   2.899  21.326  0.00  0.00    +0.000 C 
ATOM     24  C   UNL     1       2.784   2.647  21.223  0.00  0.00    +0.000 C 
ATOM     25  C   UNL     1       3.200   2.323  19.786  0.00  0.00    +0.000 C 
ENDBRANCH  19  20
ENDBRANCH  18  19
ENDBRANCH  17  18
ENDBRANCH  16  17
ENDBRANCH   4  16
TORSDOF 7
ENDMDL
MODEL 8
REMARK VINA RESULT:      -6.9      0.888      1.707
REMARK  Name = 
REMARK  9 active torsions:
REMARK  status: ('A' for Active; 'I' for Inactive)
REMARK    1  A    between atoms: C_1  and  N_2
REMARK    2  A    between atoms: N_2  and  C_3
REMARK    3  A    between atoms: N_2  and  C_4
REMARK    4  A    between atoms: C_7  and  C_8
REMARK    5  A    between atoms: C_11  and  O_12
REMARK    6  A    between atoms: O_12  and  C_13
REMARK    7  A    between atoms: C_13  and  C_14
REMARK    8  A    between atoms: C_14  and  C_15
REMARK    9  A    between atoms: C_15  and  N_16
REMARK                            x       y       z     vdW  Elec       q    Type
REMARK                         _______ _______ _______ _____ _____    ______ ____
ROOT
ATOM      1  C   UNL     1       1.173   9.515  19.907  0.00  0.00    +0.000 A 
ATOM      2  C   UNL     1       1.450   9.657  18.547  0.00  0.00    +0.000 A 
ATOM      3  C   UNL     1       2.038   8.618  17.830  0.00  0.00    +0.000 A 
ATOM      4  C   UNL     1       2.363   7.412  18.458  0.00  0.00    +0.000 A 
ATOM      5  C   UNL     1       2.109   7.268  19.820  0.00  0.00    +0.000 A 
ATOM      6  C   UNL     1       1.522   8.312  20.544  0.00  0.00    +0.000 A 
ENDROOT
BRANCH   1  10
ATOM      7  C   UNL     1      -1.903  11.944  21.876  0.00  0.00    +0.000 C 
ATOM      8  C   UNL     1      -1.318  12.417  20.524  0.00  0.00    +0.000 C 
ATOM      9  C   UNL     1      -0.594  11.296  19.782  0.00  0.00    +0.000 C 
ATOM     10  C   UNL     1       0.500  10.656  20.642  0.00  0.00    +0.000 C 
ATOM     11  C   UNL     1      -0.043  10.203  21.999  0.00  0.00    +0.000 C 
ATOM     12  C   UNL     1      -0.760  11.341  22.723  0.00  0.00    +0.000 C 
BRANCH   7  14
ATOM     13  C   UNL     1      -1.681  13.794  23.468  0.00  0.00    +0.000 C 
ATOM     14  N   UNL     1      -2.596  13.050  22.592  0.00  0.00    +0.000 NA
ATOM     15  C   UNL     1      -3.718  12.566  23.407  0.00  0.00    +0.000 C 
ENDBRANCH   7  14
ENDBRANCH   1  10
BRANCH   4  16
ATOM     16  O   UNL     1       2.916   6.320  17.835  0.00  0.00    +0.000 OA
BRANCH  16  17
ATOM     17  C   UNL     1       4.344   6.288  17.864  0.00  0.00    +0.000 C 
BRANCH  17  18
ATOM     18  C   UNL     1       4.831   5.254  18.870  0.00  0.00    +0.000 C 
BRANCH  18  19
ATOM     19  C   UNL     1       4.560   3.830  18.365  0.00  0.00    +0.000 C 
BRANCH  19  20
ATOM     20  N   UNL     1       3.418   3.162  19.018  0.00  0.00    +0.000 NA
ATOM     21  C   UNL     1       3.059   3.804  20.294  0.00  0.00    +0.000 C 
ATOM     22  C   UNL     1       1.906   3.077  20.982  0.00  0.00    +0.000 C 
ATOM     23  C   UNL     1       0.686   2.996  20.075  0.00  0.00    +0.000 C 
ATOM     24  C   UNL     1       1.071   2.388  18.732  0.00  0.00    +0.000 C 
ATOM     25  C   UNL     1       2.261   3.120  18.106  0.00  0.00    +0.000 C 
ENDBRANCH  19  20
ENDBRANCH  18  19
ENDBRANCH  17  18
ENDBRANCH  16  17
ENDBRANCH   4  16
TORSDOF 7
ENDMDL
MODEL 9
REMARK VINA RESULT:      -6.8      0.647      1.386
REMARK  Name = 
REMARK  9 active torsions:
REMARK  status: ('A' for Active; 'I' for Inactive)
REMARK    1  A    between atoms: C_1  and  N_2
REMARK    2  A    between atoms: N_2  and  C_3
REMARK    3  A    between atoms: N_2  and  C_4
REMARK    4  A    between atoms: C_7  and  C_8
REMARK    5  A    between atoms: C_11  and  O_12
REMARK    6  A    between atoms: O_12  and  C_13
REMARK    7  A    between atoms: C_13  and  C_14
REMARK    8  A    between atoms: C_14  and  C_15
REMARK    9  A    between atoms: C_15  and  N_16
REMARK                            x       y       z     vdW  Elec       q    Type
REMARK                         _______ _______ _______ _____ _____    ______ ____
ROOT
ATOM      1  C   UNL     1       0.986   8.897  19.551  0.00  0.00    +0.000 A 
ATOM      2  C   UNL     1       1.560   7.801  20.197  0.00  0.00    +0.000 A 
ATOM      3  C   UNL     1       2.538   7.037  19.566  0.00  0.00    +0.000 A 
ATOM      4  C   UNL     1       2.965   7.352  18.273  0.00  0.00    +0.000 A 
ATOM      5  C   UNL     1       2.384   8.432  17.611  0.00  0.00    +0.000 A 
ATOM      6  C   UNL     1       1.398   9.200  18.241  0.00  0.00    +0.000 A 
ENDROOT
BRANCH   1  10
ATOM      7  C   UNL     1      -0.856  12.118  21.890  0.00  0.00    +0.000 C 
ATOM      8  C   UNL     1      -0.707  10.715  22.524  0.00  0.00    +0.000 C 
ATOM      9  C   UNL     1       0.298   9.844  21.774  0.00  0.00    +0.000 C 
ATOM     10  C   UNL     1      -0.048   9.723  20.286  0.00  0.00    +0.000 C 
ATOM     11  C   UNL     1      -0.231  11.097  19.637  0.00  0.00    +0.000 C 
ATOM     12  C   UNL     1      -1.242  11.949  20.403  0.00  0.00    +0.000 C 
BRANCH   7  14
ATOM     13  C   UNL     1      -1.198  13.898  23.540  0.00  0.00    +0.000 C 
ATOM     14  N   UNL     1      -1.848  12.951  22.624  0.00  0.00    +0.000 NA
ATOM     15  C   UNL     1      -2.791  12.134  23.401  0.00  0.00    +0.000 C 
ENDBRANCH   7  14
ENDBRANCH   1  10
BRANCH   4  16
ATOM     16  O   UNL     1       3.941   6.682  17.577  0.00  0.00    +0.000 OA
BRANCH  16  17
ATOM     17  C   UNL     1       4.964   6.115  18.397  0.00  0.00    +0.000 C 
BRANCH  17  18
ATOM     18  C   UNL     1       5.423   4.781  17.826  0.00  0.00    +0.000 C 
BRANCH  18  19
ATOM     19  C   UNL     1       4.848   3.612  18.638  0.00  0.00    +0.000 C 
BRANCH  19  20
ATOM     20  N   UNL     1       3.441   3.791  19.045  0.00  0.00    +0.000 NA
ATOM     21  C   UNL     1       2.503   3.319  18.012  0.00  0.00    +0.000 C 
ATOM     22  C   UNL     1       1.051   3.551  18.426  0.00  0.00    +0.000 C 
ATOM     23  C   UNL     1       0.744   2.883  19.759  0.00  0.00    +0.000 C 
ATOM     24  C   UNL     1       1.753   3.324  20.811  0.00  0.00    +0.000 C 
ATOM     25  C   UNL     1       3.191   3.117  20.331  0.00  0.00    +0.000 C 
ENDBRANCH  19  20
ENDBRANCH  18  19
ENDBRANCH  17  18
ENDBRANCH  16  17
ENDBRANCH   4  16
TORSDOF 7
ENDMDL
