MODEL 1
REMARK VINA RESULT:      -8.6      0.000      0.000
REMARK  Name = 
REMARK  7 active torsions:
REMARK  status: ('A' for Active; 'I' for Inactive)
REMARK    1  A    between atoms: C_2  and  C_4
REMARK    2  A    between atoms: C_7  and  N_8
REMARK    3  A    between atoms: C_9  and  C_11
REMARK    4  A    between atoms: C_11  and  N_12
REMARK    5  A    between atoms: C_11  and  C_23
REMARK    6  A    between atoms: N_12  and  S_13
REMARK    7  A    between atoms: S_13  and  C_16
REMARK                            x       y       z     vdW  Elec       q    Type
REMARK                         _______ _______ _______ _____ _____    ______ ____
ROOT
ATOM      1  C   UNL     1       3.384   5.636  19.168  0.00  0.00    +0.000 C 
ENDROOT
BRANCH   1   2
ATOM      2  C   UNL     1       2.554   4.356  18.818  0.00  0.00    +0.000 C 
ATOM      3  C   UNL     1       3.262   3.007  19.026  0.00  0.00    +0.000 C 
ATOM      4  C   UNL     1       3.535   2.682  20.481  0.00  0.00    +0.000 C 
ATOM      5  C   UNL     1       2.212   2.507  21.192  0.00  0.00    +0.000 C 
ATOM      6  C   UNL     1       1.361   3.766  21.046  0.00  0.00    +0.000 C 
ATOM      7  C   UNL     1       1.213   4.226  19.591  0.00  0.00    +0.000 C 
ENDBRANCH   1   2
BRANCH   1   9
ATOM      8  N   UNL     1       2.172   7.424  20.466  0.00  0.00    +0.000 N 
ATOM      9  C   UNL     1       2.441   6.907  19.198  0.00  0.00    +0.000 C 
ATOM     10  O   UNL     1       2.091   7.449  18.150  0.00  0.00    +0.000 OA
ATOM     11  H   UNL     1       2.737   7.069  21.231  0.00  0.00    +0.000 HD
BRANCH   8  15
ATOM     12  C   UNL     1      -0.413  10.682  21.419  0.00  0.00    +0.000 A 
ATOM     13  C   UNL     1       0.153  10.591  20.151  0.00  0.00    +0.000 A 
ATOM     14  C   UNL     1       1.007   9.525  19.823  0.00  0.00    +0.000 A 
ATOM     15  C   UNL     1       1.309   8.523  20.753  0.00  0.00    +0.000 A 
ATOM     16  C   UNL     1       0.708   8.603  22.020  0.00  0.00    +0.000 A 
ATOM     17  C   UNL     1      -0.141   9.678  22.355  0.00  0.00    +0.000 A 
BRANCH  12  19
ATOM     18  N   UNL     1      -2.147  12.261  20.870  0.00  0.00    +0.000 NA
ATOM     19  C   UNL     1      -1.296  11.841  21.750  0.00  0.00    +0.000 C 
ATOM     20  N   UNL     1      -1.189  12.476  22.952  0.00  0.00    +0.000 N 
ATOM     21  H   UNL     1      -2.694  13.035  21.252  0.00  0.00    +0.000 HD
ATOM     22  H   UNL     1      -1.554  13.421  22.975  0.00  0.00    +0.000 HD
ATOM     23  H   UNL     1      -0.274  12.428  23.386  0.00  0.00    +0.000 HD
ENDBRANCH  12  19
ENDBRANCH   8  15
ENDBRANCH   1   9
BRANCH   1  24
ATOM     24  N   UNL     1       4.366   6.052  18.113  0.00  0.00    +0.000 NA
ATOM     25  H   UNL     1       3.978   6.332  17.211  0.00  0.00    +0.000 HD
BRANCH  24  26
ATOM     26  S   UNL     1       5.976   5.631  18.022  0.00  0.00    +0.000 S 
ATOM     27  O   UNL     1       6.710   6.870  17.949  0.00  0.00    +0.000 OA
ATOM     28  O   UNL     1       6.253   4.660  19.060  0.00  0.00    +0.000 OA
BRANCH  26  29
ATOM     29  C   UNL     1       6.179   4.856  16.418  0.00  0.00    +0.000 A 
ATOM     30  C   UNL     1       7.289   5.173  15.625  0.00  0.00    +0.000 A 
ATOM     31  C   UNL     1       7.327   4.773  14.290  0.00  0.00    +0.000 A 
ATOM     32  C   UNL     1       6.281   4.020  13.769  0.00  0.00    +0.000 A 
ATOM     33  F   UNL     1       6.315   3.655  12.480  0.00  0.00    +0.000 F 
ATOM     34  C   UNL     1       5.190   3.661  14.557  0.00  0.00    +0.000 A 
ATOM     35  C   UNL     1       5.129   4.084  15.892  0.00  0.00    +0.000 A 
ENDBRANCH  26  29
ENDBRANCH  24  26
ENDBRANCH   1  24
TORSDOF 7
ENDMDL
MODEL 2
REMARK VINA RESULT:      -8.5      2.506      3.145
REMARK  Name = 
REMARK  7 active torsions:
REMARK  status: ('A' for Active; 'I' for Inactive)
REMARK    1  A    between atoms: C_2  and  C_4
REMARK    2  A    between atoms: C_7  and  N_8
REMARK    3  A    between atoms: C_9  and  C_11
REMARK    4  A    between atoms: C_11  and  N_12
REMARK    5  A    between atoms: C_11  and  C_23
REMARK    6  A    between atoms: N_12  and  S_13
REMARK    7  A    between atoms: S_13  and  C_16
REMARK                            x       y       z     vdW  Elec       q    Type
REMARK                         _______ _______ _______ _____ _____    ______ ____
ROOT
ATOM      1  C   UNL     1       3.178   5.385  19.868  0.00  0.00    +0.000 C 
ENDROOT
BRANCH   1   2
ATOM      2  C   UNL     1       2.228   4.573  20.811  0.00  0.00    +0.000 C 
ATOM      3  C   UNL     1       0.805   4.316  20.288  0.00  0.00    +0.000 C 
ATOM      4  C   UNL     1       0.756   3.382  19.094  0.00  0.00    +0.000 C 
ATOM      5  C   UNL     1       1.231   2.015  19.533  0.00  0.00    +0.000 C 
ATOM      6  C   UNL     1       2.636   2.105  20.121  0.00  0.00    +0.000 C 
ATOM      7  C   UNL     1       2.763   3.171  21.215  0.00  0.00    +0.000 C 
ENDBRANCH   1   2
BRANCH   1   9
ATOM      8  N   UNL     1       2.047   7.620  20.148  0.00  0.00    +0.000 N 
ATOM      9  C   UNL     1       2.404   6.618  19.246  0.00  0.00    +0.000 C 
ATOM     10  O   UNL     1       2.257   6.711  18.027  0.00  0.00    +0.000 OA
ATOM     11  H   UNL     1       2.465   7.569  21.072  0.00  0.00    +0.000 HD
BRANCH   8  15
ATOM     12  C   UNL     1      -0.228  11.132  19.312  0.00  0.00    +0.000 A 
ATOM     13  C   UNL     1       0.702  10.668  18.387  0.00  0.00    +0.000 A 
ATOM     14  C   UNL     1       1.460   9.515  18.648  0.00  0.00    +0.000 A 
ATOM     15  C   UNL     1       1.300   8.795  19.838  0.00  0.00    +0.000 A 
ATOM     16  C   UNL     1       0.336   9.249  20.754  0.00  0.00    +0.000 A 
ATOM     17  C   UNL     1      -0.418  10.413  20.499  0.00  0.00    +0.000 A 
BRANCH  12  19
ATOM     18  N   UNL     1      -1.774  12.871  19.934  0.00  0.00    +0.000 NA
ATOM     19  C   UNL     1      -1.000  12.378  19.021  0.00  0.00    +0.000 C 
ATOM     20  N   UNL     1      -0.921  12.976  17.798  0.00  0.00    +0.000 N 
ATOM     21  H   UNL     1      -2.208  13.732  19.598  0.00  0.00    +0.000 HD
ATOM     22  H   UNL     1      -1.697  13.584  17.565  0.00  0.00    +0.000 HD
ATOM     23  H   UNL     1      -0.699  12.355  17.028  0.00  0.00    +0.000 HD
ENDBRANCH  12  19
ENDBRANCH   8  15
ENDBRANCH   1   9
BRANCH   1  24
ATOM     24  N   UNL     1       3.586   4.662  18.619  0.00  0.00    +0.000 NA
ATOM     25  H   UNL     1       2.866   4.109  18.154  0.00  0.00    +0.000 HD
BRANCH  24  26
ATOM     26  S   UNL     1       5.131   4.213  18.184  0.00  0.00    +0.000 S 
ATOM     27  O   UNL     1       5.647   3.438  19.284  0.00  0.00    +0.000 OA
ATOM     28  O   UNL     1       5.087   3.667  16.844  0.00  0.00    +0.000 OA
BRANCH  26  29
ATOM     29  C   UNL     1       6.087   5.730  18.174  0.00  0.00    +0.000 A 
ATOM     30  C   UNL     1       5.742   6.766  17.297  0.00  0.00    +0.000 A 
ATOM     31  C   UNL     1       6.617   7.836  17.108  0.00  0.00    +0.000 A 
ATOM     32  C   UNL     1       7.805   7.888  17.828  0.00  0.00    +0.000 A 
ATOM     33  F   UNL     1       8.649   8.908  17.625  0.00  0.00    +0.000 F 
ATOM     34  C   UNL     1       8.141   6.885  18.734  0.00  0.00    +0.000 A 
ATOM     35  C   UNL     1       7.282   5.791  18.910  0.00  0.00    +0.000 A 
ENDBRANCH  26  29
ENDBRANCH  24  26
ENDBRANCH   1  24
TORSDOF 7
ENDMDL
MODEL 3
REMARK VINA RESULT:      -8.5      1.700      2.372
REMARK  Name = 
REMARK  7 active torsions:
REMARK  status: ('A' for Active; 'I' for Inactive)
REMARK    1  A    between atoms: C_2  and  C_4
REMARK    2  A    between atoms: C_7  and  N_8
REMARK    3  A    between atoms: C_9  and  C_11
REMARK    4  A    between atoms: C_11  and  N_12
REMARK    5  A    between atoms: C_11  and  C_23
REMARK    6  A    between atoms: N_12  and  S_13
REMARK    7  A    between atoms: S_13  and  C_16
REMARK                            x       y       z     vdW  Elec       q    Type
REMARK                         _______ _______ _______ _____ _____    ______ ____
ROOT
ATOM      1  C   UNL     1       4.429   3.877  19.111  0.00  0.00    +0.000 C 
ENDROOT
BRANCH   1   2
ATOM      2  C   UNL     1       3.570   2.607  19.423  0.00  0.00    +0.000 C 
ATOM      3  C   UNL     1       3.375   2.264  20.909  0.00  0.00    +0.000 C 
ATOM      4  C   UNL     1       2.527   3.272  21.659  0.00  0.00    +0.000 C 
ATOM      5  C   UNL     1       1.124   3.237  21.094  0.00  0.00    +0.000 C 
ATOM      6  C   UNL     1       1.149   3.524  19.595  0.00  0.00    +0.000 C 
ATOM      7  C   UNL     1       2.135   2.636  18.828  0.00  0.00    +0.000 C 
ENDBRANCH   1   2
BRANCH   1   9
ATOM      8  N   UNL     1       3.367   6.133  19.481  0.00  0.00    +0.000 N 
ATOM      9  C   UNL     1       3.499   5.054  18.606  0.00  0.00    +0.000 C 
ATOM     10  O   UNL     1       3.042   5.041  17.463  0.00  0.00    +0.000 OA
ATOM     11  H   UNL     1       4.008   6.161  20.267  0.00  0.00    +0.000 HD
BRANCH   8  15
ATOM     12  C   UNL     1       0.883   9.564  18.961  0.00  0.00    +0.000 A 
ATOM     13  C   UNL     1       1.612   9.063  17.887  0.00  0.00    +0.000 A 
ATOM     14  C   UNL     1       2.435   7.935  18.042  0.00  0.00    +0.000 A 
ATOM     15  C   UNL     1       2.543   7.279  19.274  0.00  0.00    +0.000 A 
ATOM     16  C   UNL     1       1.779   7.769  20.347  0.00  0.00    +0.000 A 
ATOM     17  C   UNL     1       0.961   8.908  20.196  0.00  0.00    +0.000 A 
BRANCH  12  19
ATOM     18  N   UNL     1       0.598  11.894  18.426  0.00  0.00    +0.000 NA
ATOM     19  C   UNL     1       0.037  10.782  18.775  0.00  0.00    +0.000 C 
ATOM     20  N   UNL     1      -1.307  10.736  19.000  0.00  0.00    +0.000 N 
ATOM     21  H   UNL     1      -0.109  12.622  18.311  0.00  0.00    +0.000 HD
ATOM     22  H   UNL     1      -1.744  11.632  19.185  0.00  0.00    +0.000 HD
ATOM     23  H   UNL     1      -1.609  10.037  19.670  0.00  0.00    +0.000 HD
ENDBRANCH  12  19
ENDBRANCH   8  15
ENDBRANCH   1   9
BRANCH   1  24
ATOM     24  N   UNL     1       5.351   3.736  17.937  0.00  0.00    +0.000 NA
ATOM     25  H   UNL     1       5.492   2.792  17.576  0.00  0.00    +0.000 HD
BRANCH  24  26
ATOM     26  S   UNL     1       6.556   4.792  17.479  0.00  0.00    +0.000 S 
ATOM     27  O   UNL     1       6.093   6.109  17.838  0.00  0.00    +0.000 OA
ATOM     28  O   UNL     1       7.819   4.285  17.973  0.00  0.00    +0.000 OA
BRANCH  26  29
ATOM     29  C   UNL     1       6.566   4.759  15.686  0.00  0.00    +0.000 A 
ATOM     30  C   UNL     1       5.651   3.950  14.998  0.00  0.00    +0.000 A 
ATOM     31  C   UNL     1       5.812   3.729  13.631  0.00  0.00    +0.000 A 
ATOM     32  C   UNL     1       6.853   4.350  12.951  0.00  0.00    +0.000 A 
ATOM     33  F   UNL     1       7.012   4.116  11.641  0.00  0.00    +0.000 F 
ATOM     34  C   UNL     1       7.745   5.189  13.614  0.00  0.00    +0.000 A 
ATOM     35  C   UNL     1       7.609   5.396  14.994  0.00  0.00    +0.000 A 
ENDBRANCH  26  29
ENDBRANCH  24  26
ENDBRANCH   1  24
TORSDOF 7
ENDMDL
MODEL 4
REMARK VINA RESULT:      -8.5      2.548      3.229
REMARK  Name = 
REMARK  7 active torsions:
REMARK  status: ('A' for Active; 'I' for Inactive)
REMARK    1  A    between atoms: C_2  and  C_4
REMARK    2  A    between atoms: C_7  and  N_8
REMARK    3  A    between atoms: C_9  and  C_11
REMARK    4  A    between atoms: C_11  and  N_12
REMARK    5  A    between atoms: C_11  and  C_23
REMARK    6  A    between atoms: N_12  and  S_13
REMARK    7  A    between atoms: S_13  and  C_16
REMARK                            x       y       z     vdW  Elec       q    Type
REMARK                         _______ _______ _______ _____ _____    ______ ____
ROOT
ATOM      1  C   UNL     1       3.122   5.364  19.919  0.00  0.00    +0.000 C 
ENDROOT
BRANCH   1   2
ATOM      2  C   UNL     1       2.148   4.561  20.843  0.00  0.00    +0.000 C 
ATOM      3  C   UNL     1       0.744   4.287  20.279  0.00  0.00    +0.000 C 
ATOM      4  C   UNL     1       0.738   3.335  19.099  0.00  0.00    +0.000 C 
ATOM      5  C   UNL     1       1.206   1.978  19.573  0.00  0.00    +0.000 C 
ATOM      6  C   UNL     1       2.592   2.085  20.204  0.00  0.00    +0.000 C 
ATOM      7  C   UNL     1       2.678   3.169  21.285  0.00  0.00    +0.000 C 
ENDBRANCH   1   2
BRANCH   1   9
ATOM      8  N   UNL     1       2.048   7.628  20.192  0.00  0.00    +0.000 N 
ATOM      9  C   UNL     1       2.376   6.613  19.294  0.00  0.00    +0.000 C 
ATOM     10  O   UNL     1       2.224   6.703  18.075  0.00  0.00    +0.000 OA
ATOM     11  H   UNL     1       2.469   7.572  21.114  0.00  0.00    +0.000 HD
BRANCH   8  15
ATOM     12  C   UNL     1      -0.054  11.200  19.176  0.00  0.00    +0.000 A 
ATOM     13  C   UNL     1      -0.457  10.442  20.271  0.00  0.00    +0.000 A 
ATOM     14  C   UNL     1       0.223   9.263  20.617  0.00  0.00    +0.000 A 
ATOM     15  C   UNL     1       1.328   8.819  19.880  0.00  0.00    +0.000 A 
ATOM     16  C   UNL     1       1.751   9.605  18.796  0.00  0.00    +0.000 A 
ATOM     17  C   UNL     1       1.062  10.783  18.439  0.00  0.00    +0.000 A 
BRANCH  12  19
ATOM     18  N   UNL     1      -1.288  12.556  17.615  0.00  0.00    +0.000 NA
ATOM     19  C   UNL     1      -0.813  12.434  18.813  0.00  0.00    +0.000 C 
ATOM     20  N   UNL     1      -0.979  13.440  19.718  0.00  0.00    +0.000 N 
ATOM     21  H   UNL     1      -1.803  13.434  17.530  0.00  0.00    +0.000 HD
ATOM     22  H   UNL     1      -1.190  14.348  19.320  0.00  0.00    +0.000 HD
ATOM     23  H   UNL     1      -0.254  13.510  20.424  0.00  0.00    +0.000 HD
ENDBRANCH  12  19
ENDBRANCH   8  15
ENDBRANCH   1   9
BRANCH   1  24
ATOM     24  N   UNL     1       3.537   4.644  18.671  0.00  0.00    +0.000 NA
ATOM     25  H   UNL     1       2.814   4.108  18.189  0.00  0.00    +0.000 HD
BRANCH  24  26
ATOM     26  S   UNL     1       5.080   4.167  18.257  0.00  0.00    +0.000 S 
ATOM     27  O   UNL     1       5.579   3.411  19.378  0.00  0.00    +0.000 OA
ATOM     28  O   UNL     1       5.039   3.591  16.929  0.00  0.00    +0.000 OA
BRANCH  26  29
ATOM     29  C   UNL     1       6.053   5.672  18.220  0.00  0.00    +0.000 A 
ATOM     30  C   UNL     1       5.714   6.701  17.331  0.00  0.00    +0.000 A 
ATOM     31  C   UNL     1       6.600   7.757  17.121  0.00  0.00    +0.000 A 
ATOM     32  C   UNL     1       7.793   7.805  17.832  0.00  0.00    +0.000 A 
ATOM     33  F   UNL     1       8.648   8.813  17.610  0.00  0.00    +0.000 F 
ATOM     34  C   UNL     1       8.124   6.812  18.750  0.00  0.00    +0.000 A 
ATOM     35  C   UNL     1       7.253   5.731  18.947  0.00  0.00    +0.000 A 
ENDBRANCH  26  29
ENDBRANCH  24  26
ENDBRANCH   1  24
TORSDOF 7
ENDMDL
MODEL 5
REMARK VINA RESULT:      -8.4      0.800      1.553
REMARK  Name = 
REMARK  7 active torsions:
REMARK  status: ('A' for Active; 'I' for Inactive)
REMARK    1  A    between atoms: C_2  and  C_4
REMARK    2  A    between atoms: C_7  and  N_8
REMARK    3  A    between atoms: C_9  and  C_11
REMARK    4  A    between atoms: C_11  and  N_12
REMARK    5  A    between atoms: C_11  and  C_23
REMARK    6  A    between atoms: N_12  and  S_13
REMARK    7  A    between atoms: S_13  and  C_16
REMARK                            x       y       z     vdW  Elec       q    Type
REMARK                         _______ _______ _______ _____ _____    ______ ____
ROOT
ATOM      1  C   UNL     1       3.537   5.571  19.615  0.00  0.00    +0.000 C 
ENDROOT
BRANCH   1   2
ATOM      2  C   UNL     1       2.622   4.376  20.044  0.00  0.00    +0.000 C 
ATOM      3  C   UNL     1       1.389   4.111  19.162  0.00  0.00    +0.000 C 
ATOM      4  C   UNL     1       1.732   3.617  17.771  0.00  0.00    +0.000 C 
ATOM      5  C   UNL     1       2.389   2.260  17.890  0.00  0.00    +0.000 C 
ATOM      6  C   UNL     1       3.626   2.345  18.779  0.00  0.00    +0.000 C 
ATOM      7  C   UNL     1       3.348   3.006  20.134  0.00  0.00    +0.000 C 
ENDBRANCH   1   2
BRANCH   1   9
ATOM      8  N   UNL     1       2.109   7.513  20.353  0.00  0.00    +0.000 N 
ATOM      9  C   UNL     1       2.652   6.836  19.262  0.00  0.00    +0.000 C 
ATOM     10  O   UNL     1       2.575   7.237  18.101  0.00  0.00    +0.000 OA
ATOM     11  H   UNL     1       2.468   7.261  21.269  0.00  0.00    +0.000 HD
BRANCH   8  15
ATOM     12  C   UNL     1      -0.519  10.873  20.251  0.00  0.00    +0.000 A 
ATOM     13  C   UNL     1       0.251  10.557  19.136  0.00  0.00    +0.000 A 
ATOM     14  C   UNL     1       1.121   9.456  19.155  0.00  0.00    +0.000 A 
ATOM     15  C   UNL     1       1.238   8.640  20.287  0.00  0.00    +0.000 A 
ATOM     16  C   UNL     1       0.433   8.944  21.398  0.00  0.00    +0.000 A 
ATOM     17  C   UNL     1      -0.433  10.057  21.386  0.00  0.00    +0.000 A 
BRANCH  12  19
ATOM     18  N   UNL     1      -1.909  12.524  21.321  0.00  0.00    +0.000 NA
ATOM     19  C   UNL     1      -1.416  12.068  20.214  0.00  0.00    +0.000 C 
ATOM     20  N   UNL     1      -1.744  12.655  19.028  0.00  0.00    +0.000 N 
ATOM     21  H   UNL     1      -2.474  13.354  21.136  0.00  0.00    +0.000 HD
ATOM     22  H   UNL     1      -2.589  13.214  19.042  0.00  0.00    +0.000 HD
ATOM     23  H   UNL     1      -1.726  12.039  18.222  0.00  0.00    +0.000 HD
ENDBRANCH  12  19
ENDBRANCH   8  15
ENDBRANCH   1   9
BRANCH   1  24
ATOM     24  N   UNL     1       4.258   5.372  18.316  0.00  0.00    +0.000 NA
ATOM     25  H   UNL     1       3.751   4.875  17.582  0.00  0.00    +0.000 HD
BRANCH  24  26
ATOM     26  S   UNL     1       5.907   5.374  18.076  0.00  0.00    +0.000 S 
ATOM     27  O   UNL     1       6.302   6.759  18.022  0.00  0.00    +0.000 OA
ATOM     28  O   UNL     1       6.508   4.464  19.029  0.00  0.00    +0.000 OA
BRANCH  26  29
ATOM     29  C   UNL     1       6.150   4.739  16.417  0.00  0.00    +0.000 A 
ATOM     30  C   UNL     1       7.291   5.104  15.690  0.00  0.00    +0.000 A 
ATOM     31  C   UNL     1       7.366   4.821  14.327  0.00  0.00    +0.000 A 
ATOM     32  C   UNL     1       6.326   4.136  13.709  0.00  0.00    +0.000 A 
ATOM     33  F   UNL     1       6.397   3.886  12.394  0.00  0.00    +0.000 F 
ATOM     34  C   UNL     1       5.205   3.730  14.428  0.00  0.00    +0.000 A 
ATOM     35  C   UNL     1       5.107   4.036  15.793  0.00  0.00    +0.000 A 
ENDBRANCH  26  29
ENDBRANCH  24  26
ENDBRANCH   1  24
TORSDOF 7
ENDMDL
MODEL 6
REMARK VINA RESULT:      -8.4      1.178      2.045
REMARK  Name = 
REMARK  7 active torsions:
REMARK  status: ('A' for Active; 'I' for Inactive)
REMARK    1  A    between atoms: C_2  and  C_4
REMARK    2  A    between atoms: C_7  and  N_8
REMARK    3  A    between atoms: C_9  and  C_11
REMARK    4  A    between atoms: C_11  and  N_12
REMARK    5  A    between atoms: C_11  and  C_23
REMARK    6  A    between atoms: N_12  and  S_13
REMARK    7  A    between atoms: S_13  and  C_16
REMARK                            x       y       z     vdW  Elec       q    Type
REMARK                         _______ _______ _______ _____ _____    ______ ____
ROOT
ATOM      1  C   UNL     1       3.387   5.387  19.900  0.00  0.00    +0.000 C 
ENDROOT
BRANCH   1   2
ATOM      2  C   UNL     1       2.435   4.296  20.493  0.00  0.00    +0.000 C 
ATOM      3  C   UNL     1       1.116   4.059  19.737  0.00  0.00    +0.000 C 
ATOM      4  C   UNL     1       1.305   3.441  18.366  0.00  0.00    +0.000 C 
ATOM      5  C   UNL     1       1.876   2.051  18.538  0.00  0.00    +0.000 C 
ATOM      6  C   UNL     1       3.188   2.110  19.315  0.00  0.00    +0.000 C 
ATOM      7  C   UNL     1       3.073   2.887  20.632  0.00  0.00    +0.000 C 
ENDBRANCH   1   2
BRANCH   1   9
ATOM      8  N   UNL     1       2.160   7.571  20.178  0.00  0.00    +0.000 N 
ATOM      9  C   UNL     1       2.540   6.572  19.281  0.00  0.00    +0.000 C 
ATOM     10  O   UNL     1       2.357   6.639  18.066  0.00  0.00    +0.000 OA
ATOM     11  H   UNL     1       2.604   7.554  21.091  0.00  0.00    +0.000 HD
BRANCH   8  15
ATOM     12  C   UNL     1      -0.217  10.969  19.174  0.00  0.00    +0.000 A 
ATOM     13  C   UNL     1      -0.485  10.249  20.334  0.00  0.00    +0.000 A 
ATOM     14  C   UNL     1       0.287   9.128  20.677  0.00  0.00    +0.000 A 
ATOM     15  C   UNL     1       1.350   8.704  19.871  0.00  0.00    +0.000 A 
ATOM     16  C   UNL     1       1.638   9.454  18.719  0.00  0.00    +0.000 A 
ATOM     17  C   UNL     1       0.857  10.574  18.367  0.00  0.00    +0.000 A 
BRANCH  12  19
ATOM     18  N   UNL     1      -1.474  12.939  19.755  0.00  0.00    +0.000 NA
ATOM     19  C   UNL     1      -1.072  12.142  18.818  0.00  0.00    +0.000 C 
ATOM     20  N   UNL     1      -1.456  12.356  17.528  0.00  0.00    +0.000 N 
ATOM     21  H   UNL     1      -2.021  13.703  19.354  0.00  0.00    +0.000 HD
ATOM     22  H   UNL     1      -2.278  12.938  17.414  0.00  0.00    +0.000 HD
ATOM     23  H   UNL     1      -1.514  11.525  16.950  0.00  0.00    +0.000 HD
ENDBRANCH  12  19
ENDBRANCH   8  15
ENDBRANCH   1   9
BRANCH   1  24
ATOM     24  N   UNL     1       4.164   4.949  18.694  0.00  0.00    +0.000 NA
ATOM     25  H   UNL     1       3.823   4.121  18.205  0.00  0.00    +0.000 HD
BRANCH  24  26
ATOM     26  S   UNL     1       5.759   5.291  18.353  0.00  0.00    +0.000 S 
ATOM     27  O   UNL     1       5.851   6.727  18.270  0.00  0.00    +0.000 OA
ATOM     28  O   UNL     1       6.593   4.543  19.270  0.00  0.00    +0.000 OA
BRANCH  26  29
ATOM     29  C   UNL     1       6.031   4.694  16.684  0.00  0.00    +0.000 A 
ATOM     30  C   UNL     1       7.215   5.020  16.010  0.00  0.00    +0.000 A 
ATOM     31  C   UNL     1       7.325   4.774  14.642  0.00  0.00    +0.000 A 
ATOM     32  C   UNL     1       6.275   4.164  13.966  0.00  0.00    +0.000 A 
ATOM     33  F   UNL     1       6.382   3.949  12.648  0.00  0.00    +0.000 F 
ATOM     34  C   UNL     1       5.109   3.796  14.632  0.00  0.00    +0.000 A 
ATOM     35  C   UNL     1       4.976   4.065  16.001  0.00  0.00    +0.000 A 
ENDBRANCH  26  29
ENDBRANCH  24  26
ENDBRANCH   1  24
TORSDOF 7
ENDMDL
MODEL 7
REMARK VINA RESULT:      -8.4      1.519      2.174
REMARK  Name = 
REMARK  7 active torsions:
REMARK  status: ('A' for Active; 'I' for Inactive)
REMARK    1  A    between atoms: C_2  and  C_4
REMARK    2  A    between atoms: C_7  and  N_8
REMARK    3  A    between atoms: C_9  and  C_11
REMARK    4  A    between atoms: C_11  and  N_12
REMARK    5  A    between atoms: C_11  and  C_23
REMARK    6  A    between atoms: N_12  and  S_13
REMARK    7  A    between atoms: S_13  and  C_16
REMARK                            x       y       z     vdW  Elec       q    Type
REMARK                         _______ _______ _______ _____ _____    ______ ____
ROOT
ATOM      1  C   UNL     1       3.055   5.578  20.214  0.00  0.00    +0.000 C 
ENDROOT
BRANCH   1   2
ATOM      2  C   UNL     1       1.993   4.703  20.960  0.00  0.00    +0.000 C 
ATOM      3  C   UNL     1       0.736   4.326  20.157  0.00  0.00    +0.000 C 
ATOM      4  C   UNL     1       1.013   3.376  19.008  0.00  0.00    +0.000 C 
ATOM      5  C   UNL     1       1.487   2.057  19.576  0.00  0.00    +0.000 C 
ATOM      6  C   UNL     1       2.725   2.267  20.444  0.00  0.00    +0.000 C 
ATOM      7  C   UNL     1       2.536   3.355  21.508  0.00  0.00    +0.000 C 
ENDBRANCH   1   2
BRANCH   1   9
ATOM      8  N   UNL     1       1.892   7.813  20.249  0.00  0.00    +0.000 N 
ATOM      9  C   UNL     1       2.343   6.765  19.447  0.00  0.00    +0.000 C 
ATOM     10  O   UNL     1       2.319   6.786  18.216  0.00  0.00    +0.000 OA
ATOM     11  H   UNL     1       2.215   7.820  21.211  0.00  0.00    +0.000 HD
BRANCH   8  15
ATOM     12  C   UNL     1      -0.307  11.244  18.983  0.00  0.00    +0.000 A 
ATOM     13  C   UNL     1       0.764  10.784  18.223  0.00  0.00    +0.000 A 
ATOM     14  C   UNL     1       1.498   9.657  18.627  0.00  0.00    +0.000 A 
ATOM     15  C   UNL     1       1.175   8.960  19.797  0.00  0.00    +0.000 A 
ATOM     16  C   UNL     1       0.072   9.409  20.543  0.00  0.00    +0.000 A 
ATOM     17  C   UNL     1      -0.660  10.547  20.145  0.00  0.00    +0.000 A 
BRANCH  12  19
ATOM     18  N   UNL     1      -2.066  12.331  17.750  0.00  0.00    +0.000 NA
ATOM     19  C   UNL     1      -1.053  12.462  18.544  0.00  0.00    +0.000 C 
ATOM     20  N   UNL     1      -0.657  13.703  18.947  0.00  0.00    +0.000 N 
ATOM     21  H   UNL     1      -2.487  13.244  17.565  0.00  0.00    +0.000 HD
ATOM     22  H   UNL     1      -0.977  14.468  18.363  0.00  0.00    +0.000 HD
ATOM     23  H   UNL     1       0.330  13.793  19.159  0.00  0.00    +0.000 HD
ENDBRANCH  12  19
ENDBRANCH   8  15
ENDBRANCH   1   9
BRANCH   1  24
ATOM     24  N   UNL     1       3.742   4.889  19.073  0.00  0.00    +0.000 NA
ATOM     25  H   UNL     1       3.157   4.309  18.469  0.00  0.00    +0.000 HD
BRANCH  24  26
ATOM     26  S   UNL     1       5.362   4.515  18.958  0.00  0.00    +0.000 S 
ATOM     27  O   UNL     1       6.066   5.576  19.635  0.00  0.00    +0.000 OA
ATOM     28  O   UNL     1       5.541   3.133  19.349  0.00  0.00    +0.000 OA
BRANCH  26  29
ATOM     29  C   UNL     1       5.773   4.697  17.222  0.00  0.00    +0.000 A 
ATOM     30  C   UNL     1       4.805   4.434  16.244  0.00  0.00    +0.000 A 
ATOM     31  C   UNL     1       5.180   4.332  14.905  0.00  0.00    +0.000 A 
ATOM     32  C   UNL     1       6.507   4.539  14.545  0.00  0.00    +0.000 A 
ATOM     33  F   UNL     1       6.863   4.419  13.259  0.00  0.00    +0.000 F 
ATOM     34  C   UNL     1       7.472   4.843  15.501  0.00  0.00    +0.000 A 
ATOM     35  C   UNL     1       7.110   4.919  16.854  0.00  0.00    +0.000 A 
ENDBRANCH  26  29
ENDBRANCH  24  26
ENDBRANCH   1  24
TORSDOF 7
ENDMDL
MODEL 8
REMARK VINA RESULT:      -8.4      0.845      1.047
REMARK  Name = 
REMARK  7 active torsions:
REMARK  status: ('A' for Active; 'I' for Inactive)
REMARK    1  A    between atoms: C_2  and  C_4
REMARK    2  A    between atoms: C_7  and  N_8
REMARK    3  A    between atoms: C_9  and  C_11
REMARK    4  A    between atoms: C_11  and  N_12
REMARK    5  A    between atoms: C_11  and  C_23
REMARK    6  A    between atoms: N_12  and  S_13
REMARK    7  A    between atoms: S_13  and  C_16
REMARK                            x       y       z     vdW  Elec       q    Type
REMARK                         _______ _______ _______ _____ _____    ______ ____
ROOT
ATOM      1  C   UNL     1       3.107   5.635  18.537  0.00  0.00    +0.000 C 
ENDROOT
BRANCH   1   2
ATOM      2  C   UNL     1       2.019   4.592  18.117  0.00  0.00    +0.000 C 
ATOM      3  C   UNL     1       2.504   3.408  17.262  0.00  0.00    +0.000 C 
ATOM      4  C   UNL     1       3.422   2.458  18.005  0.00  0.00    +0.000 C 
ATOM      5  C   UNL     1       2.637   1.801  19.118  0.00  0.00    +0.000 C 
ATOM      6  C   UNL     1       2.048   2.858  20.048  0.00  0.00    +0.000 C 
ATOM      7  C   UNL     1       1.257   3.940  19.304  0.00  0.00    +0.000 C 
ENDBRANCH   1   2
BRANCH   1   9
ATOM      8  N   UNL     1       2.044   7.254  20.150  0.00  0.00    +0.000 N 
ATOM      9  C   UNL     1       2.434   7.038  18.828  0.00  0.00    +0.000 C 
ATOM     10  O   UNL     1       2.388   7.902  17.952  0.00  0.00    +0.000 OA
ATOM     11  H   UNL     1       2.384   6.590  20.838  0.00  0.00    +0.000 HD
BRANCH   8  15
ATOM     12  C   UNL     1       0.040  10.680  21.717  0.00  0.00    +0.000 A 
ATOM     13  C   UNL     1       0.303  10.590  20.354  0.00  0.00    +0.000 A 
ATOM     14  C   UNL     1       0.963   9.470  19.823  0.00  0.00    +0.000 A 
ATOM     15  C   UNL     1       1.370   8.410  20.643  0.00  0.00    +0.000 A 
ATOM     16  C   UNL     1       1.072   8.491  22.013  0.00  0.00    +0.000 A 
ATOM     17  C   UNL     1       0.420   9.620  22.550  0.00  0.00    +0.000 A 
BRANCH  12  19
ATOM     18  N   UNL     1      -1.687  11.756  23.005  0.00  0.00    +0.000 NA
ATOM     19  C   UNL     1      -0.639  11.896  22.259  0.00  0.00    +0.000 C 
ATOM     20  N   UNL     1      -0.184  13.143  21.949  0.00  0.00    +0.000 N 
ATOM     21  H   UNL     1      -2.018  12.670  23.320  0.00  0.00    +0.000 HD
ATOM     22  H   UNL     1      -0.862  13.889  22.057  0.00  0.00    +0.000 HD
ATOM     23  H   UNL     1       0.302  13.217  21.061  0.00  0.00    +0.000 HD
ENDBRANCH  12  19
ENDBRANCH   8  15
ENDBRANCH   1   9
BRANCH   1  24
ATOM     24  N   UNL     1       4.063   6.014  17.446  0.00  0.00    +0.000 NA
ATOM     25  H   UNL     1       3.677   6.091  16.504  0.00  0.00    +0.000 HD
BRANCH  24  26
ATOM     26  S   UNL     1       5.718   5.817  17.452  0.00  0.00    +0.000 S 
ATOM     27  O   UNL     1       6.280   7.142  17.373  0.00  0.00    +0.000 OA
ATOM     28  O   UNL     1       6.067   4.922  18.536  0.00  0.00    +0.000 OA
BRANCH  26  29
ATOM     29  C   UNL     1       6.113   5.034  15.888  0.00  0.00    +0.000 A 
ATOM     30  C   UNL     1       7.330   5.315  15.254  0.00  0.00    +0.000 A 
ATOM     31  C   UNL     1       7.537   4.911  13.936  0.00  0.00    +0.000 A 
ATOM     32  C   UNL     1       6.548   4.192  13.274  0.00  0.00    +0.000 A 
ATOM     33  F   UNL     1       6.746   3.825  12.001  0.00  0.00    +0.000 F 
ATOM     34  C   UNL     1       5.350   3.869  13.905  0.00  0.00    +0.000 A 
ATOM     35  C   UNL     1       5.121   4.295  15.221  0.00  0.00    +0.000 A 
ENDBRANCH  26  29
ENDBRANCH  24  26
ENDBRANCH   1  24
TORSDOF 7
ENDMDL
MODEL 9
REMARK VINA RESULT:      -8.4      1.136      2.150
REMARK  Name = 
REMARK  7 active torsions:
REMARK  status: ('A' for Active; 'I' for Inactive)
REMARK    1  A    between atoms: C_2  and  C_4
REMARK    2  A    between atoms: C_7  and  N_8
REMARK    3  A    between atoms: C_9  and  C_11
REMARK    4  A    between atoms: C_11  and  N_12
REMARK    5  A    between atoms: C_11  and  C_23
REMARK    6  A    between atoms: N_12  and  S_13
REMARK    7  A    between atoms: S_13  and  C_16
REMARK                            x       y       z     vdW  Elec       q    Type
REMARK                         _______ _______ _______ _____ _____    ______ ____
ROOT
ATOM      1  C   UNL     1       3.559   5.433  19.730  0.00  0.00    +0.000 C 
ENDROOT
BRANCH   1   2
ATOM      2  C   UNL     1       2.648   4.345  20.391  0.00  0.00    +0.000 C 
ATOM      3  C   UNL     1       1.269   4.128  19.746  0.00  0.00    +0.000 C 
ATOM      4  C   UNL     1       1.337   3.521  18.358  0.00  0.00    +0.000 C 
ATOM      5  C   UNL     1       1.907   2.125  18.470  0.00  0.00    +0.000 C 
ATOM      6  C   UNL     1       3.279   2.163  19.136  0.00  0.00    +0.000 C 
ATOM      7  C   UNL     1       3.282   2.929  20.464  0.00  0.00    +0.000 C 
ENDBRANCH   1   2
BRANCH   1   9
ATOM      8  N   UNL     1       2.201   7.524  20.094  0.00  0.00    +0.000 N 
ATOM      9  C   UNL     1       2.673   6.610  19.152  0.00  0.00    +0.000 C 
ATOM     10  O   UNL     1       2.534   6.747  17.937  0.00  0.00    +0.000 OA
ATOM     11  H   UNL     1       2.608   7.471  21.022  0.00  0.00    +0.000 HD
BRANCH   8  15
ATOM     12  C   UNL     1      -0.340  10.833  19.199  0.00  0.00    +0.000 A 
ATOM     13  C   UNL     1      -0.403  10.225  20.448  0.00  0.00    +0.000 A 
ATOM     14  C   UNL     1       0.426   9.134  20.758  0.00  0.00    +0.000 A 
ATOM     15  C   UNL     1       1.342   8.631  19.826  0.00  0.00    +0.000 A 
ATOM     16  C   UNL     1       1.424   9.270  18.578  0.00  0.00    +0.000 A 
ATOM     17  C   UNL     1       0.585  10.358  18.261  0.00  0.00    +0.000 A 
BRANCH  12  19
ATOM     18  N   UNL     1      -1.092  12.630  17.782  0.00  0.00    +0.000 NA
ATOM     19  C   UNL     1      -1.253  11.974  18.886  0.00  0.00    +0.000 C 
ATOM     20  N   UNL     1      -2.226  12.347  19.765  0.00  0.00    +0.000 N 
ATOM     21  H   UNL     1      -1.805  13.356  17.699  0.00  0.00    +0.000 HD
ATOM     22  H   UNL     1      -2.564  13.296  19.657  0.00  0.00    +0.000 HD
ATOM     23  H   UNL     1      -2.033  12.137  20.738  0.00  0.00    +0.000 HD
ENDBRANCH  12  19
ENDBRANCH   8  15
ENDBRANCH   1   9
BRANCH   1  24
ATOM     24  N   UNL     1       4.262   4.985  18.483  0.00  0.00    +0.000 NA
ATOM     25  H   UNL     1       3.842   4.206  17.975  0.00  0.00    +0.000 HD
BRANCH  24  26
ATOM     26  S   UNL     1       5.869   5.216  18.103  0.00  0.00    +0.000 S 
ATOM     27  O   UNL     1       6.124   6.623  18.281  0.00  0.00    +0.000 OA
ATOM     28  O   UNL     1       6.651   4.221  18.805  0.00  0.00    +0.000 OA
BRANCH  26  29
ATOM     29  C   UNL     1       5.988   4.926  16.337  0.00  0.00    +0.000 A 
ATOM     30  C   UNL     1       4.969   4.231  15.673  0.00  0.00    +0.000 A 
ATOM     31  C   UNL     1       5.168   3.788  14.366  0.00  0.00    +0.000 A 
ATOM     32  C   UNL     1       6.361   4.081  13.715  0.00  0.00    +0.000 A 
ATOM     33  F   UNL     1       6.551   3.635  12.466  0.00  0.00    +0.000 F 
ATOM     34  C   UNL     1       7.366   4.807  14.348  0.00  0.00    +0.000 A 
ATOM     35  C   UNL     1       7.187   5.231  15.672  0.00  0.00    +0.000 A 
ENDBRANCH  26  29
ENDBRANCH  24  26
ENDBRANCH   1  24
TORSDOF 7
ENDMDL
