MODEL 1
REMARK VINA RESULT:      -7.0      0.000      0.000
REMARK  Name = 
REMARK  7 active torsions:
REMARK  status: ('A' for Active; 'I' for Inactive)
REMARK    1  A    between atoms: C_1  and  C_2
REMARK    2  A    between atoms: C_2  and  C_3
REMARK    3  A    between atoms: C_3  and  C_4
REMARK    4  A    between atoms: C_9  and  C_11
REMARK    5  A    between atoms: C_11  and  C_12
REMARK    6  A    between atoms: C_12  and  C_13
REMARK    7  A    between atoms: C_18  and  C_19
REMARK                            x       y       z     vdW  Elec       q    Type
REMARK                         _______ _______ _______ _____ _____    ______ ____
ROOT
ATOM      1  C   UNL     1       6.886   4.909  15.497  0.00  0.00    +0.000 A 
ATOM      2  N   UNL     1       7.311   5.714  16.447  0.00  0.00    +0.000 NA
ATOM      3  N   UNL     1       6.861   5.317  17.691  0.00  0.00    +0.000 NA
ATOM      4  C   UNL     1       6.049   4.286  17.619  0.00  0.00    +0.000 A 
ATOM      5  N   UNL     1       5.445   3.722  18.712  0.00  0.00    +0.000 N 
ATOM      6  C   UNL     1       4.445   2.784  18.706  0.00  0.00    +0.000 C 
ATOM      7  O   UNL     1       3.852   2.334  17.722  0.00  0.00    +0.000 OA
ATOM      8  S   UNL     1       5.875   3.641  16.052  0.00  0.00    +0.000 S 
ATOM      9  H   UNL     1       5.903   3.948  19.591  0.00  0.00    +0.000 HD
ENDROOT
BRANCH   1  10
ATOM     10  C   UNL     1       7.228   5.025  14.048  0.00  0.00    +0.000 C 
BRANCH  10  12
ATOM     11  C   UNL     1       7.080   3.859  11.818  0.00  0.00    +0.000 C 
ATOM     12  C   UNL     1       6.474   3.995  13.206  0.00  0.00    +0.000 C 
ENDBRANCH  10  12
ENDBRANCH   1  10
BRANCH   6  13
ATOM     13  C   UNL     1       4.064   2.293  20.089  0.00  0.00    +0.000 C 
BRANCH  13  14
ATOM     14  C   UNL     1       2.589   2.524  20.381  0.00  0.00    +0.000 C 
BRANCH  14  15
ATOM     15  C   UNL     1       2.300   3.880  21.003  0.00  0.00    +0.000 C 
ATOM     16  O   UNL     1       2.462   4.076  22.207  0.00  0.00    +0.000 OA
ATOM     17  N   UNL     1       1.869   4.877  20.144  0.00  0.00    +0.000 N 
ATOM     18  C   UNL     1       1.697   4.734  18.702  0.00  0.00    +0.000 C 
ATOM     19  C   UNL     1       2.398   5.863  17.950  0.00  0.00    +0.000 C 
ATOM     20  C   UNL     1       1.999   7.245  18.489  0.00  0.00    +0.000 C 
ATOM     21  C   UNL     1       2.816   8.342  17.810  0.00  0.00    +0.000 C 
ATOM     22  C   UNL     1       2.177   7.304  20.011  0.00  0.00    +0.000 C 
ATOM     23  C   UNL     1       1.450   6.159  20.702  0.00  0.00    +0.000 C 
ENDBRANCH  14  15
ENDBRANCH  13  14
ENDBRANCH   6  13
TORSDOF 5
ENDMDL
MODEL 2
REMARK VINA RESULT:      -7.0      2.389      4.362
REMARK  Name = 
REMARK  7 active torsions:
REMARK  status: ('A' for Active; 'I' for Inactive)
REMARK    1  A    between atoms: C_1  and  C_2
REMARK    2  A    between atoms: C_2  and  C_3
REMARK    3  A    between atoms: C_3  and  C_4
REMARK    4  A    between atoms: C_9  and  C_11
REMARK    5  A    between atoms: C_11  and  C_12
REMARK    6  A    between atoms: C_12  and  C_13
REMARK    7  A    between atoms: C_18  and  C_19
REMARK                            x       y       z     vdW  Elec       q    Type
REMARK                         _______ _______ _______ _____ _____    ______ ____
ROOT
ATOM      1  C   UNL     1       6.147   3.337  12.372  0.00  0.00    +0.000 A 
ATOM      2  N   UNL     1       7.264   3.972  12.085  0.00  0.00    +0.000 NA
ATOM      3  N   UNL     1       7.625   4.849  13.090  0.00  0.00    +0.000 NA
ATOM      4  C   UNL     1       6.726   4.902  14.048  0.00  0.00    +0.000 A 
ATOM      5  N   UNL     1       6.836   5.719  15.142  0.00  0.00    +0.000 N 
ATOM      6  C   UNL     1       5.865   5.980  16.075  0.00  0.00    +0.000 C 
ATOM      7  O   UNL     1       4.694   5.592  16.059  0.00  0.00    +0.000 OA
ATOM      8  S   UNL     1       5.442   3.799  13.864  0.00  0.00    +0.000 S 
ATOM      9  H   UNL     1       7.786   6.038  15.317  0.00  0.00    +0.000 HD
ENDROOT
BRANCH   1  10
ATOM     10  C   UNL     1       5.507   2.288  11.524  0.00  0.00    +0.000 C 
BRANCH  10  12
ATOM     11  C   UNL     1       6.218  -0.120  11.300  0.00  0.00    +0.000 C 
ATOM     12  C   UNL     1       6.541   1.323  10.944  0.00  0.00    +0.000 C 
ENDBRANCH  10  12
ENDBRANCH   1  10
BRANCH   6  13
ATOM     13  C   UNL     1       6.341   6.853  17.219  0.00  0.00    +0.000 C 
BRANCH  13  14
ATOM     14  C   UNL     1       5.677   6.470  18.533  0.00  0.00    +0.000 C 
BRANCH  14  15
ATOM     15  C   UNL     1       5.720   4.979  18.821  0.00  0.00    +0.000 C 
ATOM     16  O   UNL     1       6.788   4.369  18.859  0.00  0.00    +0.000 OA
ATOM     17  N   UNL     1       4.505   4.358  19.055  0.00  0.00    +0.000 N 
ATOM     18  C   UNL     1       3.206   5.021  19.071  0.00  0.00    +0.000 C 
ATOM     19  C   UNL     1       2.422   4.664  20.333  0.00  0.00    +0.000 C 
ATOM     20  C   UNL     1       2.346   3.146  20.550  0.00  0.00    +0.000 C 
ATOM     21  C   UNL     1       1.676   2.827  21.884  0.00  0.00    +0.000 C 
ATOM     22  C   UNL     1       3.745   2.520  20.487  0.00  0.00    +0.000 C 
ATOM     23  C   UNL     1       4.471   2.906  19.205  0.00  0.00    +0.000 C 
ENDBRANCH  14  15
ENDBRANCH  13  14
ENDBRANCH   6  13
TORSDOF 5
ENDMDL
MODEL 3
REMARK VINA RESULT:      -6.9      1.971      2.678
REMARK  Name = 
REMARK  7 active torsions:
REMARK  status: ('A' for Active; 'I' for Inactive)
REMARK    1  A    between atoms: C_1  and  C_2
REMARK    2  A    between atoms: C_2  and  C_3
REMARK    3  A    between atoms: C_3  and  C_4
REMARK    4  A    between atoms: C_9  and  C_11
REMARK    5  A    between atoms: C_11  and  C_12
REMARK    6  A    between atoms: C_12  and  C_13
REMARK    7  A    between atoms: C_18  and  C_19
REMARK                            x       y       z     vdW  Elec       q    Type
REMARK                         _______ _______ _______ _____ _____    ______ ____
ROOT
ATOM      1  C   UNL     1       6.622   6.022  16.591  0.00  0.00    +0.000 A 
ATOM      2  N   UNL     1       6.253   5.447  15.466  0.00  0.00    +0.000 NA
ATOM      3  N   UNL     1       5.445   4.350  15.695  0.00  0.00    +0.000 NA
ATOM      4  C   UNL     1       5.310   4.093  16.977  0.00  0.00    +0.000 A 
ATOM      5  N   UNL     1       4.582   3.038  17.463  0.00  0.00    +0.000 N 
ATOM      6  C   UNL     1       4.552   2.588  18.759  0.00  0.00    +0.000 C 
ATOM      7  O   UNL     1       5.230   2.995  19.705  0.00  0.00    +0.000 OA
ATOM      8  S   UNL     1       6.044   5.238  18.001  0.00  0.00    +0.000 S 
ATOM      9  H   UNL     1       3.912   2.665  16.796  0.00  0.00    +0.000 HD
ENDROOT
BRANCH   1  10
ATOM     10  C   UNL     1       7.456   7.256  16.698  0.00  0.00    +0.000 C 
BRANCH  10  12
ATOM     11  C   UNL     1       8.403   8.940  18.317  0.00  0.00    +0.000 C 
ATOM     12  C   UNL     1       7.888   7.520  18.141  0.00  0.00    +0.000 C 
ENDBRANCH  10  12
ENDBRANCH   1  10
BRANCH   6  13
ATOM     13  C   UNL     1       3.566   1.458  18.986  0.00  0.00    +0.000 C 
BRANCH  13  14
ATOM     14  C   UNL     1       2.155   1.980  19.211  0.00  0.00    +0.000 C 
BRANCH  14  15
ATOM     15  C   UNL     1       2.093   3.173  20.149  0.00  0.00    +0.000 C 
ATOM     16  O   UNL     1       2.357   3.057  21.345  0.00  0.00    +0.000 OA
ATOM     17  N   UNL     1       1.747   4.388  19.584  0.00  0.00    +0.000 N 
ATOM     18  C   UNL     1       1.465   4.614  18.170  0.00  0.00    +0.000 C 
ATOM     19  C   UNL     1       2.264   5.800  17.633  0.00  0.00    +0.000 C 
ATOM     20  C   UNL     1       2.091   7.050  18.507  0.00  0.00    +0.000 C 
ATOM     21  C   UNL     1       3.003   8.174  18.022  0.00  0.00    +0.000 C 
ATOM     22  C   UNL     1       2.373   6.724  19.979  0.00  0.00    +0.000 C 
ATOM     23  C   UNL     1       1.543   5.541  20.456  0.00  0.00    +0.000 C 
ENDBRANCH  14  15
ENDBRANCH  13  14
ENDBRANCH   6  13
TORSDOF 5
ENDMDL
MODEL 4
REMARK VINA RESULT:      -6.8      2.246      4.151
REMARK  Name = 
REMARK  7 active torsions:
REMARK  status: ('A' for Active; 'I' for Inactive)
REMARK    1  A    between atoms: C_1  and  C_2
REMARK    2  A    between atoms: C_2  and  C_3
REMARK    3  A    between atoms: C_3  and  C_4
REMARK    4  A    between atoms: C_9  and  C_11
REMARK    5  A    between atoms: C_11  and  C_12
REMARK    6  A    between atoms: C_12  and  C_13
REMARK    7  A    between atoms: C_18  and  C_19
REMARK                            x       y       z     vdW  Elec       q    Type
REMARK                         _______ _______ _______ _____ _____    ______ ____
ROOT
ATOM      1  C   UNL     1       6.745   3.796  12.397  0.00  0.00    +0.000 A 
ATOM      2  N   UNL     1       7.785   4.592  12.264  0.00  0.00    +0.000 NA
ATOM      3  N   UNL     1       7.970   5.381  13.383  0.00  0.00    +0.000 NA
ATOM      4  C   UNL     1       7.017   5.210  14.272  0.00  0.00    +0.000 A 
ATOM      5  N   UNL     1       6.956   5.900  15.455  0.00  0.00    +0.000 N 
ATOM      6  C   UNL     1       5.906   5.928  16.338  0.00  0.00    +0.000 C 
ATOM      7  O   UNL     1       4.798   5.405  16.193  0.00  0.00    +0.000 OA
ATOM      8  S   UNL     1       5.899   3.989  13.875  0.00  0.00    +0.000 S 
ATOM      9  H   UNL     1       7.845   6.308  15.733  0.00  0.00    +0.000 HD
ENDROOT
BRANCH   1  10
ATOM     10  C   UNL     1       6.296   2.785  11.394  0.00  0.00    +0.000 C 
BRANCH  10  12
ATOM     11  C   UNL     1       3.929   3.394  10.779  0.00  0.00    +0.000 C 
ATOM     12  C   UNL     1       4.816   2.440  11.564  0.00  0.00    +0.000 C 
ENDBRANCH  10  12
ENDBRANCH   1  10
BRANCH   6  13
ATOM     13  C   UNL     1       6.197   6.711  17.603  0.00  0.00    +0.000 C 
BRANCH  13  14
ATOM     14  C   UNL     1       5.245   6.336  18.728  0.00  0.00    +0.000 C 
BRANCH  14  15
ATOM     15  C   UNL     1       5.391   4.896  19.190  0.00  0.00    +0.000 C 
ATOM     16  O   UNL     1       6.495   4.418  19.446  0.00  0.00    +0.000 OA
ATOM     17  N   UNL     1       4.222   4.167  19.325  0.00  0.00    +0.000 N 
ATOM     18  C   UNL     1       2.875   4.676  19.086  0.00  0.00    +0.000 C 
ATOM     19  C   UNL     1       1.951   4.361  20.260  0.00  0.00    +0.000 C 
ATOM     20  C   UNL     1       1.994   2.873  20.640  0.00  0.00    +0.000 C 
ATOM     21  C   UNL     1       1.167   2.616  21.898  0.00  0.00    +0.000 C 
ATOM     22  C   UNL     1       3.442   2.408  20.843  0.00  0.00    +0.000 C 
ATOM     23  C   UNL     1       4.308   2.743  19.637  0.00  0.00    +0.000 C 
ENDBRANCH  14  15
ENDBRANCH  13  14
ENDBRANCH   6  13
TORSDOF 5
ENDMDL
MODEL 5
REMARK VINA RESULT:      -6.8      1.139      1.444
REMARK  Name = 
REMARK  7 active torsions:
REMARK  status: ('A' for Active; 'I' for Inactive)
REMARK    1  A    between atoms: C_1  and  C_2
REMARK    2  A    between atoms: C_2  and  C_3
REMARK    3  A    between atoms: C_3  and  C_4
REMARK    4  A    between atoms: C_9  and  C_11
REMARK    5  A    between atoms: C_11  and  C_12
REMARK    6  A    between atoms: C_12  and  C_13
REMARK    7  A    between atoms: C_18  and  C_19
REMARK                            x       y       z     vdW  Elec       q    Type
REMARK                         _______ _______ _______ _____ _____    ______ ____
ROOT
ATOM      1  C   UNL     1       6.938   4.556  13.780  0.00  0.00    +0.000 A 
ATOM      2  N   UNL     1       7.661   5.466  14.397  0.00  0.00    +0.000 NA
ATOM      3  N   UNL     1       7.424   5.470  15.758  0.00  0.00    +0.000 NA
ATOM      4  C   UNL     1       6.473   4.627  16.098  0.00  0.00    +0.000 A 
ATOM      5  N   UNL     1       6.031   4.466  17.385  0.00  0.00    +0.000 N 
ATOM      6  C   UNL     1       4.925   3.764  17.792  0.00  0.00    +0.000 C 
ATOM      7  O   UNL     1       4.084   3.217  17.075  0.00  0.00    +0.000 OA
ATOM      8  S   UNL     1       5.890   3.676  14.811  0.00  0.00    +0.000 S 
ATOM      9  H   UNL     1       6.688   4.802  18.085  0.00  0.00    +0.000 HD
ENDROOT
BRANCH   1  10
ATOM     10  C   UNL     1       6.989   4.257  12.318  0.00  0.00    +0.000 C 
BRANCH  10  12
ATOM     11  C   UNL     1       4.751   3.364  11.578  0.00  0.00    +0.000 C 
ATOM     12  C   UNL     1       6.177   3.009  11.969  0.00  0.00    +0.000 C 
ENDBRANCH  10  12
ENDBRANCH   1  10
BRANCH   6  13
ATOM     13  C   UNL     1       4.769   3.699  19.299  0.00  0.00    +0.000 C 
BRANCH  13  14
ATOM     14  C   UNL     1       3.339   3.371  19.703  0.00  0.00    +0.000 C 
BRANCH  14  15
ATOM     15  C   UNL     1       2.672   4.470  20.513  0.00  0.00    +0.000 C 
ATOM     16  O   UNL     1       2.667   4.441  21.742  0.00  0.00    +0.000 OA
ATOM     17  N   UNL     1       2.094   5.504  19.796  0.00  0.00    +0.000 N 
ATOM     18  C   UNL     1       2.099   5.631  18.342  0.00  0.00    +0.000 C 
ATOM     19  C   UNL     1       2.572   7.019  17.913  0.00  0.00    +0.000 C 
ATOM     20  C   UNL     1       1.799   8.135  18.631  0.00  0.00    +0.000 C 
ATOM     21  C   UNL     1       2.384   9.502  18.284  0.00  0.00    +0.000 C 
ATOM     22  C   UNL     1       1.813   7.912  20.149  0.00  0.00    +0.000 C 
ATOM     23  C   UNL     1       1.325   6.517  20.512  0.00  0.00    +0.000 C 
ENDBRANCH  14  15
ENDBRANCH  13  14
ENDBRANCH   6  13
TORSDOF 5
ENDMDL
MODEL 6
REMARK VINA RESULT:      -6.7      6.724      8.416
REMARK  Name = 
REMARK  7 active torsions:
REMARK  status: ('A' for Active; 'I' for Inactive)
REMARK    1  A    between atoms: C_1  and  C_2
REMARK    2  A    between atoms: C_2  and  C_3
REMARK    3  A    between atoms: C_3  and  C_4
REMARK    4  A    between atoms: C_9  and  C_11
REMARK    5  A    between atoms: C_11  and  C_12
REMARK    6  A    between atoms: C_12  and  C_13
REMARK    7  A    between atoms: C_18  and  C_19
REMARK                            x       y       z     vdW  Elec       q    Type
REMARK                         _______ _______ _______ _____ _____    ______ ____
ROOT
ATOM      1  C   UNL     1       6.312   4.828  17.379  0.00  0.00    +0.000 A 
ATOM      2  N   UNL     1       7.132   4.300  18.262  0.00  0.00    +0.000 NA
ATOM      3  N   UNL     1       7.904   5.263  18.882  0.00  0.00    +0.000 NA
ATOM      4  C   UNL     1       7.696   6.462  18.383  0.00  0.00    +0.000 A 
ATOM      5  N   UNL     1       8.361   7.582  18.807  0.00  0.00    +0.000 N 
ATOM      6  C   UNL     1       8.349   8.819  18.214  0.00  0.00    +0.000 C 
ATOM      7  O   UNL     1       7.805   9.131  17.152  0.00  0.00    +0.000 OA
ATOM      8  S   UNL     1       6.458   6.528  17.216  0.00  0.00    +0.000 S 
ATOM      9  H   UNL     1       8.783   7.480  19.726  0.00  0.00    +0.000 HD
ENDROOT
BRANCH   1  10
ATOM     10  C   UNL     1       5.310   4.073  16.568  0.00  0.00    +0.000 C 
BRANCH  10  12
ATOM     11  C   UNL     1       3.615   2.656  17.782  0.00  0.00    +0.000 C 
ATOM     12  C   UNL     1       3.942   4.043  17.250  0.00  0.00    +0.000 C 
ENDBRANCH  10  12
ENDBRANCH   1  10
BRANCH   6  13
ATOM     13  C   UNL     1       9.114   9.872  18.992  0.00  0.00    +0.000 C 
BRANCH  13  14
ATOM     14  C   UNL     1       9.731  10.914  18.071  0.00  0.00    +0.000 C 
BRANCH  14  15
ATOM     15  C   UNL     1       9.016  12.254  18.109  0.00  0.00    +0.000 C 
ATOM     16  O   UNL     1       8.095  12.507  17.333  0.00  0.00    +0.000 OA
ATOM     17  N   UNL     1       9.442  13.157  19.068  0.00  0.00    +0.000 N 
ATOM     18  C   UNL     1      10.493  12.914  20.050  0.00  0.00    +0.000 C 
ATOM     19  C   UNL     1      10.022  13.266  21.459  0.00  0.00    +0.000 C 
ATOM     20  C   UNL     1       9.423  14.679  21.527  0.00  0.00    +0.000 C 
ATOM     21  C   UNL     1       8.840  14.948  22.913  0.00  0.00    +0.000 C 
ATOM     22  C   UNL     1       8.351  14.865  20.446  0.00  0.00    +0.000 C 
ATOM     23  C   UNL     1       8.884  14.506  19.066  0.00  0.00    +0.000 C 
ENDBRANCH  14  15
ENDBRANCH  13  14
ENDBRANCH   6  13
TORSDOF 5
ENDMDL
MODEL 7
REMARK VINA RESULT:      -6.7      7.453      8.953
REMARK  Name = 
REMARK  7 active torsions:
REMARK  status: ('A' for Active; 'I' for Inactive)
REMARK    1  A    between atoms: C_1  and  C_2
REMARK    2  A    between atoms: C_2  and  C_3
REMARK    3  A    between atoms: C_3  and  C_4
REMARK    4  A    between atoms: C_9  and  C_11
REMARK    5  A    between atoms: C_11  and  C_12
REMARK    6  A    between atoms: C_12  and  C_13
REMARK    7  A    between atoms: C_18  and  C_19
REMARK                            x       y       z     vdW  Elec       q    Type
REMARK                         _______ _______ _______ _____ _____    ______ ____
ROOT
ATOM      1  C   UNL     1       6.677   4.925  17.074  0.00  0.00    +0.000 A 
ATOM      2  N   UNL     1       7.309   4.378  18.091  0.00  0.00    +0.000 NA
ATOM      3  N   UNL     1       7.943   5.328  18.869  0.00  0.00    +0.000 NA
ATOM      4  C   UNL     1       7.835   6.536  18.360  0.00  0.00    +0.000 A 
ATOM      5  N   UNL     1       8.403   7.647  18.927  0.00  0.00    +0.000 N 
ATOM      6  C   UNL     1       8.507   8.895  18.367  0.00  0.00    +0.000 C 
ATOM      7  O   UNL     1       8.182   9.227  17.224  0.00  0.00    +0.000 OA
ATOM      8  S   UNL     1       6.851   6.627  16.974  0.00  0.00    +0.000 S 
ATOM      9  H   UNL     1       8.637   7.527  19.910  0.00  0.00    +0.000 HD
ENDROOT
BRANCH   1  10
ATOM     10  C   UNL     1       5.855   4.187  16.069  0.00  0.00    +0.000 C 
BRANCH  10  12
ATOM     11  C   UNL     1       5.539   3.740  13.609  0.00  0.00    +0.000 C 
ATOM     12  C   UNL     1       6.507   4.203  14.686  0.00  0.00    +0.000 C 
ENDBRANCH  10  12
ENDBRANCH   1  10
BRANCH   6  13
ATOM     13  C   UNL     1       9.103   9.931  19.299  0.00  0.00    +0.000 C 
BRANCH  13  14
ATOM     14  C   UNL     1       9.300  11.268  18.601  0.00  0.00    +0.000 C 
BRANCH  14  15
ATOM     15  C   UNL     1      10.607  11.953  18.963  0.00  0.00    +0.000 C 
ATOM     16  O   UNL     1      11.641  11.306  19.128  0.00  0.00    +0.000 OA
ATOM     17  N   UNL     1      10.574  13.332  19.076  0.00  0.00    +0.000 N 
ATOM     18  C   UNL     1       9.401  14.171  18.851  0.00  0.00    +0.000 C 
ATOM     19  C   UNL     1       9.721  15.321  17.899  0.00  0.00    +0.000 C 
ATOM     20  C   UNL     1      10.966  16.102  18.342  0.00  0.00    +0.000 C 
ATOM     21  C   UNL     1      11.338  17.156  17.302  0.00  0.00    +0.000 C 
ATOM     22  C   UNL     1      12.143  15.150  18.588  0.00  0.00    +0.000 C 
ATOM     23  C   UNL     1      11.764  14.032  19.550  0.00  0.00    +0.000 C 
ENDBRANCH  14  15
ENDBRANCH  13  14
ENDBRANCH   6  13
TORSDOF 5
ENDMDL
MODEL 8
REMARK VINA RESULT:      -6.7      7.283      9.076
REMARK  Name = 
REMARK  7 active torsions:
REMARK  status: ('A' for Active; 'I' for Inactive)
REMARK    1  A    between atoms: C_1  and  C_2
REMARK    2  A    between atoms: C_2  and  C_3
REMARK    3  A    between atoms: C_3  and  C_4
REMARK    4  A    between atoms: C_9  and  C_11
REMARK    5  A    between atoms: C_11  and  C_12
REMARK    6  A    between atoms: C_12  and  C_13
REMARK    7  A    between atoms: C_18  and  C_19
REMARK                            x       y       z     vdW  Elec       q    Type
REMARK                         _______ _______ _______ _____ _____    ______ ____
ROOT
ATOM      1  C   UNL     1       6.264   5.031  17.313  0.00  0.00    +0.000 A 
ATOM      2  N   UNL     1       7.105   4.410  18.113  0.00  0.00    +0.000 NA
ATOM      3  N   UNL     1       7.929   5.298  18.777  0.00  0.00    +0.000 NA
ATOM      4  C   UNL     1       7.734   6.539  18.388  0.00  0.00    +0.000 A 
ATOM      5  N   UNL     1       8.447   7.603  18.875  0.00  0.00    +0.000 N 
ATOM      6  C   UNL     1       8.446   8.886  18.388  0.00  0.00    +0.000 C 
ATOM      7  O   UNL     1       7.868   9.299  17.380  0.00  0.00    +0.000 OA
ATOM      8  S   UNL     1       6.451   6.734  17.286  0.00  0.00    +0.000 S 
ATOM      9  H   UNL     1       8.905   7.413  19.763  0.00  0.00    +0.000 HD
ENDROOT
BRANCH   1  10
ATOM     10  C   UNL     1       5.209   4.371  16.487  0.00  0.00    +0.000 C 
BRANCH  10  12
ATOM     11  C   UNL     1       3.104   4.789  17.809  0.00  0.00    +0.000 C 
ATOM     12  C   UNL     1       4.118   3.749  17.359  0.00  0.00    +0.000 C 
ENDBRANCH  10  12
ENDBRANCH   1  10
BRANCH   6  13
ATOM     13  C   UNL     1       9.272   9.850  19.216  0.00  0.00    +0.000 C 
BRANCH  13  14
ATOM     14  C   UNL     1       9.082  11.289  18.760  0.00  0.00    +0.000 C 
BRANCH  14  15
ATOM     15  C   UNL     1      10.354  11.928  18.228  0.00  0.00    +0.000 C 
ATOM     16  O   UNL     1      11.154  11.284  17.551  0.00  0.00    +0.000 OA
ATOM     17  N   UNL     1      10.547  13.265  18.527  0.00  0.00    +0.000 N 
ATOM     18  C   UNL     1       9.624  14.106  19.282  0.00  0.00    +0.000 C 
ATOM     19  C   UNL     1       9.336  15.410  18.542  0.00  0.00    +0.000 C 
ATOM     20  C   UNL     1      10.627  16.128  18.124  0.00  0.00    +0.000 C 
ATOM     21  C   UNL     1      10.307  17.355  17.272  0.00  0.00    +0.000 C 
ATOM     22  C   UNL     1      11.556  15.173  17.365  0.00  0.00    +0.000 C 
ATOM     23  C   UNL     1      11.810  13.897  18.156  0.00  0.00    +0.000 C 
ENDBRANCH  14  15
ENDBRANCH  13  14
ENDBRANCH   6  13
TORSDOF 5
ENDMDL
MODEL 9
REMARK VINA RESULT:      -6.6      4.936      6.523
REMARK  Name = 
REMARK  7 active torsions:
REMARK  status: ('A' for Active; 'I' for Inactive)
REMARK    1  A    between atoms: C_1  and  C_2
REMARK    2  A    between atoms: C_2  and  C_3
REMARK    3  A    between atoms: C_3  and  C_4
REMARK    4  A    between atoms: C_9  and  C_11
REMARK    5  A    between atoms: C_11  and  C_12
REMARK    6  A    between atoms: C_12  and  C_13
REMARK    7  A    between atoms: C_18  and  C_19
REMARK                            x       y       z     vdW  Elec       q    Type
REMARK                         _______ _______ _______ _____ _____    ______ ____
ROOT
ATOM      1  C   UNL     1       9.326  11.852  18.443  0.00  0.00    +0.000 A 
ATOM      2  N   UNL     1       9.642  11.613  19.699  0.00  0.00    +0.000 NA
ATOM      3  N   UNL     1       9.477  10.280  20.021  0.00  0.00    +0.000 NA
ATOM      4  C   UNL     1       8.965   9.589  19.027  0.00  0.00    +0.000 A 
ATOM      5  N   UNL     1       8.678   8.251  19.106  0.00  0.00    +0.000 N 
ATOM      6  C   UNL     1       7.969   7.507  18.197  0.00  0.00    +0.000 C 
ATOM      7  O   UNL     1       7.395   7.917  17.185  0.00  0.00    +0.000 OA
ATOM      8  S   UNL     1       8.767  10.476  17.587  0.00  0.00    +0.000 S 
ATOM      9  H   UNL     1       9.169   7.774  19.857  0.00  0.00    +0.000 HD
ENDROOT
BRANCH   1  10
ATOM     10  C   UNL     1       9.436  13.176  17.761  0.00  0.00    +0.000 C 
BRANCH  10  12
ATOM     11  C   UNL     1       7.076  14.055  17.646  0.00  0.00    +0.000 C 
ATOM     12  C   UNL     1       8.432  14.183  18.322  0.00  0.00    +0.000 C 
ENDBRANCH  10  12
ENDBRANCH   1  10
BRANCH   6  13
ATOM     13  C   UNL     1       7.913   6.030  18.533  0.00  0.00    +0.000 C 
BRANCH  13  14
ATOM     14  C   UNL     1       6.563   5.636  19.111  0.00  0.00    +0.000 C 
BRANCH  14  15
ATOM     15  C   UNL     1       5.652   4.948  18.108  0.00  0.00    +0.000 C 
ATOM     16  O   UNL     1       6.112   4.364  17.127  0.00  0.00    +0.000 OA
ATOM     17  N   UNL     1       4.294   4.998  18.368  0.00  0.00    +0.000 N 
ATOM     18  C   UNL     1       3.678   5.629  19.531  0.00  0.00    +0.000 C 
ATOM     19  C   UNL     1       2.693   4.682  20.214  0.00  0.00    +0.000 C 
ATOM     20  C   UNL     1       1.682   4.092  19.220  0.00  0.00    +0.000 C 
ATOM     21  C   UNL     1       0.801   3.051  19.906  0.00  0.00    +0.000 C 
ATOM     22  C   UNL     1       2.405   3.477  18.015  0.00  0.00    +0.000 C 
ATOM     23  C   UNL     1       3.363   4.470  17.374  0.00  0.00    +0.000 C 
ENDBRANCH  14  15
ENDBRANCH  13  14
ENDBRANCH   6  13
TORSDOF 5
ENDMDL
