MODEL 1
REMARK VINA RESULT:      -7.5      0.000      0.000
REMARK  Name = 
REMARK  9 active torsions:
REMARK  status: ('A' for Active; 'I' for Inactive)
REMARK    1  A    between atoms: C_1  and  C_2
REMARK    2  A    between atoms: C_2  and  O_3
REMARK    3  A    between atoms: O_3  and  C_4
REMARK    4  A    between atoms: C_4  and  C_6
REMARK    5  A    between atoms: C_13  and  S_14
REMARK    6  A    between atoms: S_14  and  C_15
REMARK    7  A    between atoms: C_15  and  C_16
REMARK    8  A    between atoms: N_24  and  C_25
REMARK    9  A    between atoms: C_25  and  C_26
REMARK                            x       y       z     vdW  Elec       q    Type
REMARK                         _______ _______ _______ _____ _____    ______ ____
ROOT
ATOM      1  C   UNL     1       5.206   5.116  16.490  0.00  0.00    +0.000 A 
ATOM      2  C   UNL     1       5.054   3.967  17.281  0.00  0.00    +0.000 A 
ATOM      3  C   UNL     1       4.258   3.971  18.432  0.00  0.00    +0.000 A 
ATOM      4  C   UNL     1       3.612   5.171  18.760  0.00  0.00    +0.000 A 
ATOM      5  C   UNL     1       3.734   6.324  17.989  0.00  0.00    +0.000 A 
ATOM      6  C   UNL     1       4.544   6.307  16.842  0.00  0.00    +0.000 A 
ATOM      7  N   UNL     1       3.003   7.359  18.519  0.00  0.00    +0.000 NA
ATOM      8  C   UNL     1       2.437   6.861  19.594  0.00  0.00    +0.000 A 
ATOM      9  N   UNL     1       2.766   5.541  19.788  0.00  0.00    +0.000 N 
ENDROOT
BRANCH   1  10
ATOM     10  C   UNL     1       6.139   5.053  15.335  0.00  0.00    +0.000 C 
ATOM     11  O   UNL     1       7.263   5.527  15.346  0.00  0.00    +0.000 OA
BRANCH  10  12
ATOM     12  O   UNL     1       5.512   4.507  14.264  0.00  0.00    +0.000 OA
BRANCH  12  14
ATOM     13  C   UNL     1       5.487   3.200  12.268  0.00  0.00    +0.000 C 
ATOM     14  C   UNL     1       6.368   3.893  13.290  0.00  0.00    +0.000 C 
ENDBRANCH  12  14
ENDBRANCH  10  12
ENDBRANCH   1  10
BRANCH   9  15
ATOM     15  C   UNL     1       2.254   4.645  20.809  0.00  0.00    +0.000 C 
ATOM     16  C   UNL     1       1.024   3.864  20.371  0.00  0.00    +0.000 C 
ENDBRANCH   9  15
BRANCH   8  17
ATOM     17  S   UNL     1       1.457   7.768  20.701  0.00  0.00    +0.000 S 
BRANCH  17  18
ATOM     18  C   UNL     1       1.161   9.289  19.747  0.00  0.00    +0.000 C 
BRANCH  18  19
ATOM     19  C   UNL     1       0.703  10.461  20.616  0.00  0.00    +0.000 C 
ATOM     20  O   UNL     1       1.095  10.615  21.775  0.00  0.00    +0.000 OA
ATOM     21  N   UNL     1      -0.161  11.386  20.019  0.00  0.00    +0.000 N 
ATOM     22  C   UNL     1      -0.556  12.579  20.764  0.00  0.00    +0.000 C 
ATOM     23  C   UNL     1      -2.068  12.615  20.963  0.00  0.00    +0.000 C 
ATOM     24  C   UNL     1      -2.801  12.492  19.628  0.00  0.00    +0.000 C 
ATOM     25  C   UNL     1      -2.320  11.267  18.846  0.00  0.00    +0.000 C 
ATOM     26  C   UNL     1      -0.796  11.249  18.707  0.00  0.00    +0.000 C 
ENDBRANCH  18  19
ENDBRANCH  17  18
ENDBRANCH   8  17
TORSDOF 7
ENDMDL
MODEL 2
REMARK VINA RESULT:      -7.4      3.116      8.180
REMARK  Name = 
REMARK  9 active torsions:
REMARK  status: ('A' for Active; 'I' for Inactive)
REMARK    1  A    between atoms: C_1  and  C_2
REMARK    2  A    between atoms: C_2  and  O_3
REMARK    3  A    between atoms: O_3  and  C_4
REMARK    4  A    between atoms: C_4  and  C_6
REMARK    5  A    between atoms: C_13  and  S_14
REMARK    6  A    between atoms: S_14  and  C_15
REMARK    7  A    between atoms: C_15  and  C_16
REMARK    8  A    between atoms: N_24  and  C_25
REMARK    9  A    between atoms: C_25  and  C_26
REMARK                            x       y       z     vdW  Elec       q    Type
REMARK                         _______ _______ _______ _____ _____    ______ ____
ROOT
ATOM      1  C   UNL     1       1.194   8.889  19.520  0.00  0.00    +0.000 A 
ATOM      2  C   UNL     1       1.649   9.344  18.274  0.00  0.00    +0.000 A 
ATOM      3  C   UNL     1       2.633   8.652  17.557  0.00  0.00    +0.000 A 
ATOM      4  C   UNL     1       3.142   7.481  18.134  0.00  0.00    +0.000 A 
ATOM      5  C   UNL     1       2.702   6.999  19.365  0.00  0.00    +0.000 A 
ATOM      6  C   UNL     1       1.721   7.708  20.076  0.00  0.00    +0.000 A 
ATOM      7  N   UNL     1       3.352   5.837  19.707  0.00  0.00    +0.000 NA
ATOM      8  C   UNL     1       4.175   5.602  18.712  0.00  0.00    +0.000 A 
ATOM      9  N   UNL     1       4.090   6.560  17.731  0.00  0.00    +0.000 N 
ENDROOT
BRANCH   1  10
ATOM     10  C   UNL     1       0.212   9.727  20.256  0.00  0.00    +0.000 C 
ATOM     11  O   UNL     1      -0.112  10.852  19.911  0.00  0.00    +0.000 OA
BRANCH  10  12
ATOM     12  O   UNL     1      -0.162   9.104  21.401  0.00  0.00    +0.000 OA
BRANCH  12  14
ATOM     13  C   UNL     1      -0.991  10.384  23.235  0.00  0.00    +0.000 C 
ATOM     14  C   UNL     1       0.239   9.748  22.619  0.00  0.00    +0.000 C 
ENDBRANCH  12  14
ENDBRANCH  10  12
ENDBRANCH   1  10
BRANCH   9  15
ATOM     15  C   UNL     1       4.773   6.575  16.450  0.00  0.00    +0.000 C 
ATOM     16  C   UNL     1       6.254   6.900  16.555  0.00  0.00    +0.000 C 
ENDBRANCH   9  15
BRANCH   8  17
ATOM     17  S   UNL     1       5.309   4.290  18.662  0.00  0.00    +0.000 S 
BRANCH  17  18
ATOM     18  C   UNL     1       4.466   3.135  17.536  0.00  0.00    +0.000 C 
BRANCH  18  19
ATOM     19  C   UNL     1       2.948   3.119  17.722  0.00  0.00    +0.000 C 
ATOM     20  O   UNL     1       2.176   3.580  16.879  0.00  0.00    +0.000 OA
ATOM     21  N   UNL     1       2.465   2.514  18.888  0.00  0.00    +0.000 N 
ATOM     22  C   UNL     1       1.022   2.379  19.077  0.00  0.00    +0.000 C 
ATOM     23  C   UNL     1       0.569   3.129  20.326  0.00  0.00    +0.000 C 
ATOM     24  C   UNL     1       1.363   2.682  21.552  0.00  0.00    +0.000 C 
ATOM     25  C   UNL     1       2.869   2.779  21.300  0.00  0.00    +0.000 C 
ATOM     26  C   UNL     1       3.273   2.050  20.016  0.00  0.00    +0.000 C 
ENDBRANCH  18  19
ENDBRANCH  17  18
ENDBRANCH   8  17
TORSDOF 7
ENDMDL
MODEL 3
REMARK VINA RESULT:      -7.3      1.508      1.818
REMARK  Name = 
REMARK  9 active torsions:
REMARK  status: ('A' for Active; 'I' for Inactive)
REMARK    1  A    between atoms: C_1  and  C_2
REMARK    2  A    between atoms: C_2  and  O_3
REMARK    3  A    between atoms: O_3  and  C_4
REMARK    4  A    between atoms: C_4  and  C_6
REMARK    5  A    between atoms: C_13  and  S_14
REMARK    6  A    between atoms: S_14  and  C_15
REMARK    7  A    between atoms: C_15  and  C_16
REMARK    8  A    between atoms: N_24  and  C_25
REMARK    9  A    between atoms: C_25  and  C_26
REMARK                            x       y       z     vdW  Elec       q    Type
REMARK                         _______ _______ _______ _____ _____    ______ ____
ROOT
ATOM      1  C   UNL     1       5.526   5.046  16.312  0.00  0.00    +0.000 A 
ATOM      2  C   UNL     1       5.303   4.035  17.259  0.00  0.00    +0.000 A 
ATOM      3  C   UNL     1       4.432   4.223  18.339  0.00  0.00    +0.000 A 
ATOM      4  C   UNL     1       3.785   5.463  18.432  0.00  0.00    +0.000 A 
ATOM      5  C   UNL     1       3.977   6.481  17.502  0.00  0.00    +0.000 A 
ATOM      6  C   UNL     1       4.861   6.281  16.429  0.00  0.00    +0.000 A 
ATOM      7  N   UNL     1       3.230   7.591  17.814  0.00  0.00    +0.000 NA
ATOM      8  C   UNL     1       2.585   7.269  18.912  0.00  0.00    +0.000 A 
ATOM      9  N   UNL     1       2.880   5.994  19.330  0.00  0.00    +0.000 N 
ENDROOT
BRANCH   1  10
ATOM     10  C   UNL     1       6.532   4.798  15.247  0.00  0.00    +0.000 C 
ATOM     11  O   UNL     1       7.555   5.450  15.116  0.00  0.00    +0.000 OA
BRANCH  10  12
ATOM     12  O   UNL     1       6.082   3.838  14.401  0.00  0.00    +0.000 OA
BRANCH  12  14
ATOM     13  C   UNL     1       5.583   3.185  12.161  0.00  0.00    +0.000 C 
ATOM     14  C   UNL     1       6.562   3.925  13.051  0.00  0.00    +0.000 C 
ENDBRANCH  12  14
ENDBRANCH  10  12
ENDBRANCH   1  10
BRANCH   9  15
ATOM     15  C   UNL     1       2.286   5.271  20.440  0.00  0.00    +0.000 C 
ATOM     16  C   UNL     1       1.236   4.257  20.014  0.00  0.00    +0.000 C 
ENDBRANCH   9  15
BRANCH   8  17
ATOM     17  S   UNL     1       1.550   8.344  19.795  0.00  0.00    +0.000 S 
BRANCH  17  18
ATOM     18  C   UNL     1       1.114   9.554  18.508  0.00  0.00    +0.000 C 
BRANCH  18  19
ATOM     19  C   UNL     1       0.072  10.573  18.972  0.00  0.00    +0.000 C 
ATOM     20  O   UNL     1      -1.128  10.300  19.047  0.00  0.00    +0.000 OA
ATOM     21  N   UNL     1       0.550  11.832  19.350  0.00  0.00    +0.000 N 
ATOM     22  C   UNL     1      -0.383  12.816  19.895  0.00  0.00    +0.000 C 
ATOM     23  C   UNL     1      -0.425  14.064  19.019  0.00  0.00    +0.000 C 
ATOM     24  C   UNL     1       0.976  14.639  18.815  0.00  0.00    +0.000 C 
ATOM     25  C   UNL     1       1.942  13.568  18.301  0.00  0.00    +0.000 C 
ATOM     26  C   UNL     1       1.921  12.319  19.185  0.00  0.00    +0.000 C 
ENDBRANCH  18  19
ENDBRANCH  17  18
ENDBRANCH   8  17
TORSDOF 7
ENDMDL
MODEL 4
REMARK VINA RESULT:      -7.2      2.818      8.119
REMARK  Name = 
REMARK  9 active torsions:
REMARK  status: ('A' for Active; 'I' for Inactive)
REMARK    1  A    between atoms: C_1  and  C_2
REMARK    2  A    between atoms: C_2  and  O_3
REMARK    3  A    between atoms: O_3  and  C_4
REMARK    4  A    between atoms: C_4  and  C_6
REMARK    5  A    between atoms: C_13  and  S_14
REMARK    6  A    between atoms: S_14  and  C_15
REMARK    7  A    between atoms: C_15  and  C_16
REMARK    8  A    between atoms: N_24  and  C_25
REMARK    9  A    between atoms: C_25  and  C_26
REMARK                            x       y       z     vdW  Elec       q    Type
REMARK                         _______ _______ _______ _____ _____    ______ ____
ROOT
ATOM      1  C   UNL     1       1.130   8.798  19.770  0.00  0.00    +0.000 A 
ATOM      2  C   UNL     1       1.521   9.293  18.518  0.00  0.00    +0.000 A 
ATOM      3  C   UNL     1       2.490   8.642  17.743  0.00  0.00    +0.000 A 
ATOM      4  C   UNL     1       3.048   7.469  18.269  0.00  0.00    +0.000 A 
ATOM      5  C   UNL     1       2.672   6.947  19.504  0.00  0.00    +0.000 A 
ATOM      6  C   UNL     1       1.707   7.616  20.274  0.00  0.00    +0.000 A 
ATOM      7  N   UNL     1       3.361   5.793  19.789  0.00  0.00    +0.000 NA
ATOM      8  C   UNL     1       4.147   5.601  18.754  0.00  0.00    +0.000 A 
ATOM      9  N   UNL     1       3.998   6.581  17.803  0.00  0.00    +0.000 N 
ENDROOT
BRANCH   1  10
ATOM     10  C   UNL     1       0.163   9.595  20.568  0.00  0.00    +0.000 C 
ATOM     11  O   UNL     1       0.049   9.508  21.780  0.00  0.00    +0.000 OA
BRANCH  10  12
ATOM     12  O   UNL     1      -0.629  10.323  19.741  0.00  0.00    +0.000 OA
BRANCH  12  14
ATOM     13  C   UNL     1      -1.614  12.399  19.100  0.00  0.00    +0.000 C 
ATOM     14  C   UNL     1      -1.076  11.583  20.260  0.00  0.00    +0.000 C 
ENDBRANCH  12  14
ENDBRANCH  10  12
ENDBRANCH   1  10
BRANCH   9  15
ATOM     15  C   UNL     1       4.625   6.642  16.495  0.00  0.00    +0.000 C 
ATOM     16  C   UNL     1       6.123   6.898  16.551  0.00  0.00    +0.000 C 
ENDBRANCH   9  15
BRANCH   8  17
ATOM     17  S   UNL     1       5.306   4.318  18.624  0.00  0.00    +0.000 S 
BRANCH  17  18
ATOM     18  C   UNL     1       4.446   3.177  17.497  0.00  0.00    +0.000 C 
BRANCH  18  19
ATOM     19  C   UNL     1       2.930   3.171  17.693  0.00  0.00    +0.000 C 
ATOM     20  O   UNL     1       2.156   3.653  16.862  0.00  0.00    +0.000 OA
ATOM     21  N   UNL     1       2.449   2.552  18.852  0.00  0.00    +0.000 N 
ATOM     22  C   UNL     1       1.006   2.427  19.049  0.00  0.00    +0.000 C 
ATOM     23  C   UNL     1       0.568   3.161  20.312  0.00  0.00    +0.000 C 
ATOM     24  C   UNL     1       1.366   2.688  21.526  0.00  0.00    +0.000 C 
ATOM     25  C   UNL     1       2.872   2.775  21.265  0.00  0.00    +0.000 C 
ATOM     26  C   UNL     1       3.261   2.063  19.967  0.00  0.00    +0.000 C 
ENDBRANCH  18  19
ENDBRANCH  17  18
ENDBRANCH   8  17
TORSDOF 7
ENDMDL
MODEL 5
REMARK VINA RESULT:      -7.1      1.480      1.724
REMARK  Name = 
REMARK  9 active torsions:
REMARK  status: ('A' for Active; 'I' for Inactive)
REMARK    1  A    between atoms: C_1  and  C_2
REMARK    2  A    between atoms: C_2  and  O_3
REMARK    3  A    between atoms: O_3  and  C_4
REMARK    4  A    between atoms: C_4  and  C_6
REMARK    5  A    between atoms: C_13  and  S_14
REMARK    6  A    between atoms: S_14  and  C_15
REMARK    7  A    between atoms: C_15  and  C_16
REMARK    8  A    between atoms: N_24  and  C_25
REMARK    9  A    between atoms: C_25  and  C_26
REMARK                            x       y       z     vdW  Elec       q    Type
REMARK                         _______ _______ _______ _____ _____    ______ ____
ROOT
ATOM      1  C   UNL     1       5.617   4.984  15.637  0.00  0.00    +0.000 A 
ATOM      2  C   UNL     1       5.361   3.899  16.489  0.00  0.00    +0.000 A 
ATOM      3  C   UNL     1       4.537   4.031  17.614  0.00  0.00    +0.000 A 
ATOM      4  C   UNL     1       3.970   5.291  17.849  0.00  0.00    +0.000 A 
ATOM      5  C   UNL     1       4.196   6.383  17.014  0.00  0.00    +0.000 A 
ATOM      6  C   UNL     1       5.033   6.238  15.896  0.00  0.00    +0.000 A 
ATOM      7  N   UNL     1       3.528   7.498  17.458  0.00  0.00    +0.000 NA
ATOM      8  C   UNL     1       2.899   7.108  18.543  0.00  0.00    +0.000 A 
ATOM      9  N   UNL     1       3.127   5.783  18.826  0.00  0.00    +0.000 N 
ENDROOT
BRANCH   1  10
ATOM     10  C   UNL     1       6.573   4.784  14.517  0.00  0.00    +0.000 C 
ATOM     11  O   UNL     1       7.535   5.505  14.310  0.00  0.00    +0.000 OA
BRANCH  10  12
ATOM     12  O   UNL     1       6.146   3.773  13.719  0.00  0.00    +0.000 OA
BRANCH  12  14
ATOM     13  C   UNL     1       6.161   2.517  11.691  0.00  0.00    +0.000 C 
ATOM     14  C   UNL     1       6.735   3.721  12.413  0.00  0.00    +0.000 C 
ENDBRANCH  12  14
ENDBRANCH  10  12
ENDBRANCH   1  10
BRANCH   9  15
ATOM     15  C   UNL     1       2.525   4.991  19.882  0.00  0.00    +0.000 C 
ATOM     16  C   UNL     1       1.373   4.119  19.407  0.00  0.00    +0.000 C 
ENDBRANCH   9  15
BRANCH   8  17
ATOM     17  S   UNL     1       1.959   8.149  19.563  0.00  0.00    +0.000 S 
BRANCH  17  18
ATOM     18  C   UNL     1       1.189   9.248  18.332  0.00  0.00    +0.000 C 
BRANCH  18  19
ATOM     19  C   UNL     1       1.461  10.729  18.599  0.00  0.00    +0.000 C 
ATOM     20  O   UNL     1       2.447  11.311  18.141  0.00  0.00    +0.000 OA
ATOM     21  N   UNL     1       0.511  11.415  19.363  0.00  0.00    +0.000 N 
ATOM     22  C   UNL     1       0.664  12.854  19.570  0.00  0.00    +0.000 C 
ATOM     23  C   UNL     1       0.804  13.173  21.056  0.00  0.00    +0.000 C 
ATOM     24  C   UNL     1      -0.360  12.589  21.855  0.00  0.00    +0.000 C 
ATOM     25  C   UNL     1      -0.530  11.095  21.569  0.00  0.00    +0.000 C 
ATOM     26  C   UNL     1      -0.624  10.816  20.068  0.00  0.00    +0.000 C 
ENDBRANCH  18  19
ENDBRANCH  17  18
ENDBRANCH   8  17
TORSDOF 7
ENDMDL
MODEL 6
REMARK VINA RESULT:      -7.0      2.491      4.035
REMARK  Name = 
REMARK  9 active torsions:
REMARK  status: ('A' for Active; 'I' for Inactive)
REMARK    1  A    between atoms: C_1  and  C_2
REMARK    2  A    between atoms: C_2  and  O_3
REMARK    3  A    between atoms: O_3  and  C_4
REMARK    4  A    between atoms: C_4  and  C_6
REMARK    5  A    between atoms: C_13  and  S_14
REMARK    6  A    between atoms: S_14  and  C_15
REMARK    7  A    between atoms: C_15  and  C_16
REMARK    8  A    between atoms: N_24  and  C_25
REMARK    9  A    between atoms: C_25  and  C_26
REMARK                            x       y       z     vdW  Elec       q    Type
REMARK                         _______ _______ _______ _____ _____    ______ ____
ROOT
ATOM      1  C   UNL     1       5.941   3.924  13.632  0.00  0.00    +0.000 A 
ATOM      2  C   UNL     1       7.100   4.671  13.893  0.00  0.00    +0.000 A 
ATOM      3  C   UNL     1       7.295   5.312  15.123  0.00  0.00    +0.000 A 
ATOM      4  C   UNL     1       6.287   5.172  16.086  0.00  0.00    +0.000 A 
ATOM      5  C   UNL     1       5.132   4.428  15.860  0.00  0.00    +0.000 A 
ATOM      6  C   UNL     1       4.945   3.798  14.619  0.00  0.00    +0.000 A 
ATOM      7  N   UNL     1       4.305   4.443  16.957  0.00  0.00    +0.000 NA
ATOM      8  C   UNL     1       4.933   5.178  17.846  0.00  0.00    +0.000 A 
ATOM      9  N   UNL     1       6.138   5.643  17.376  0.00  0.00    +0.000 N 
ENDROOT
BRANCH   1  10
ATOM     10  C   UNL     1       5.771   3.349  12.273  0.00  0.00    +0.000 C 
ATOM     11  O   UNL     1       6.558   2.568  11.763  0.00  0.00    +0.000 OA
BRANCH  10  12
ATOM     12  O   UNL     1       4.694   3.909  11.666  0.00  0.00    +0.000 OA
BRANCH  12  14
ATOM     13  C   UNL     1       3.100   3.816   9.894  0.00  0.00    +0.000 C 
ATOM     14  C   UNL     1       3.858   3.006  10.927  0.00  0.00    +0.000 C 
ENDBRANCH  12  14
ENDBRANCH  10  12
ENDBRANCH   1  10
BRANCH   9  15
ATOM     15  C   UNL     1       7.138   6.397  18.109  0.00  0.00    +0.000 C 
ATOM     16  C   UNL     1       7.917   5.560  19.112  0.00  0.00    +0.000 C 
ENDBRANCH   9  15
BRANCH   8  17
ATOM     17  S   UNL     1       4.294   5.598  19.403  0.00  0.00    +0.000 S 
BRANCH  17  18
ATOM     18  C   UNL     1       2.565   5.981  18.984  0.00  0.00    +0.000 C 
BRANCH  18  19
ATOM     19  C   UNL     1       1.851   6.789  20.069  0.00  0.00    +0.000 C 
ATOM     20  O   UNL     1       1.446   6.274  21.114  0.00  0.00    +0.000 OA
ATOM     21  N   UNL     1       1.712   8.162  19.841  0.00  0.00    +0.000 N 
ATOM     22  C   UNL     1       1.127   9.003  20.883  0.00  0.00    +0.000 C 
ATOM     23  C   UNL     1      -0.145   9.679  20.380  0.00  0.00    +0.000 C 
ATOM     24  C   UNL     1       0.117  10.449  19.087  0.00  0.00    +0.000 C 
ATOM     25  C   UNL     1       0.784   9.556  18.039  0.00  0.00    +0.000 C 
ATOM     26  C   UNL     1       2.030   8.865  18.597  0.00  0.00    +0.000 C 
ENDBRANCH  18  19
ENDBRANCH  17  18
ENDBRANCH   8  17
TORSDOF 7
ENDMDL
MODEL 7
REMARK VINA RESULT:      -7.0      0.944      1.071
REMARK  Name = 
REMARK  9 active torsions:
REMARK  status: ('A' for Active; 'I' for Inactive)
REMARK    1  A    between atoms: C_1  and  C_2
REMARK    2  A    between atoms: C_2  and  O_3
REMARK    3  A    between atoms: O_3  and  C_4
REMARK    4  A    between atoms: C_4  and  C_6
REMARK    5  A    between atoms: C_13  and  S_14
REMARK    6  A    between atoms: S_14  and  C_15
REMARK    7  A    between atoms: C_15  and  C_16
REMARK    8  A    between atoms: N_24  and  C_25
REMARK    9  A    between atoms: C_25  and  C_26
REMARK                            x       y       z     vdW  Elec       q    Type
REMARK                         _______ _______ _______ _____ _____    ______ ____
ROOT
ATOM      1  C   UNL     1       5.586   4.855  17.372  0.00  0.00    +0.000 A 
ATOM      2  C   UNL     1       5.064   3.620  17.783  0.00  0.00    +0.000 A 
ATOM      3  C   UNL     1       3.956   3.541  18.636  0.00  0.00    +0.000 A 
ATOM      4  C   UNL     1       3.384   4.749  19.057  0.00  0.00    +0.000 A 
ATOM      5  C   UNL     1       3.873   5.990  18.657  0.00  0.00    +0.000 A 
ATOM      6  C   UNL     1       4.991   6.053  17.809  0.00  0.00    +0.000 A 
ATOM      7  N   UNL     1       3.140   7.016  19.202  0.00  0.00    +0.000 NA
ATOM      8  C   UNL     1       2.214   6.426  19.923  0.00  0.00    +0.000 A 
ATOM      9  N   UNL     1       2.311   5.056  19.871  0.00  0.00    +0.000 N 
ENDROOT
BRANCH   1  10
ATOM     10  C   UNL     1       6.817   4.853  16.539  0.00  0.00    +0.000 C 
ATOM     11  O   UNL     1       7.886   4.398  16.911  0.00  0.00    +0.000 OA
BRANCH  10  12
ATOM     12  O   UNL     1       6.593   5.524  15.382  0.00  0.00    +0.000 OA
BRANCH  12  14
ATOM     13  C   UNL     1       5.677   3.928  13.863  0.00  0.00    +0.000 C 
ATOM     14  C   UNL     1       6.878   4.798  14.177  0.00  0.00    +0.000 C 
ENDBRANCH  12  14
ENDBRANCH  10  12
ENDBRANCH   1  10
BRANCH   9  15
ATOM     15  C   UNL     1       1.407   4.085  20.459  0.00  0.00    +0.000 C 
ATOM     16  C   UNL     1       1.986   3.371  21.671  0.00  0.00    +0.000 C 
ENDBRANCH   9  15
BRANCH   8  17
ATOM     17  S   UNL     1       1.053   7.259  20.906  0.00  0.00    +0.000 S 
BRANCH  17  18
ATOM     18  C   UNL     1       1.213   8.960  20.277  0.00  0.00    +0.000 C 
BRANCH  18  19
ATOM     19  C   UNL     1       0.731  10.014  21.274  0.00  0.00    +0.000 C 
ATOM     20  O   UNL     1       0.943   9.920  22.486  0.00  0.00    +0.000 OA
ATOM     21  N   UNL     1       0.067  11.125  20.743  0.00  0.00    +0.000 N 
ATOM     22  C   UNL     1      -0.330  12.213  21.634  0.00  0.00    +0.000 C 
ATOM     23  C   UNL     1      -1.845  12.398  21.617  0.00  0.00    +0.000 C 
ATOM     24  C   UNL     1      -2.358  12.594  20.191  0.00  0.00    +0.000 C 
ATOM     25  C   UNL     1      -1.874  11.470  19.272  0.00  0.00    +0.000 C 
ATOM     26  C   UNL     1      -0.357  11.291  19.351  0.00  0.00    +0.000 C 
ENDBRANCH  18  19
ENDBRANCH  17  18
ENDBRANCH   8  17
TORSDOF 7
ENDMDL
MODEL 8
REMARK VINA RESULT:      -7.0      1.047      1.083
REMARK  Name = 
REMARK  9 active torsions:
REMARK  status: ('A' for Active; 'I' for Inactive)
REMARK    1  A    between atoms: C_1  and  C_2
REMARK    2  A    between atoms: C_2  and  O_3
REMARK    3  A    between atoms: O_3  and  C_4
REMARK    4  A    between atoms: C_4  and  C_6
REMARK    5  A    between atoms: C_13  and  S_14
REMARK    6  A    between atoms: S_14  and  C_15
REMARK    7  A    between atoms: C_15  and  C_16
REMARK    8  A    between atoms: N_24  and  C_25
REMARK    9  A    between atoms: C_25  and  C_26
REMARK                            x       y       z     vdW  Elec       q    Type
REMARK                         _______ _______ _______ _____ _____    ______ ____
ROOT
ATOM      1  C   UNL     1       5.226   5.017  16.880  0.00  0.00    +0.000 A 
ATOM      2  C   UNL     1       4.947   3.864  17.629  0.00  0.00    +0.000 A 
ATOM      3  C   UNL     1       4.054   3.890  18.708  0.00  0.00    +0.000 A 
ATOM      4  C   UNL     1       3.444   5.116  19.005  0.00  0.00    +0.000 A 
ATOM      5  C   UNL     1       3.692   6.274  18.273  0.00  0.00    +0.000 A 
ATOM      6  C   UNL     1       4.597   6.235  17.199  0.00  0.00    +0.000 A 
ATOM      7  N   UNL     1       2.971   7.338  18.760  0.00  0.00    +0.000 NA
ATOM      8  C   UNL     1       2.289   6.851  19.771  0.00  0.00    +0.000 A 
ATOM      9  N   UNL     1       2.533   5.512  19.964  0.00  0.00    +0.000 N 
ENDROOT
BRANCH   1  10
ATOM     10  C   UNL     1       6.251   4.925  15.809  0.00  0.00    +0.000 C 
ATOM     11  O   UNL     1       7.445   5.091  15.997  0.00  0.00    +0.000 OA
BRANCH  10  12
ATOM     12  O   UNL     1       5.648   4.749  14.606  0.00  0.00    +0.000 OA
BRANCH  12  14
ATOM     13  C   UNL     1       5.677   3.324  12.693  0.00  0.00    +0.000 C 
ATOM     14  C   UNL     1       6.494   4.270  13.551  0.00  0.00    +0.000 C 
ENDBRANCH  12  14
ENDBRANCH  10  12
ENDBRANCH   1  10
BRANCH   9  15
ATOM     15  C   UNL     1       1.888   4.627  20.917  0.00  0.00    +0.000 C 
ATOM     16  C   UNL     1       0.855   3.706  20.289  0.00  0.00    +0.000 C 
ENDBRANCH   9  15
BRANCH   8  17
ATOM     17  S   UNL     1       1.265   7.790  20.809  0.00  0.00    +0.000 S 
BRANCH  17  18
ATOM     18  C   UNL     1       1.183   9.363  19.897  0.00  0.00    +0.000 C 
BRANCH  18  19
ATOM     19  C   UNL     1       0.998  10.575  20.811  0.00  0.00    +0.000 C 
ATOM     20  O   UNL     1       0.904  10.469  22.036  0.00  0.00    +0.000 OA
ATOM     21  N   UNL     1       0.980  11.830  20.193  0.00  0.00    +0.000 N 
ATOM     22  C   UNL     1       0.905  13.033  21.020  0.00  0.00    +0.000 C 
ATOM     23  C   UNL     1      -0.357  13.830  20.701  0.00  0.00    +0.000 C 
ATOM     24  C   UNL     1      -0.445  14.142  19.208  0.00  0.00    +0.000 C 
ATOM     25  C   UNL     1      -0.303  12.870  18.369  0.00  0.00    +0.000 C 
ATOM     26  C   UNL     1       0.951  12.080  18.751  0.00  0.00    +0.000 C 
ENDBRANCH  18  19
ENDBRANCH  17  18
ENDBRANCH   8  17
TORSDOF 7
ENDMDL
MODEL 9
REMARK VINA RESULT:      -7.0      1.202      1.898
REMARK  Name = 
REMARK  9 active torsions:
REMARK  status: ('A' for Active; 'I' for Inactive)
REMARK    1  A    between atoms: C_1  and  C_2
REMARK    2  A    between atoms: C_2  and  O_3
REMARK    3  A    between atoms: O_3  and  C_4
REMARK    4  A    between atoms: C_4  and  C_6
REMARK    5  A    between atoms: C_13  and  S_14
REMARK    6  A    between atoms: S_14  and  C_15
REMARK    7  A    between atoms: C_15  and  C_16
REMARK    8  A    between atoms: N_24  and  C_25
REMARK    9  A    between atoms: C_25  and  C_26
REMARK                            x       y       z     vdW  Elec       q    Type
REMARK                         _______ _______ _______ _____ _____    ______ ____
ROOT
ATOM      1  C   UNL     1       4.734   4.898  16.705  0.00  0.00    +0.000 A 
ATOM      2  C   UNL     1       4.162   3.685  17.117  0.00  0.00    +0.000 A 
ATOM      3  C   UNL     1       3.209   3.636  18.141  0.00  0.00    +0.000 A 
ATOM      4  C   UNL     1       2.844   4.852  18.736  0.00  0.00    +0.000 A 
ATOM      5  C   UNL     1       3.386   6.073  18.341  0.00  0.00    +0.000 A 
ATOM      6  C   UNL     1       4.347   6.105  17.318  0.00  0.00    +0.000 A 
ATOM      7  N   UNL     1       2.864   7.112  19.072  0.00  0.00    +0.000 NA
ATOM      8  C   UNL     1       2.015   6.550  19.903  0.00  0.00    +0.000 A 
ATOM      9  N   UNL     1       1.959   5.186  19.742  0.00  0.00    +0.000 N 
ENDROOT
BRANCH   1  10
ATOM     10  C   UNL     1       5.801   4.853  15.672  0.00  0.00    +0.000 C 
ATOM     11  O   UNL     1       5.656   4.357  14.567  0.00  0.00    +0.000 OA
BRANCH  10  12
ATOM     12  O   UNL     1       6.961   5.333  16.186  0.00  0.00    +0.000 OA
BRANCH  12  14
ATOM     13  C   UNL     1       7.768   5.454  18.428  0.00  0.00    +0.000 C 
ATOM     14  C   UNL     1       7.550   4.548  17.232  0.00  0.00    +0.000 C 
ENDBRANCH  12  14
ENDBRANCH  10  12
ENDBRANCH   1  10
BRANCH   9  15
ATOM     15  C   UNL     1       1.069   4.256  20.413  0.00  0.00    +0.000 C 
ATOM     16  C   UNL     1       1.759   3.411  21.472  0.00  0.00    +0.000 C 
ENDBRANCH   9  15
BRANCH   8  17
ATOM     17  S   UNL     1       1.127   7.400  21.125  0.00  0.00    +0.000 S 
BRANCH  17  18
ATOM     18  C   UNL     1       1.116   9.089  20.445  0.00  0.00    +0.000 C 
BRANCH  18  19
ATOM     19  C   UNL     1       0.612  10.133  21.443  0.00  0.00    +0.000 C 
ATOM     20  O   UNL     1       0.771  10.011  22.660  0.00  0.00    +0.000 OA
ATOM     21  N   UNL     1      -0.009  11.266  20.907  0.00  0.00    +0.000 N 
ATOM     22  C   UNL     1      -0.424  12.344  21.802  0.00  0.00    +0.000 C 
ATOM     23  C   UNL     1      -1.932  12.558  21.727  0.00  0.00    +0.000 C 
ATOM     24  C   UNL     1      -2.383  12.791  20.286  0.00  0.00    +0.000 C 
ATOM     25  C   UNL     1      -1.881  11.676  19.364  0.00  0.00    +0.000 C 
ATOM     26  C   UNL     1      -0.372  11.467  19.503  0.00  0.00    +0.000 C 
ENDBRANCH  18  19
ENDBRANCH  17  18
ENDBRANCH   8  17
TORSDOF 7
ENDMDL
