MODEL 1
REMARK VINA RESULT:      -6.3      0.000      0.000
REMARK  Name = 
REMARK  20 active torsions:
REMARK  status: ('A' for Active; 'I' for Inactive)
REMARK    1  A    between atoms: C_1  and  C_2
REMARK    2  A    between atoms: C_2  and  C_3
REMARK    3  A    between atoms: C_3  and  C_4
REMARK    4  A    between atoms: C_4  and  C_5
REMARK    5  A    between atoms: C_5  and  C_6
REMARK    6  A    between atoms: C_6  and  C_7
REMARK    7  A    between atoms: C_7  and  C_8
REMARK    8  A    between atoms: C_8  and  C_9
REMARK    9  A    between atoms: C_10  and  C_11
REMARK   10  A    between atoms: C_11  and  C_12
REMARK   11  A    between atoms: C_12  and  C_13
REMARK   12  A    between atoms: C_13  and  C_14
REMARK   13  A    between atoms: C_14  and  C_15
REMARK   14  A    between atoms: C_15  and  C_16
REMARK   15  A    between atoms: C_16  and  C_17
REMARK   16  A    between atoms: C_17  and  C_18
REMARK   17  A    between atoms: N_20  and  C_21
REMARK   18  A    between atoms: C_21  and  C_22
REMARK   19  A    between atoms: C_26  and  O_27
REMARK   20  A    between atoms: O_27  and  C_28
REMARK                            x       y       z     vdW  Elec       q    Type
REMARK                         _______ _______ _______ _____ _____    ______ ____
ROOT
ATOM      1  C   UNL     1       2.176   6.907  19.955  0.00  0.00    +0.000 C 
ENDROOT
BRANCH   1   2
ATOM      2  C   UNL     1       1.425   5.755  20.599  0.00  0.00    +0.000 C 
BRANCH   2   3
ATOM      3  C   UNL     1       2.377   4.563  20.674  0.00  0.00    +0.000 C 
BRANCH   3   4
ATOM      4  C   UNL     1       2.069   3.581  19.575  0.00  0.00    +0.000 C 
ATOM      5  O   UNL     1       0.919   3.308  19.248  0.00  0.00    +0.000 OA
ATOM      6  N   UNL     1       3.123   3.022  18.918  0.00  0.00    +0.000 N 
ATOM      7  H   UNL     1       2.865   2.379  18.179  0.00  0.00    +0.000 HD
BRANCH   6   8
ATOM      8  C   UNL     1       4.517   3.220  19.226  0.00  0.00    +0.000 C 
BRANCH   8   9
ATOM      9  C   UNL     1       5.109   4.263  18.337  0.00  0.00    +0.000 A 
ATOM     10  C   UNL     1       4.728   4.353  16.995  0.00  0.00    +0.000 A 
ATOM     11  C   UNL     1       5.325   5.287  16.165  0.00  0.00    +0.000 A 
ATOM     12  C   UNL     1       6.317   6.134  16.667  0.00  0.00    +0.000 A 
ATOM     13  C   UNL     1       6.717   6.050  18.006  0.00  0.00    +0.000 A 
ATOM     14  C   UNL     1       6.107   5.115  18.838  0.00  0.00    +0.000 A 
BRANCH  13  15
ATOM     15  O   UNL     1       7.703   6.917  18.376  0.00  0.00    +0.000 OA
ATOM     16  C   UNL     1       7.822   8.112  17.613  0.00  0.00    +0.000 C 
ENDBRANCH  13  15
ENDBRANCH   8   9
ENDBRANCH   6   8
ENDBRANCH   3   4
ENDBRANCH   2   3
ENDBRANCH   1   2
BRANCH   1  17
ATOM     17  C   UNL     1       2.398   6.760  18.458  0.00  0.00    +0.000 C 
BRANCH  17  18
ATOM     18  C   UNL     1       3.036   7.987  17.796  0.00  0.00    +0.000 C 
BRANCH  18  19
ATOM     19  C   UNL     1       2.231   9.294  17.859  0.00  0.00    +0.000 C 
BRANCH  19  20
ATOM     20  C   UNL     1       0.715   9.213  17.717  0.00  0.00    +0.000 C 
BRANCH  20  22
ATOM     21  C   UNL     1      -1.262  10.548  18.504  0.00  0.00    +0.000 C 
ATOM     22  C   UNL     1      -0.047  10.031  18.730  0.00  0.00    +0.000 C 
BRANCH  21  23
ATOM     23  C   UNL     1      -1.964  10.300  17.214  0.00  0.00    +0.000 C 
BRANCH  23  24
ATOM     24  C   UNL     1      -3.440  10.022  17.375  0.00  0.00    +0.000 C 
BRANCH  24  25
ATOM     25  C   UNL     1      -4.197  11.092  16.603  0.00  0.00    +0.000 C 
BRANCH  25  26
ATOM     26  C   UNL     1      -5.374  11.584  17.417  0.00  0.00    +0.000 C 
BRANCH  26  27
ATOM     27  C   UNL     1      -4.944  11.866  18.848  0.00  0.00    +0.000 C 
BRANCH  27  28
ATOM     28  C   UNL     1      -6.001  12.715  19.538  0.00  0.00    +0.000 C 
BRANCH  28  30
ATOM     29  C   UNL     1      -7.381  10.826  20.417  0.00  0.00    +0.000 C 
ATOM     30  C   UNL     1      -7.361  12.033  19.497  0.00  0.00    +0.000 C 
ENDBRANCH  28  30
ENDBRANCH  27  28
ENDBRANCH  26  27
ENDBRANCH  25  26
ENDBRANCH  24  25
ENDBRANCH  23  24
ENDBRANCH  21  23
ENDBRANCH  20  22
ENDBRANCH  19  20
ENDBRANCH  18  19
ENDBRANCH  17  18
ENDBRANCH   1  17
TORSDOF 18
ENDMDL
MODEL 2
REMARK VINA RESULT:      -6.1      2.349      3.545
REMARK  Name = 
REMARK  20 active torsions:
REMARK  status: ('A' for Active; 'I' for Inactive)
REMARK    1  A    between atoms: C_1  and  C_2
REMARK    2  A    between atoms: C_2  and  C_3
REMARK    3  A    between atoms: C_3  and  C_4
REMARK    4  A    between atoms: C_4  and  C_5
REMARK    5  A    between atoms: C_5  and  C_6
REMARK    6  A    between atoms: C_6  and  C_7
REMARK    7  A    between atoms: C_7  and  C_8
REMARK    8  A    between atoms: C_8  and  C_9
REMARK    9  A    between atoms: C_10  and  C_11
REMARK   10  A    between atoms: C_11  and  C_12
REMARK   11  A    between atoms: C_12  and  C_13
REMARK   12  A    between atoms: C_13  and  C_14
REMARK   13  A    between atoms: C_14  and  C_15
REMARK   14  A    between atoms: C_15  and  C_16
REMARK   15  A    between atoms: C_16  and  C_17
REMARK   16  A    between atoms: C_17  and  C_18
REMARK   17  A    between atoms: N_20  and  C_21
REMARK   18  A    between atoms: C_21  and  C_22
REMARK   19  A    between atoms: C_26  and  O_27
REMARK   20  A    between atoms: O_27  and  C_28
REMARK                            x       y       z     vdW  Elec       q    Type
REMARK                         _______ _______ _______ _____ _____    ______ ____
ROOT
ATOM      1  C   UNL     1       2.762   5.680  19.433  0.00  0.00    +0.000 C 
ENDROOT
BRANCH   1   2
ATOM      2  C   UNL     1       1.752   4.704  18.855  0.00  0.00    +0.000 C 
BRANCH   2   3
ATOM      3  C   UNL     1       2.358   4.103  17.589  0.00  0.00    +0.000 C 
BRANCH   3   4
ATOM      4  C   UNL     1       3.325   3.005  17.945  0.00  0.00    +0.000 C 
ATOM      5  O   UNL     1       3.017   2.081  18.690  0.00  0.00    +0.000 OA
ATOM      6  N   UNL     1       4.563   3.050  17.377  0.00  0.00    +0.000 N 
ATOM      7  H   UNL     1       5.172   2.283  17.636  0.00  0.00    +0.000 HD
BRANCH   6   8
ATOM      8  C   UNL     1       5.068   4.095  16.523  0.00  0.00    +0.000 C 
BRANCH   8   9
ATOM      9  C   UNL     1       6.064   4.935  17.252  0.00  0.00    +0.000 A 
ATOM     10  C   UNL     1       6.532   4.549  18.512  0.00  0.00    +0.000 A 
ATOM     11  C   UNL     1       7.413   5.363  19.204  0.00  0.00    +0.000 A 
ATOM     12  C   UNL     1       7.826   6.578  18.647  0.00  0.00    +0.000 A 
ATOM     13  C   UNL     1       7.358   6.983  17.392  0.00  0.00    +0.000 A 
ATOM     14  C   UNL     1       6.480   6.155  16.697  0.00  0.00    +0.000 A 
BRANCH  13  15
ATOM     15  O   UNL     1       7.818   8.192  16.960  0.00  0.00    +0.000 OA
ATOM     16  C   UNL     1       8.242   9.109  17.963  0.00  0.00    +0.000 C 
ENDBRANCH  13  15
ENDBRANCH   8   9
ENDBRANCH   6   8
ENDBRANCH   3   4
ENDBRANCH   2   3
ENDBRANCH   1   2
BRANCH   1  17
ATOM     17  C   UNL     1       3.376   6.630  18.417  0.00  0.00    +0.000 C 
BRANCH  17  18
ATOM     18  C   UNL     1       2.377   7.614  17.795  0.00  0.00    +0.000 C 
BRANCH  18  19
ATOM     19  C   UNL     1       1.793   8.680  18.734  0.00  0.00    +0.000 C 
BRANCH  19  20
ATOM     20  C   UNL     1       1.055   9.860  18.111  0.00  0.00    +0.000 C 
BRANCH  20  22
ATOM     21  C   UNL     1      -1.271  10.789  18.302  0.00  0.00    +0.000 C 
ATOM     22  C   UNL     1      -0.449   9.742  18.153  0.00  0.00    +0.000 C 
BRANCH  21  23
ATOM     23  C   UNL     1      -0.729  12.173  18.396  0.00  0.00    +0.000 C 
BRANCH  23  24
ATOM     24  C   UNL     1      -1.437  13.030  19.419  0.00  0.00    +0.000 C 
BRANCH  24  25
ATOM     25  C   UNL     1      -2.160  12.097  20.379  0.00  0.00    +0.000 C 
BRANCH  25  26
ATOM     26  C   UNL     1      -1.476  12.110  21.729  0.00  0.00    +0.000 C 
BRANCH  26  27
ATOM     27  C   UNL     1       0.033  12.182  21.553  0.00  0.00    +0.000 C 
BRANCH  27  28
ATOM     28  C   UNL     1       0.623  10.784  21.647  0.00  0.00    +0.000 C 
BRANCH  28  30
ATOM     29  C   UNL     1      -0.376   8.495  21.648  0.00  0.00    +0.000 C 
ATOM     30  C   UNL     1      -0.330   9.835  22.358  0.00  0.00    +0.000 C 
ENDBRANCH  28  30
ENDBRANCH  27  28
ENDBRANCH  26  27
ENDBRANCH  25  26
ENDBRANCH  24  25
ENDBRANCH  23  24
ENDBRANCH  21  23
ENDBRANCH  20  22
ENDBRANCH  19  20
ENDBRANCH  18  19
ENDBRANCH  17  18
ENDBRANCH   1  17
TORSDOF 18
ENDMDL
MODEL 3
REMARK VINA RESULT:      -6.1      3.503      9.951
REMARK  Name = 
REMARK  20 active torsions:
REMARK  status: ('A' for Active; 'I' for Inactive)
REMARK    1  A    between atoms: C_1  and  C_2
REMARK    2  A    between atoms: C_2  and  C_3
REMARK    3  A    between atoms: C_3  and  C_4
REMARK    4  A    between atoms: C_4  and  C_5
REMARK    5  A    between atoms: C_5  and  C_6
REMARK    6  A    between atoms: C_6  and  C_7
REMARK    7  A    between atoms: C_7  and  C_8
REMARK    8  A    between atoms: C_8  and  C_9
REMARK    9  A    between atoms: C_10  and  C_11
REMARK   10  A    between atoms: C_11  and  C_12
REMARK   11  A    between atoms: C_12  and  C_13
REMARK   12  A    between atoms: C_13  and  C_14
REMARK   13  A    between atoms: C_14  and  C_15
REMARK   14  A    between atoms: C_15  and  C_16
REMARK   15  A    between atoms: C_16  and  C_17
REMARK   16  A    between atoms: C_17  and  C_18
REMARK   17  A    between atoms: N_20  and  C_21
REMARK   18  A    between atoms: C_21  and  C_22
REMARK   19  A    between atoms: C_26  and  O_27
REMARK   20  A    between atoms: O_27  and  C_28
REMARK                            x       y       z     vdW  Elec       q    Type
REMARK                         _______ _______ _______ _____ _____    ______ ____
ROOT
ATOM      1  C   UNL     1       0.687   9.392  19.915  0.00  0.00    +0.000 C 
ENDROOT
BRANCH   1   2
ATOM      2  C   UNL     1       0.810  10.284  21.138  0.00  0.00    +0.000 C 
BRANCH   2   3
ATOM      3  C   UNL     1      -0.496  11.063  21.278  0.00  0.00    +0.000 C 
BRANCH   3   4
ATOM      4  C   UNL     1      -0.363  12.421  20.641  0.00  0.00    +0.000 C 
ATOM      5  O   UNL     1       0.727  12.950  20.454  0.00  0.00    +0.000 OA
ATOM      6  N   UNL     1      -1.508  13.040  20.237  0.00  0.00    +0.000 N 
ATOM      7  H   UNL     1      -1.366  13.943  19.802  0.00  0.00    +0.000 HD
BRANCH   6   8
ATOM      8  C   UNL     1      -2.850  12.553  20.432  0.00  0.00    +0.000 C 
BRANCH   8   9
ATOM      9  C   UNL     1      -3.445  12.114  19.135  0.00  0.00    +0.000 A 
ATOM     10  C   UNL     1      -4.832  12.088  18.962  0.00  0.00    +0.000 A 
ATOM     11  C   UNL     1      -5.375  11.626  17.774  0.00  0.00    +0.000 A 
ATOM     12  C   UNL     1      -4.534  11.176  16.751  0.00  0.00    +0.000 A 
ATOM     13  C   UNL     1      -3.144  11.186  16.913  0.00  0.00    +0.000 A 
ATOM     14  C   UNL     1      -2.604  11.661  18.106  0.00  0.00    +0.000 A 
BRANCH  13  15
ATOM     15  O   UNL     1      -2.430  10.709  15.854  0.00  0.00    +0.000 OA
ATOM     16  C   UNL     1      -3.175  10.301  14.713  0.00  0.00    +0.000 C 
ENDBRANCH  13  15
ENDBRANCH   8   9
ENDBRANCH   6   8
ENDBRANCH   3   4
ENDBRANCH   2   3
ENDBRANCH   1   2
BRANCH   1  17
ATOM     17  C   UNL     1       1.478   9.864  18.705  0.00  0.00    +0.000 C 
BRANCH  17  18
ATOM     18  C   UNL     1       1.792   8.758  17.692  0.00  0.00    +0.000 C 
BRANCH  18  19
ATOM     19  C   UNL     1       2.779   7.673  18.148  0.00  0.00    +0.000 C 
BRANCH  19  20
ATOM     20  C   UNL     1       2.211   6.364  18.687  0.00  0.00    +0.000 C 
BRANCH  20  22
ATOM     21  C   UNL     1       1.860   5.184  20.877  0.00  0.00    +0.000 C 
ATOM     22  C   UNL     1       2.471   6.133  20.156  0.00  0.00    +0.000 C 
BRANCH  21  23
ATOM     23  C   UNL     1       0.891   4.251  20.238  0.00  0.00    +0.000 C 
BRANCH  23  24
ATOM     24  C   UNL     1       1.380   2.824  20.175  0.00  0.00    +0.000 C 
BRANCH  24  25
ATOM     25  C   UNL     1       1.302   2.373  18.724  0.00  0.00    +0.000 C 
BRANCH  25  26
ATOM     26  C   UNL     1       2.695   2.201  18.158  0.00  0.00    +0.000 C 
BRANCH  26  27
ATOM     27  C   UNL     1       3.002   3.312  17.165  0.00  0.00    +0.000 C 
BRANCH  27  28
ATOM     28  C   UNL     1       4.445   3.759  17.332  0.00  0.00    +0.000 C 
BRANCH  28  30
ATOM     29  C   UNL     1       5.833   5.781  16.855  0.00  0.00    +0.000 C 
ATOM     30  C   UNL     1       4.817   4.805  16.290  0.00  0.00    +0.000 C 
ENDBRANCH  28  30
ENDBRANCH  27  28
ENDBRANCH  26  27
ENDBRANCH  25  26
ENDBRANCH  24  25
ENDBRANCH  23  24
ENDBRANCH  21  23
ENDBRANCH  20  22
ENDBRANCH  19  20
ENDBRANCH  18  19
ENDBRANCH  17  18
ENDBRANCH   1  17
TORSDOF 18
ENDMDL
MODEL 4
REMARK VINA RESULT:      -6.1      1.953      3.424
REMARK  Name = 
REMARK  20 active torsions:
REMARK  status: ('A' for Active; 'I' for Inactive)
REMARK    1  A    between atoms: C_1  and  C_2
REMARK    2  A    between atoms: C_2  and  C_3
REMARK    3  A    between atoms: C_3  and  C_4
REMARK    4  A    between atoms: C_4  and  C_5
REMARK    5  A    between atoms: C_5  and  C_6
REMARK    6  A    between atoms: C_6  and  C_7
REMARK    7  A    between atoms: C_7  and  C_8
REMARK    8  A    between atoms: C_8  and  C_9
REMARK    9  A    between atoms: C_10  and  C_11
REMARK   10  A    between atoms: C_11  and  C_12
REMARK   11  A    between atoms: C_12  and  C_13
REMARK   12  A    between atoms: C_13  and  C_14
REMARK   13  A    between atoms: C_14  and  C_15
REMARK   14  A    between atoms: C_15  and  C_16
REMARK   15  A    between atoms: C_16  and  C_17
REMARK   16  A    between atoms: C_17  and  C_18
REMARK   17  A    between atoms: N_20  and  C_21
REMARK   18  A    between atoms: C_21  and  C_22
REMARK   19  A    between atoms: C_26  and  O_27
REMARK   20  A    between atoms: O_27  and  C_28
REMARK                            x       y       z     vdW  Elec       q    Type
REMARK                         _______ _______ _______ _____ _____    ______ ____
ROOT
ATOM      1  C   UNL     1       1.020   4.153  18.721  0.00  0.00    +0.000 C 
ENDROOT
BRANCH   1   2
ATOM      2  C   UNL     1       2.023   3.149  18.182  0.00  0.00    +0.000 C 
BRANCH   2   3
ATOM      3  C   UNL     1       2.512   2.303  19.356  0.00  0.00    +0.000 C 
BRANCH   3   4
ATOM      4  C   UNL     1       3.871   1.731  19.055  0.00  0.00    +0.000 C 
ATOM      5  O   UNL     1       4.027   0.560  18.723  0.00  0.00    +0.000 OA
ATOM      6  N   UNL     1       4.939   2.575  19.127  0.00  0.00    +0.000 N 
ATOM      7  H   UNL     1       5.829   2.147  18.902  0.00  0.00    +0.000 HD
BRANCH   6   8
ATOM      8  C   UNL     1       4.903   3.954  19.543  0.00  0.00    +0.000 C 
BRANCH   8   9
ATOM      9  C   UNL     1       5.826   4.779  18.708  0.00  0.00    +0.000 A 
ATOM     10  C   UNL     1       6.778   5.607  19.309  0.00  0.00    +0.000 A 
ATOM     11  C   UNL     1       7.592   6.411  18.527  0.00  0.00    +0.000 A 
ATOM     12  C   UNL     1       7.453   6.401  17.136  0.00  0.00    +0.000 A 
ATOM     13  C   UNL     1       6.497   5.586  16.520  0.00  0.00    +0.000 A 
ATOM     14  C   UNL     1       5.689   4.773  17.311  0.00  0.00    +0.000 A 
BRANCH  13  15
ATOM     15  O   UNL     1       6.444   5.674  15.160  0.00  0.00    +0.000 OA
ATOM     16  C   UNL     1       5.595   4.749  14.491  0.00  0.00    +0.000 C 
ENDBRANCH  13  15
ENDBRANCH   8   9
ENDBRANCH   6   8
ENDBRANCH   3   4
ENDBRANCH   2   3
ENDBRANCH   1   2
BRANCH   1  17
ATOM     17  C   UNL     1       1.010   4.287  20.236  0.00  0.00    +0.000 C 
BRANCH  17  18
ATOM     18  C   UNL     1       1.836   5.464  20.766  0.00  0.00    +0.000 C 
BRANCH  18  19
ATOM     19  C   UNL     1       1.996   6.667  19.824  0.00  0.00    +0.000 C 
BRANCH  19  20
ATOM     20  C   UNL     1       1.891   8.067  20.420  0.00  0.00    +0.000 C 
BRANCH  20  22
ATOM     21  C   UNL     1      -0.081   9.334  21.324  0.00  0.00    +0.000 C 
ATOM     22  C   UNL     1       0.716   8.258  21.349  0.00  0.00    +0.000 C 
BRANCH  21  23
ATOM     23  C   UNL     1       0.132  10.413  20.320  0.00  0.00    +0.000 C 
BRANCH  23  24
ATOM     24  C   UNL     1      -1.025  11.379  20.219  0.00  0.00    +0.000 C 
BRANCH  24  25
ATOM     25  C   UNL     1      -1.386  11.513  18.746  0.00  0.00    +0.000 C 
BRANCH  25  26
ATOM     26  C   UNL     1      -1.128  10.207  18.028  0.00  0.00    +0.000 C 
BRANCH  26  27
ATOM     27  C   UNL     1      -2.335   9.820  17.187  0.00  0.00    +0.000 C 
BRANCH  27  28
ATOM     28  C   UNL     1      -2.676  10.955  16.235  0.00  0.00    +0.000 C 
BRANCH  28  30
ATOM     29  C   UNL     1      -4.799  11.602  17.383  0.00  0.00    +0.000 C 
ATOM     30  C   UNL     1      -4.183  11.109  16.086  0.00  0.00    +0.000 C 
ENDBRANCH  28  30
ENDBRANCH  27  28
ENDBRANCH  26  27
ENDBRANCH  25  26
ENDBRANCH  24  25
ENDBRANCH  23  24
ENDBRANCH  21  23
ENDBRANCH  20  22
ENDBRANCH  19  20
ENDBRANCH  18  19
ENDBRANCH  17  18
ENDBRANCH   1  17
TORSDOF 18
ENDMDL
MODEL 5
REMARK VINA RESULT:      -6.0      3.609      6.574
REMARK  Name = 
REMARK  20 active torsions:
REMARK  status: ('A' for Active; 'I' for Inactive)
REMARK    1  A    between atoms: C_1  and  C_2
REMARK    2  A    between atoms: C_2  and  C_3
REMARK    3  A    between atoms: C_3  and  C_4
REMARK    4  A    between atoms: C_4  and  C_5
REMARK    5  A    between atoms: C_5  and  C_6
REMARK    6  A    between atoms: C_6  and  C_7
REMARK    7  A    between atoms: C_7  and  C_8
REMARK    8  A    between atoms: C_8  and  C_9
REMARK    9  A    between atoms: C_10  and  C_11
REMARK   10  A    between atoms: C_11  and  C_12
REMARK   11  A    between atoms: C_12  and  C_13
REMARK   12  A    between atoms: C_13  and  C_14
REMARK   13  A    between atoms: C_14  and  C_15
REMARK   14  A    between atoms: C_15  and  C_16
REMARK   15  A    between atoms: C_16  and  C_17
REMARK   16  A    between atoms: C_17  and  C_18
REMARK   17  A    between atoms: N_20  and  C_21
REMARK   18  A    between atoms: C_21  and  C_22
REMARK   19  A    between atoms: C_26  and  O_27
REMARK   20  A    between atoms: O_27  and  C_28
REMARK                            x       y       z     vdW  Elec       q    Type
REMARK                         _______ _______ _______ _____ _____    ______ ____
ROOT
ATOM      1  C   UNL     1       5.244   3.854  19.023  0.00  0.00    +0.000 C 
ENDROOT
BRANCH   1   2
ATOM      2  C   UNL     1       6.258   4.932  18.682  0.00  0.00    +0.000 C 
BRANCH   2   3
ATOM      3  C   UNL     1       5.501   6.097  18.046  0.00  0.00    +0.000 C 
BRANCH   3   4
ATOM      4  C   UNL     1       6.363   6.776  17.015  0.00  0.00    +0.000 C 
ATOM      5  O   UNL     1       7.015   7.783  17.270  0.00  0.00    +0.000 OA
ATOM      6  N   UNL     1       6.428   6.208  15.778  0.00  0.00    +0.000 N 
ATOM      7  H   UNL     1       7.031   6.693  15.124  0.00  0.00    +0.000 HD
BRANCH   6   8
ATOM      8  C   UNL     1       5.685   5.056  15.333  0.00  0.00    +0.000 C 
BRANCH   8   9
ATOM      9  C   UNL     1       6.208   4.567  14.023  0.00  0.00    +0.000 A 
ATOM     10  C   UNL     1       7.297   5.195  13.413  0.00  0.00    +0.000 A 
ATOM     11  C   UNL     1       7.739   4.769  12.171  0.00  0.00    +0.000 A 
ATOM     12  C   UNL     1       7.086   3.716  11.522  0.00  0.00    +0.000 A 
ATOM     13  C   UNL     1       5.987   3.084  12.115  0.00  0.00    +0.000 A 
ATOM     14  C   UNL     1       5.554   3.511  13.367  0.00  0.00    +0.000 A 
BRANCH  13  15
ATOM     15  O   UNL     1       5.424   2.083  11.379  0.00  0.00    +0.000 OA
ATOM     16  C   UNL     1       6.212   0.914  11.184  0.00  0.00    +0.000 C 
ENDBRANCH  13  15
ENDBRANCH   8   9
ENDBRANCH   6   8
ENDBRANCH   3   4
ENDBRANCH   2   3
ENDBRANCH   1   2
BRANCH   1  17
ATOM     17  C   UNL     1       4.193   3.612  17.951  0.00  0.00    +0.000 C 
BRANCH  17  18
ATOM     18  C   UNL     1       3.633   2.185  17.934  0.00  0.00    +0.000 C 
BRANCH  18  19
ATOM     19  C   UNL     1       2.111   2.050  17.770  0.00  0.00    +0.000 C 
BRANCH  19  20
ATOM     20  C   UNL     1       1.212   2.882  18.678  0.00  0.00    +0.000 C 
BRANCH  20  22
ATOM     21  C   UNL     1       1.446   3.598  21.075  0.00  0.00    +0.000 C 
ATOM     22  C   UNL     1       1.414   2.628  20.152  0.00  0.00    +0.000 C 
BRANCH  21  23
ATOM     23  C   UNL     1       1.236   5.021  20.687  0.00  0.00    +0.000 C 
BRANCH  23  24
ATOM     24  C   UNL     1       2.510   5.737  20.309  0.00  0.00    +0.000 C 
BRANCH  24  25
ATOM     25  C   UNL     1       2.138   7.156  19.903  0.00  0.00    +0.000 C 
BRANCH  25  26
ATOM     26  C   UNL     1       1.269   7.789  20.967  0.00  0.00    +0.000 C 
BRANCH  26  27
ATOM     27  C   UNL     1       1.113   9.279  20.703  0.00  0.00    +0.000 C 
BRANCH  27  28
ATOM     28  C   UNL     1      -0.339   9.682  20.906  0.00  0.00    +0.000 C 
BRANCH  28  30
ATOM     29  C   UNL     1      -0.928  12.011  21.590  0.00  0.00    +0.000 C 
ATOM     30  C   UNL     1      -0.584  11.104  20.423  0.00  0.00    +0.000 C 
ENDBRANCH  28  30
ENDBRANCH  27  28
ENDBRANCH  26  27
ENDBRANCH  25  26
ENDBRANCH  24  25
ENDBRANCH  23  24
ENDBRANCH  21  23
ENDBRANCH  20  22
ENDBRANCH  19  20
ENDBRANCH  18  19
ENDBRANCH  17  18
ENDBRANCH   1  17
TORSDOF 18
ENDMDL
MODEL 6
REMARK VINA RESULT:      -6.0      4.571      8.084
REMARK  Name = 
REMARK  20 active torsions:
REMARK  status: ('A' for Active; 'I' for Inactive)
REMARK    1  A    between atoms: C_1  and  C_2
REMARK    2  A    between atoms: C_2  and  C_3
REMARK    3  A    between atoms: C_3  and  C_4
REMARK    4  A    between atoms: C_4  and  C_5
REMARK    5  A    between atoms: C_5  and  C_6
REMARK    6  A    between atoms: C_6  and  C_7
REMARK    7  A    between atoms: C_7  and  C_8
REMARK    8  A    between atoms: C_8  and  C_9
REMARK    9  A    between atoms: C_10  and  C_11
REMARK   10  A    between atoms: C_11  and  C_12
REMARK   11  A    between atoms: C_12  and  C_13
REMARK   12  A    between atoms: C_13  and  C_14
REMARK   13  A    between atoms: C_14  and  C_15
REMARK   14  A    between atoms: C_15  and  C_16
REMARK   15  A    between atoms: C_16  and  C_17
REMARK   16  A    between atoms: C_17  and  C_18
REMARK   17  A    between atoms: N_20  and  C_21
REMARK   18  A    between atoms: C_21  and  C_22
REMARK   19  A    between atoms: C_26  and  O_27
REMARK   20  A    between atoms: O_27  and  C_28
REMARK                            x       y       z     vdW  Elec       q    Type
REMARK                         _______ _______ _______ _____ _____    ______ ____
ROOT
ATOM      1  C   UNL     1       6.519   4.826  18.276  0.00  0.00    +0.000 C 
ENDROOT
BRANCH   1   2
ATOM      2  C   UNL     1       7.905   5.415  18.088  0.00  0.00    +0.000 C 
BRANCH   2   3
ATOM      3  C   UNL     1       7.886   6.837  18.647  0.00  0.00    +0.000 C 
BRANCH   3   4
ATOM      4  C   UNL     1       7.508   7.816  17.568  0.00  0.00    +0.000 C 
ATOM      5  O   UNL     1       6.776   7.506  16.634  0.00  0.00    +0.000 OA
ATOM      6  N   UNL     1       7.981   9.088  17.679  0.00  0.00    +0.000 N 
ATOM      7  H   UNL     1       7.689   9.712  16.937  0.00  0.00    +0.000 HD
BRANCH   6   8
ATOM      8  C   UNL     1       8.880   9.573  18.696  0.00  0.00    +0.000 C 
BRANCH   8   9
ATOM      9  C   UNL     1       9.474  10.883  18.293  0.00  0.00    +0.000 A 
ATOM     10  C   UNL     1      10.856  11.018  18.135  0.00  0.00    +0.000 A 
ATOM     11  C   UNL     1      11.401  12.250  17.816  0.00  0.00    +0.000 A 
ATOM     12  C   UNL     1      10.568  13.363  17.662  0.00  0.00    +0.000 A 
ATOM     13  C   UNL     1       9.183  13.246  17.827  0.00  0.00    +0.000 A 
ATOM     14  C   UNL     1       8.641  12.002  18.138  0.00  0.00    +0.000 A 
BRANCH  13  15
ATOM     15  O   UNL     1       8.478  14.402  17.668  0.00  0.00    +0.000 OA
ATOM     16  C   UNL     1       7.187  14.451  18.264  0.00  0.00    +0.000 C 
ENDBRANCH  13  15
ENDBRANCH   8   9
ENDBRANCH   6   8
ENDBRANCH   3   4
ENDBRANCH   2   3
ENDBRANCH   1   2
BRANCH   1  17
ATOM     17  C   UNL     1       5.892   4.266  17.009  0.00  0.00    +0.000 C 
BRANCH  17  18
ATOM     18  C   UNL     1       4.625   3.437  17.250  0.00  0.00    +0.000 C 
BRANCH  18  19
ATOM     19  C   UNL     1       4.036   3.485  18.668  0.00  0.00    +0.000 C 
BRANCH  19  20
ATOM     20  C   UNL     1       3.798   2.164  19.393  0.00  0.00    +0.000 C 
BRANCH  20  22
ATOM     21  C   UNL     1       2.258   2.660  21.315  0.00  0.00    +0.000 C 
ATOM     22  C   UNL     1       3.469   2.312  20.859  0.00  0.00    +0.000 C 
BRANCH  21  23
ATOM     23  C   UNL     1       1.128   2.886  20.373  0.00  0.00    +0.000 C 
BRANCH  23  24
ATOM     24  C   UNL     1       0.849   4.345  20.106  0.00  0.00    +0.000 C 
BRANCH  24  25
ATOM     25  C   UNL     1       1.805   5.162  20.963  0.00  0.00    +0.000 C 
BRANCH  25  26
ATOM     26  C   UNL     1       2.329   6.343  20.175  0.00  0.00    +0.000 C 
BRANCH  26  27
ATOM     27  C   UNL     1       1.996   6.181  18.700  0.00  0.00    +0.000 C 
BRANCH  27  28
ATOM     28  C   UNL     1       3.075   6.845  17.860  0.00  0.00    +0.000 C 
BRANCH  28  30
ATOM     29  C   UNL     1       1.519   8.792  17.690  0.00  0.00    +0.000 C 
ATOM     30  C   UNL     1       2.957   8.361  17.917  0.00  0.00    +0.000 C 
ENDBRANCH  28  30
ENDBRANCH  27  28
ENDBRANCH  26  27
ENDBRANCH  25  26
ENDBRANCH  24  25
ENDBRANCH  23  24
ENDBRANCH  21  23
ENDBRANCH  20  22
ENDBRANCH  19  20
ENDBRANCH  18  19
ENDBRANCH  17  18
ENDBRANCH   1  17
TORSDOF 18
ENDMDL
MODEL 7
REMARK VINA RESULT:      -5.9      1.675      2.469
REMARK  Name = 
REMARK  20 active torsions:
REMARK  status: ('A' for Active; 'I' for Inactive)
REMARK    1  A    between atoms: C_1  and  C_2
REMARK    2  A    between atoms: C_2  and  C_3
REMARK    3  A    between atoms: C_3  and  C_4
REMARK    4  A    between atoms: C_4  and  C_5
REMARK    5  A    between atoms: C_5  and  C_6
REMARK    6  A    between atoms: C_6  and  C_7
REMARK    7  A    between atoms: C_7  and  C_8
REMARK    8  A    between atoms: C_8  and  C_9
REMARK    9  A    between atoms: C_10  and  C_11
REMARK   10  A    between atoms: C_11  and  C_12
REMARK   11  A    between atoms: C_12  and  C_13
REMARK   12  A    between atoms: C_13  and  C_14
REMARK   13  A    between atoms: C_14  and  C_15
REMARK   14  A    between atoms: C_15  and  C_16
REMARK   15  A    between atoms: C_16  and  C_17
REMARK   16  A    between atoms: C_17  and  C_18
REMARK   17  A    between atoms: N_20  and  C_21
REMARK   18  A    between atoms: C_21  and  C_22
REMARK   19  A    between atoms: C_26  and  O_27
REMARK   20  A    between atoms: O_27  and  C_28
REMARK                            x       y       z     vdW  Elec       q    Type
REMARK                         _______ _______ _______ _____ _____    ______ ____
ROOT
ATOM      1  C   UNL     1       2.000   7.791  19.458  0.00  0.00    +0.000 C 
ENDROOT
BRANCH   1   2
ATOM      2  C   UNL     1       2.856   6.705  18.830  0.00  0.00    +0.000 C 
BRANCH   2   3
ATOM      3  C   UNL     1       2.302   5.356  19.283  0.00  0.00    +0.000 C 
BRANCH   3   4
ATOM      4  C   UNL     1       2.259   4.395  18.124  0.00  0.00    +0.000 C 
ATOM      5  O   UNL     1       1.314   4.358  17.343  0.00  0.00    +0.000 OA
ATOM      6  N   UNL     1       3.335   3.579  17.944  0.00  0.00    +0.000 N 
ATOM      7  H   UNL     1       3.264   2.961  17.145  0.00  0.00    +0.000 HD
BRANCH   6   8
ATOM      8  C   UNL     1       4.486   3.489  18.806  0.00  0.00    +0.000 C 
BRANCH   8   9
ATOM      9  C   UNL     1       5.582   4.375  18.314  0.00  0.00    +0.000 A 
ATOM     10  C   UNL     1       6.233   5.252  19.187  0.00  0.00    +0.000 A 
ATOM     11  C   UNL     1       7.210   6.110  18.708  0.00  0.00    +0.000 A 
ATOM     12  C   UNL     1       7.537   6.106  17.349  0.00  0.00    +0.000 A 
ATOM     13  C   UNL     1       6.886   5.242  16.461  0.00  0.00    +0.000 A 
ATOM     14  C   UNL     1       5.912   4.375  16.949  0.00  0.00    +0.000 A 
BRANCH  13  15
ATOM     15  O   UNL     1       7.279   5.341  15.158  0.00  0.00    +0.000 OA
ATOM     16  C   UNL     1       6.561   4.557  14.213  0.00  0.00    +0.000 C 
ENDBRANCH  13  15
ENDBRANCH   8   9
ENDBRANCH   6   8
ENDBRANCH   3   4
ENDBRANCH   2   3
ENDBRANCH   1   2
BRANCH   1  17
ATOM     17  C   UNL     1       1.551   7.498  20.880  0.00  0.00    +0.000 C 
BRANCH  17  18
ATOM     18  C   UNL     1       1.091   8.736  21.659  0.00  0.00    +0.000 C 
BRANCH  18  19
ATOM     19  C   UNL     1      -0.200   9.411  21.172  0.00  0.00    +0.000 C 
BRANCH  19  20
ATOM     20  C   UNL     1      -0.088  10.773  20.495  0.00  0.00    +0.000 C 
BRANCH  20  22
ATOM     21  C   UNL     1      -1.908  12.396  19.891  0.00  0.00    +0.000 C 
ATOM     22  C   UNL     1      -1.218  11.721  20.819  0.00  0.00    +0.000 C 
BRANCH  21  23
ATOM     23  C   UNL     1      -1.616  12.210  18.443  0.00  0.00    +0.000 C 
BRANCH  23  24
ATOM     24  C   UNL     1      -2.626  11.343  17.731  0.00  0.00    +0.000 C 
BRANCH  24  25
ATOM     25  C   UNL     1      -3.997  11.659  18.313  0.00  0.00    +0.000 C 
BRANCH  25  26
ATOM     26  C   UNL     1      -5.082  11.134  17.399  0.00  0.00    +0.000 C 
BRANCH  26  27
ATOM     27  C   UNL     1      -6.445  11.292  18.054  0.00  0.00    +0.000 C 
BRANCH  27  28
ATOM     28  C   UNL     1      -6.272  11.441  19.558  0.00  0.00    +0.000 C 
BRANCH  28  30
ATOM     29  C   UNL     1      -7.188   9.125  19.748  0.00  0.00    +0.000 C 
ATOM     30  C   UNL     1      -7.234  10.533  20.311  0.00  0.00    +0.000 C 
ENDBRANCH  28  30
ENDBRANCH  27  28
ENDBRANCH  26  27
ENDBRANCH  25  26
ENDBRANCH  24  25
ENDBRANCH  23  24
ENDBRANCH  21  23
ENDBRANCH  20  22
ENDBRANCH  19  20
ENDBRANCH  18  19
ENDBRANCH  17  18
ENDBRANCH   1  17
TORSDOF 18
ENDMDL
MODEL 8
REMARK VINA RESULT:      -5.9      2.554      3.811
REMARK  Name = 
REMARK  20 active torsions:
REMARK  status: ('A' for Active; 'I' for Inactive)
REMARK    1  A    between atoms: C_1  and  C_2
REMARK    2  A    between atoms: C_2  and  C_3
REMARK    3  A    between atoms: C_3  and  C_4
REMARK    4  A    between atoms: C_4  and  C_5
REMARK    5  A    between atoms: C_5  and  C_6
REMARK    6  A    between atoms: C_6  and  C_7
REMARK    7  A    between atoms: C_7  and  C_8
REMARK    8  A    between atoms: C_8  and  C_9
REMARK    9  A    between atoms: C_10  and  C_11
REMARK   10  A    between atoms: C_11  and  C_12
REMARK   11  A    between atoms: C_12  and  C_13
REMARK   12  A    between atoms: C_13  and  C_14
REMARK   13  A    between atoms: C_14  and  C_15
REMARK   14  A    between atoms: C_15  and  C_16
REMARK   15  A    between atoms: C_16  and  C_17
REMARK   16  A    between atoms: C_17  and  C_18
REMARK   17  A    between atoms: N_20  and  C_21
REMARK   18  A    between atoms: C_21  and  C_22
REMARK   19  A    between atoms: C_26  and  O_27
REMARK   20  A    between atoms: O_27  and  C_28
REMARK                            x       y       z     vdW  Elec       q    Type
REMARK                         _______ _______ _______ _____ _____    ______ ____
ROOT
ATOM      1  C   UNL     1       2.396   4.961  20.656  0.00  0.00    +0.000 C 
ENDROOT
BRANCH   1   2
ATOM      2  C   UNL     1       2.111   3.934  19.574  0.00  0.00    +0.000 C 
BRANCH   2   3
ATOM      3  C   UNL     1       2.547   2.569  20.103  0.00  0.00    +0.000 C 
BRANCH   3   4
ATOM      4  C   UNL     1       4.046   2.442  20.041  0.00  0.00    +0.000 C 
ATOM      5  O   UNL     1       4.714   2.121  21.018  0.00  0.00    +0.000 OA
ATOM      6  N   UNL     1       4.647   2.663  18.838  0.00  0.00    +0.000 N 
ATOM      7  H   UNL     1       5.654   2.552  18.845  0.00  0.00    +0.000 HD
BRANCH   6   8
ATOM      8  C   UNL     1       3.991   3.085  17.627  0.00  0.00    +0.000 C 
BRANCH   8   9
ATOM      9  C   UNL     1       4.683   4.271  17.040  0.00  0.00    +0.000 A 
ATOM     10  C   UNL     1       4.160   5.555  17.209  0.00  0.00    +0.000 A 
ATOM     11  C   UNL     1       4.779   6.642  16.612  0.00  0.00    +0.000 A 
ATOM     12  C   UNL     1       5.923   6.451  15.832  0.00  0.00    +0.000 A 
ATOM     13  C   UNL     1       6.453   5.169  15.644  0.00  0.00    +0.000 A 
ATOM     14  C   UNL     1       5.832   4.083  16.254  0.00  0.00    +0.000 A 
BRANCH  13  15
ATOM     15  O   UNL     1       7.561   5.107  14.851  0.00  0.00    +0.000 OA
ATOM     16  C   UNL     1       7.342   5.123  13.445  0.00  0.00    +0.000 C 
ENDBRANCH  13  15
ENDBRANCH   8   9
ENDBRANCH   6   8
ENDBRANCH   3   4
ENDBRANCH   2   3
ENDBRANCH   1   2
BRANCH   1  17
ATOM     17  C   UNL     1       1.355   6.063  20.772  0.00  0.00    +0.000 C 
BRANCH  17  18
ATOM     18  C   UNL     1       1.918   7.478  20.595  0.00  0.00    +0.000 C 
BRANCH  18  19
ATOM     19  C   UNL     1       0.948   8.638  20.862  0.00  0.00    +0.000 C 
BRANCH  19  20
ATOM     20  C   UNL     1       1.071   9.390  22.183  0.00  0.00    +0.000 C 
BRANCH  20  22
ATOM     21  C   UNL     1      -1.000  10.466  23.111  0.00  0.00    +0.000 C 
ATOM     22  C   UNL     1      -0.192   9.403  23.009  0.00  0.00    +0.000 C 
BRANCH  21  23
ATOM     23  C   UNL     1      -0.708  11.718  22.358  0.00  0.00    +0.000 C 
BRANCH  23  24
ATOM     24  C   UNL     1      -1.936  12.366  21.765  0.00  0.00    +0.000 C 
BRANCH  24  25
ATOM     25  C   UNL     1      -1.763  12.385  20.254  0.00  0.00    +0.000 C 
BRANCH  25  26
ATOM     26  C   UNL     1      -0.300  12.233  19.897  0.00  0.00    +0.000 C 
BRANCH  26  27
ATOM     27  C   UNL     1      -0.142  11.296  18.709  0.00  0.00    +0.000 C 
BRANCH  27  28
ATOM     28  C   UNL     1      -1.360  10.391  18.610  0.00  0.00    +0.000 C 
BRANCH  28  30
ATOM     29  C   UNL     1      -3.310   9.760  17.182  0.00  0.00    +0.000 C 
ATOM     30  C   UNL     1      -1.934  10.399  17.200  0.00  0.00    +0.000 C 
ENDBRANCH  28  30
ENDBRANCH  27  28
ENDBRANCH  26  27
ENDBRANCH  25  26
ENDBRANCH  24  25
ENDBRANCH  23  24
ENDBRANCH  21  23
ENDBRANCH  20  22
ENDBRANCH  19  20
ENDBRANCH  18  19
ENDBRANCH  17  18
ENDBRANCH   1  17
TORSDOF 18
ENDMDL
MODEL 9
REMARK VINA RESULT:      -5.9      2.705      4.136
REMARK  Name = 
REMARK  20 active torsions:
REMARK  status: ('A' for Active; 'I' for Inactive)
REMARK    1  A    between atoms: C_1  and  C_2
REMARK    2  A    between atoms: C_2  and  C_3
REMARK    3  A    between atoms: C_3  and  C_4
REMARK    4  A    between atoms: C_4  and  C_5
REMARK    5  A    between atoms: C_5  and  C_6
REMARK    6  A    between atoms: C_6  and  C_7
REMARK    7  A    between atoms: C_7  and  C_8
REMARK    8  A    between atoms: C_8  and  C_9
REMARK    9  A    between atoms: C_10  and  C_11
REMARK   10  A    between atoms: C_11  and  C_12
REMARK   11  A    between atoms: C_12  and  C_13
REMARK   12  A    between atoms: C_13  and  C_14
REMARK   13  A    between atoms: C_14  and  C_15
REMARK   14  A    between atoms: C_15  and  C_16
REMARK   15  A    between atoms: C_16  and  C_17
REMARK   16  A    between atoms: C_17  and  C_18
REMARK   17  A    between atoms: N_20  and  C_21
REMARK   18  A    between atoms: C_21  and  C_22
REMARK   19  A    between atoms: C_26  and  O_27
REMARK   20  A    between atoms: O_27  and  C_28
REMARK                            x       y       z     vdW  Elec       q    Type
REMARK                         _______ _______ _______ _____ _____    ______ ____
ROOT
ATOM      1  C   UNL     1       2.281   7.545  18.749  0.00  0.00    +0.000 C 
ENDROOT
BRANCH   1   2
ATOM      2  C   UNL     1       2.754   6.346  17.945  0.00  0.00    +0.000 C 
BRANCH   2   3
ATOM      3  C   UNL     1       2.516   5.097  18.791  0.00  0.00    +0.000 C 
BRANCH   3   4
ATOM      4  C   UNL     1       2.647   3.861  17.941  0.00  0.00    +0.000 C 
ATOM      5  O   UNL     1       1.767   3.509  17.162  0.00  0.00    +0.000 OA
ATOM      6  N   UNL     1       3.807   3.152  18.036  0.00  0.00    +0.000 N 
ATOM      7  H   UNL     1       3.852   2.338  17.436  0.00  0.00    +0.000 HD
BRANCH   6   8
ATOM      8  C   UNL     1       4.898   3.428  18.936  0.00  0.00    +0.000 C 
BRANCH   8   9
ATOM      9  C   UNL     1       5.848   4.406  18.326  0.00  0.00    +0.000 A 
ATOM     10  C   UNL     1       6.399   5.435  19.094  0.00  0.00    +0.000 A 
ATOM     11  C   UNL     1       7.235   6.370  18.506  0.00  0.00    +0.000 A 
ATOM     12  C   UNL     1       7.519   6.289  17.139  0.00  0.00    +0.000 A 
ATOM     13  C   UNL     1       6.967   5.270  16.354  0.00  0.00    +0.000 A 
ATOM     14  C   UNL     1       6.135   4.328  16.954  0.00  0.00    +0.000 A 
BRANCH  13  15
ATOM     15  O   UNL     1       7.304   5.304  15.033  0.00  0.00    +0.000 OA
ATOM     16  C   UNL     1       6.505   4.527  14.149  0.00  0.00    +0.000 C 
ENDBRANCH  13  15
ENDBRANCH   8   9
ENDBRANCH   6   8
ENDBRANCH   3   4
ENDBRANCH   2   3
ENDBRANCH   1   2
BRANCH   1  17
ATOM     17  C   UNL     1       2.054   8.806  17.931  0.00  0.00    +0.000 C 
BRANCH  17  18
ATOM     18  C   UNL     1       0.995   9.749  18.514  0.00  0.00    +0.000 C 
BRANCH  18  19
ATOM     19  C   UNL     1       0.960   9.876  20.044  0.00  0.00    +0.000 C 
BRANCH  19  20
ATOM     20  C   UNL     1      -0.388  10.117  20.716  0.00  0.00    +0.000 C 
BRANCH  20  22
ATOM     21  C   UNL     1      -0.773  10.399  23.182  0.00  0.00    +0.000 C 
ATOM     22  C   UNL     1      -0.470   9.617  22.137  0.00  0.00    +0.000 C 
BRANCH  21  23
ATOM     23  C   UNL     1      -1.094  11.840  22.984  0.00  0.00    +0.000 C 
BRANCH  23  24
ATOM     24  C   UNL     1      -2.536  12.090  22.612  0.00  0.00    +0.000 C 
BRANCH  24  25
ATOM     25  C   UNL     1      -2.652  13.542  22.169  0.00  0.00    +0.000 C 
BRANCH  25  26
ATOM     26  C   UNL     1      -1.607  13.849  21.119  0.00  0.00    +0.000 C 
BRANCH  26  27
ATOM     27  C   UNL     1      -1.948  13.145  19.815  0.00  0.00    +0.000 C 
BRANCH  27  28
ATOM     28  C   UNL     1      -0.765  13.234  18.864  0.00  0.00    +0.000 C 
BRANCH  28  30
ATOM     29  C   UNL     1       1.364  14.538  18.801  0.00  0.00    +0.000 C 
ATOM     30  C   UNL     1       0.514  13.580  19.614  0.00  0.00    +0.000 C 
ENDBRANCH  28  30
ENDBRANCH  27  28
ENDBRANCH  26  27
ENDBRANCH  25  26
ENDBRANCH  24  25
ENDBRANCH  23  24
ENDBRANCH  21  23
ENDBRANCH  20  22
ENDBRANCH  19  20
ENDBRANCH  18  19
ENDBRANCH  17  18
ENDBRANCH   1  17
TORSDOF 18
ENDMDL
